@<TRIPOS>MOLECULE
3R540
247   249    1
SMALL
USER_CHARGES


@<TRIPOS>ATOM
      1 CA          8.1141  -15.2265  -47.1217 C.3       0 UNK        -0.1800 
      2 C           6.8404  -14.8820  -46.3635 C.2       0 UNK         0.5000 
      3 O           6.6151  -15.4032  -45.2704 O.2       0 UNK        -0.5000 
      4 N           6.0096  -13.9982  -46.9299 N.am      1 UNK        -0.5000 
      5 CA          4.7310  -13.5481  -46.3689 C.3       1 UNK         0.1400 
      6 C6          3.7446  -13.0979  -47.4805 C.3       23 UNK        -0.0398 
      7 S7          2.8030  -14.5101  -48.1299 S.3       23 UNK        -0.2404 
      8 C8          3.7228  -14.9577  -49.6278 C.3       23 UNK        -0.0205 
      9 C9          3.1438  -16.2424  -50.1906 C.ar      23 UNK        -0.0193 
     10 C10         1.9933  -16.2034  -50.9815 C.ar      23 UNK        -0.1150 
     11 C11         1.3783  -17.3868  -51.3982 C.ar      23 UNK        -0.0193 
     12 C12         1.9545  -18.6154  -51.0625 C.ar      23 UNK        -0.1150 
     13 C13         3.1080  -18.6659  -50.2704 C.ar      23 UNK        -0.0193 
     14 C14         3.7006  -17.4751  -49.8431 C.ar      23 UNK        -0.1150 
     15 C15         3.6920  -20.0004  -49.8285 C.3       23 UNK        -0.0205 
     16 S16         2.9273  -20.5882  -48.2789 S.3       23 UNK        -0.2404 
     17 C17         1.2834  -21.0585  -48.8987 C.3       23 UNK        -0.0398 
     18 CA          0.5124  -22.0235  -47.9686 C.3       11 UNK         0.1400 
     19 N          -0.0618  -21.3495  -46.7958 N.am      11 UNK        -0.5000 
     20 C          -0.7678  -21.9647  -45.8336 C.2       10 UNK         0.5000 
     21 O          -0.9432  -23.1817  -45.7888 O.2       10 UNK        -0.5000 
     22 CA         -1.4570  -21.0773  -44.7824 C.3       10 UNK         0.1400 
     23 CB         -0.4659  -20.6426  -43.6932 C.3       10 UNK        -0.1800 
     24 N          -2.1195  -19.9098  -45.3685 N.am      10 UNK        -0.5000 
     25 C          -3.1403  -19.9752  -46.2376 C.2       9 UNK         0.5000 
     26 O          -3.6513  -21.0279  -46.6131 O.2       9 UNK        -0.5000 
     27 CA         -3.6530  -18.6526  -46.8313 C.3       9 UNK         0.1400 
     28 CB         -4.6323  -17.9638  -45.8712 C.3       9 UNK        -0.1800 
     29 N          -2.5700  -17.7359  -47.1778 N.am      9 UNK        -0.5000 
     30 C          -1.6278  -17.9822  -48.0989 C.2       8 UNK         0.5000 
     31 O          -1.6106  -18.9887  -48.8109 O.2       8 UNK        -0.5000 
     32 CA         -0.4989  -16.9426  -48.2101 C.3       8 UNK         0.1400 
     33 CB         -0.9752  -15.7008  -48.9784 C.3       8 UNK        -0.1800 
     34 N           0.0144  -16.5420  -46.9001 N.am      8 UNK        -0.5000 
     35 C           0.6085  -17.3766  -46.0355 C.2       7 UNK         0.5000 
     36 O           0.8232  -18.5661  -46.2678 O.2       7 UNK        -0.5000 
     37 CA          0.9597  -16.7994  -44.6539 C.3       7 UNK         0.1400 
     38 CB          2.2999  -16.0532  -44.6866 C.3       7 UNK        -0.1800 
     39 N          -0.0923  -15.9132  -44.1532 N.am      7 UNK        -0.5000 
     40 C          -1.2845  -16.3461  -43.7174 C.2       6 UNK         0.5000 
     41 O          -1.5946  -17.5348  -43.6532 O.2       6 UNK        -0.5000 
     42 CA         -2.3232  -15.2772  -43.3316 C.3       6 UNK         0.1400 
     43 CB         -2.1605  -14.8654  -41.8619 C.3       6 UNK        -0.1800 
     44 N          -2.2592  -14.0923  -44.1880 N.am      6 UNK        -0.5000 
     45 C          -2.5753  -14.0972  -45.4914 C.2       5 UNK         0.5000 
     46 O          -2.9822  -15.0954  -46.0849 O.2       5 UNK        -0.5000 
     47 CA         -2.3751  -12.7892  -46.2813 C.3       5 UNK         0.1400 
     48 CB         -3.6987  -12.0171  -46.3802 C.3       5 UNK        -0.1800 
     49 N          -1.3420  -11.9021  -45.7414 N.am      5 UNK        -0.5000 
     50 C          -0.0501  -12.2192  -45.5819 C.2       4 UNK         0.5000 
     51 O           0.4089  -13.3351  -45.8334 O.2       4 UNK        -0.5000 
     52 CA          0.8892  -11.1240  -45.0320 C.3       4 UNK         0.1400 
     53 CB          0.1840   -9.7968  -44.6704 C.3       4 UNK        -0.1800 
     54 N           1.6785  -11.6101  -43.8977 N.am      4 UNK        -0.5000 
     55 C           1.2110  -12.0985  -42.7375 C.2       3 UNK         0.5000 
     56 O           0.0106  -12.1757  -42.4708 O.2       3 UNK        -0.5000 
     57 CA          2.2457  -12.6037  -41.7083 C.3       3 UNK         0.1400 
     58 CB          1.8338  -13.9672  -41.1261 C.3       3 UNK        -0.1800 
     59 N           3.5898  -12.7217  -42.2806 N.am      3 UNK        -0.5000 
     60 C           4.5519  -11.7917  -42.2016 C.2       2 UNK         0.5000 
     61 O           4.4365  -10.7351  -41.5805 O.2       2 UNK        -0.5000 
     62 CA          5.8511  -12.0783  -42.9825 C.3       2 UNK         0.1400 
     63 CB          6.8756  -12.7890  -42.0856 C.3       2 UNK        -0.1800 
     64 N           5.6296  -12.8839  -44.1871 N.am      2 UNK        -0.5000 
     65 C           4.9364  -12.4892  -45.2631 C.2       1 UNK         0.5000 
     66 O           4.4521  -11.3619  -45.3741 O.2       1 UNK        -0.5000 
     67 C          -0.5728  -22.7463  -48.7891 C.2       11 UNK         0.5000 
     68 O          -0.4226  -23.9291  -49.0950 O.2       11 UNK        -0.5000 
     69 N          -1.6550  -22.0270  -49.1118 N.am      12 UNK        -0.5000 
     70 CA         -2.7705  -22.5401  -49.9035 C.3       12 UNK         0.1400 
     71 CB         -3.6461  -21.3618  -50.3360 C.3       12 UNK        -0.1800 
     72 C          -3.6077  -23.6130  -49.1833 C.2       12 UNK         0.5000 
     73 O          -4.2642  -24.4113  -49.8518 O.2       12 UNK        -0.5000 
     74 N          -3.6070  -23.6090  -47.8471 N.am      13 UNK        -0.5000 
     75 CA         -4.2343  -24.6350  -47.0174 C.3       13 UNK         0.1400 
     76 CB         -4.5390  -24.0531  -45.6293 C.3       13 UNK        -0.1800 
     77 C          -3.3511  -25.8895  -46.8989 C.2       13 UNK         0.5000 
     78 O          -3.8810  -26.9992  -46.8732 O.2       13 UNK        -0.5000 
     79 N          -2.0279  -25.6981  -46.8271 N.am      14 UNK        -0.5000 
     80 CA         -1.0468  -26.7716  -46.6942 C.3       14 UNK         0.1400 
     81 CB          0.2613  -26.2014  -46.1223 C.3       14 UNK        -0.1800 
     82 C          -0.7857  -27.5054  -48.0199 C.2       14 UNK         0.5000 
     83 O          -0.8586  -28.7344  -48.0556 O.2       14 UNK        -0.5000 
     84 N          -0.4521  -26.7473  -49.0724 N.am      15 UNK        -0.5000 
     85 CA          0.0045  -27.2858  -50.3520 C.3       15 UNK         0.1400 
     86 CB          0.9866  -26.2983  -51.0051 C.3       15 UNK        -0.1800 
     87 C          -1.1647  -27.6056  -51.2933 C.2       15 UNK         0.5000 
     88 O          -1.2833  -28.7425  -51.7519 O.2       15 UNK        -0.5000 
     89 N          -1.9958  -26.5944  -51.5799 N.am      16 UNK        -0.5000 
     90 CA         -3.0950  -26.6975  -52.5444 C.3       16 UNK         0.1400 
     91 CB         -3.4053  -25.3026  -53.1130 C.3       16 UNK        -0.1800 
     92 C          -4.3628  -27.3447  -51.9575 C.2       16 UNK         0.5000 
     93 O          -5.1940  -27.8319  -52.7244 O.2       16 UNK        -0.5000 
     94 N          -4.4935  -27.3198  -50.6218 N.am      17 UNK        -0.5000 
     95 CA         -5.6498  -27.7648  -49.8325 C.3       17 UNK         0.1400 
     96 CB         -5.8322  -29.2933  -49.9355 C.3       17 UNK        -0.1800 
     97 C          -6.9377  -26.9745  -50.1526 C.2       17 UNK         0.5000 
     98 O          -8.0377  -27.5240  -50.0672 O.2       17 UNK        -0.5000 
     99 N          -6.7692  -25.7004  -50.5280 N.am      18 UNK        -0.5000 
    100 CA        -7.8335  -24.8147  -50.9972 C.3       18 UNK         0.1400 
    101 CB        -7.4657  -24.3170  -52.4050 C.3       18 UNK        -0.1800 
    102 C         -8.0528  -23.6166  -50.0614 C.2       18 UNK         0.5000 
    103 O         -9.1778  -23.1244  -49.9779 O.2       18 UNK        -0.5000 
    104 N         -6.9763  -23.1459  -49.4084 N.am      19 UNK        -0.5000 
    105 CA        -6.9133  -21.9449  -48.5561 C.3       19 UNK         0.1400 
    106 CB        -7.7609  -22.1301  -47.2816 C.3       19 UNK        -0.1800 
    107 C         -7.2423  -20.6289  -49.3054 C.2       19 UNK         0.5000 
    108 O         -7.5975  -19.6315  -48.6780 O.2       19 UNK        -0.5000 
    109 N         -7.1010  -20.6455  -50.6387 N.am      20 UNK        -0.5000 
    110 CA        -7.5047  -19.5856  -51.5684 C.3       20 UNK         0.1400 
    111 CB        -7.8922  -20.2510  -52.9009 C.3       20 UNK        -0.1800 
    112 C         -6.4373  -18.4908  -51.7847 C.2       20 UNK         0.5000 
    113 O         -6.5820  -17.6799  -52.7005 O.2       20 UNK        -0.5000 
    114 N         -5.3767  -18.4972  -50.9645 N.am      21 UNK        -0.5000 
    115 CA        -4.2377  -17.5706  -50.9804 C.3       21 UNK         0.1400 
    116 CB        -4.6730  -16.1539  -50.5523 C.3       21 UNK        -0.1800 
    117 C         -3.4353  -17.5979  -52.3007 C.2       21 UNK         0.5000 
    118 O         -2.9776  -16.5553  -52.7663 O.2       21 UNK        -0.5000 
    119 N         -3.2856  -18.8074  -52.8595 N.am      22 UNK        -0.5000 
    120 CA        -2.5084  -19.1916  -54.0550 C.3       22 UNK         0.1400 
    121 C         -2.8661  -18.4830  -55.3992 C.2       22 UNK         0.5000 
    122 N         -3.9646  -17.7435  -55.4874 N.am      22 UNK        -0.7600 
    123 O         -2.1709  -18.6529  -56.3973 O.2       22 UNK        -0.5000 
    124 C124       -0.9808  -19.3614  -53.7760 C.3       23 UNK        -0.0398 
    125 S125        0.0561  -17.8538  -53.8266 S.3       23 UNK        -0.2404 
    126 C126        0.0244  -17.3284  -52.0874 C.3       23 UNK        -0.0205 
    127 H127        8.1768  -14.6955  -48.0719 H         1 UNK         0.0600 
    128 H128        8.1495  -16.2963  -47.3272 H         1 UNK         0.0600 
    129 H129        8.9880  -14.9632  -46.5258 H         1 UNK         0.0600 
    130 H130        6.2727  -13.5748  -47.8081 H         1 UNK         0.3000 
    131 H131        4.2830  -14.3970  -45.8523 H         1 UNK         0.0600 
    132 H132        4.2530  -12.5649  -48.2852 H         1 UNK         0.0800 
    133 H133        2.9882  -12.4120  -47.0987 H         1 UNK         0.0800 
    134 H134        3.6537  -14.1537  -50.3620 H         1 UNK         0.0800 
    135 H135        4.7800  -15.0863  -49.3915 H         1 UNK         0.0800 
    136 H136        1.5399  -15.2494  -51.2114 H         1 UNK         0.1150 
    137 H137        1.4739  -19.5306  -51.3766 H         1 UNK         0.1150 
    138 H138        4.5728  -17.5086  -49.2052 H         1 UNK         0.1150 
    139 H139        3.5726  -20.7469  -50.6151 H         1 UNK         0.0800 
    140 H140        4.7669  -19.8996  -49.6712 H         1 UNK         0.0800 
    141 H141        1.4348  -21.5135  -49.8799 H         1 UNK         0.0800 
    142 H142        0.7053  -20.1503  -49.0687 H         1 UNK         0.0800 
    143 H143        1.2024  -22.7884  -47.6065 H         1 UNK         0.0600 
    144 H144        0.0834  -20.3455  -46.7315 H         1 UNK         0.3000 
    145 H145       -2.2304  -21.6813  -44.3034 H         1 UNK         0.0600 
    146 H146       -0.9698  -20.0929  -42.8983 H         1 UNK         0.0600 
    147 H147        0.0122  -21.5089  -43.2344 H         1 UNK         0.0600 
    148 H148        0.3238  -20.0076  -44.0927 H         1 UNK         0.0600 
    149 H149       -1.7857  -19.0009  -45.0668 H         1 UNK         0.3000 
    150 H150       -4.1934  -18.8895  -47.7499 H         1 UNK         0.0600 
    151 H151       -5.4619  -18.6256  -45.6187 H         1 UNK         0.0600 
    152 H152       -5.0576  -17.0663  -46.3207 H         1 UNK         0.0600 
    153 H153       -4.1458  -17.6732  -44.9397 H         1 UNK         0.0600 
    154 H154       -2.5466  -16.8527  -46.6745 H         1 UNK         0.3000 
    155 H155        0.3234  -17.4014  -48.7613 H         1 UNK         0.0600 
    156 H156       -1.3674  -15.9726  -49.9573 H         1 UNK         0.0600 
    157 H157       -0.1582  -14.9967  -49.1360 H         1 UNK         0.0600 
    158 H158       -1.7711  -15.1774  -48.4509 H         1 UNK         0.0600 
    159 H159       -0.0999  -15.5728  -46.6350 H         1 UNK         0.3000 
    160 H160        1.0641  -17.6393  -43.9640 H         1 UNK         0.0600 
    161 H161        2.2124  -15.1092  -45.2210 H         1 UNK         0.0600 
    162 H162        3.0696  -16.6453  -45.1841 H         1 UNK         0.0600 
    163 H163        2.6589  -15.8389  -43.6813 H         1 UNK         0.0600 
    164 H164        0.0572  -14.9183  -44.2623 H         1 UNK         0.3000 
    165 H165       -3.3139  -15.7218  -43.4481 H         1 UNK         0.0600 
    166 H166       -2.9175  -14.1381  -41.5683 H         1 UNK         0.0600 
    167 H167       -2.2641  -15.7280  -41.2025 H         1 UNK         0.0600 
    168 H168       -1.1817  -14.4262  -41.6732 H         1 UNK         0.0600 
    169 H169       -1.8970  -13.2439  -43.7734 H         1 UNK         0.3000 
    170 H170       -2.0677  -13.0662  -47.2913 H         1 UNK         0.0600 
    171 H171       -4.4849  -12.6420  -46.8064 H         1 UNK         0.0600 
    172 H172       -4.0415  -11.6802  -45.4010 H         1 UNK         0.0600 
    173 H173       -3.5990  -11.1415  -47.0220 H         1 UNK         0.0600 
    174 H174       -1.6396  -10.9719  -45.4857 H         1 UNK         0.3000 
    175 H175        1.5998  -10.9075  -45.8301 H         1 UNK         0.0600 
    176 H176       -0.5693   -9.9269  -43.8927 H         1 UNK         0.0600 
    177 H177        0.9043   -9.0630  -44.3083 H         1 UNK         0.0600 
    178 H178       -0.3039   -9.3569  -45.5410 H         1 UNK         0.0600 
    179 H179        2.6802  -11.5909  -44.0360 H         1 UNK         0.3000 
    180 H180        2.2576  -11.8830  -40.8883 H         1 UNK         0.0600 
    181 H181        1.6609  -14.7077  -41.9064 H         1 UNK         0.0600 
    182 H182        0.9128  -13.8808  -40.5488 H         1 UNK         0.0600 
    183 H183        2.5969  -14.3579  -40.4528 H         1 UNK         0.0600 
    184 H184        3.7802  -13.5583  -42.8121 H         1 UNK         0.3000 
    185 H185        6.2713  -11.1185  -43.2901 H         1 UNK         0.0600 
    186 H186        7.0824  -12.2037  -41.1886 H         1 UNK         0.0600 
    187 H187        6.5188  -13.7685  -41.7645 H         1 UNK         0.0600 
    188 H188        7.8231  -12.9311  -42.6058 H         1 UNK         0.0600 
    189 H189        6.0244  -13.8197  -44.1997 H         1 UNK         0.3000 
    190 H190       -1.7013  -21.0527  -48.8295 H         1 UNK         0.3000 
    191 H191       -2.3591  -23.0029  -50.8029 H         1 UNK         0.0600 
    192 H192       -3.0522  -20.6335  -50.8849 H         1 UNK         0.0600 
    193 H193       -4.4544  -21.6915  -50.9889 H         1 UNK         0.0600 
    194 H194       -4.0809  -20.8520  -49.4767 H         1 UNK         0.0600 
    195 H195       -3.1500  -22.8448  -47.3611 H         1 UNK         0.3000 
    196 H196       -5.1822  -24.9320  -47.4715 H         1 UNK         0.0600 
    197 H197       -5.0309  -24.7913  -44.9950 H         1 UNK         0.0600 
    198 H198       -5.2021  -23.1910  -45.7008 H         1 UNK         0.0600 
    199 H199       -3.6305  -23.7322  -45.1187 H         1 UNK         0.0600 
    200 H200       -1.6688  -24.7493  -46.7909 H         1 UNK         0.3000 
    201 H201       -1.4283  -27.5031  -45.9784 H         1 UNK         0.0600 
    202 H202        0.1018  -25.7707  -45.1337 H         1 UNK         0.0600 
    203 H203        0.6766  -25.4208  -46.7612 H         1 UNK         0.0600 
    204 H204        1.0173  -26.9808  -46.0193 H         1 UNK         0.0600 
    205 H205       -0.4366  -25.7335  -48.9728 H         1 UNK         0.3000 
    206 H206        0.5515  -28.2146  -50.1741 H         1 UNK         0.0600 
    207 H207        1.8468  -26.1174  -50.3604 H         1 UNK         0.0600 
    208 H208        1.3651  -26.6924  -51.9490 H         1 UNK         0.0600 
    209 H209        0.5218  -25.3348  -51.2158 H         1 UNK         0.0600 
    210 H210       -1.8369  -25.6936  -51.1537 H         1 UNK         0.3000 
    211 H211       -2.7715  -27.3250  -53.3779 H         1 UNK         0.0600 
    212 H212       -3.7430  -24.6101  -52.3442 H         1 UNK         0.0600 
    213 H213       -4.1915  -25.3564  -53.8672 H         1 UNK         0.0600 
    214 H214       -2.5275  -24.8686  -53.5921 H         1 UNK         0.0600 
    215 H215       -3.7627  -26.8579  -50.0995 H         1 UNK         0.3000 
    216 H216       -5.4214  -27.5362  -48.7940 H         1 UNK         0.0600 
    217 H217       -6.5911  -29.6445  -49.2356 H         1 UNK         0.0600 
    218 H218       -4.9060  -29.8161  -49.6963 H         1 UNK         0.0600 
    219 H219       -6.1430  -29.5998  -50.9345 H         1 UNK         0.0600 
    220 H220       -5.8238  -25.3299  -50.5264 H         1 UNK         0.3000 
    221 H221       -8.7817  -25.3520  -51.0652 H         1 UNK         0.0600 
    222 H222       -6.5214  -23.7710  -52.4085 H         1 UNK         0.0600 
    223 H223       -7.3687  -25.1507  -53.1009 H         1 UNK         0.0600 
    224 H224       -8.2345  -23.6519  -52.8006 H         1 UNK         0.0600 
    225 H225       -6.0993  -23.6368  -49.5366 H         1 UNK         0.3000 
    226 H226       -5.8771  -21.8518  -48.2324 H         1 UNK         0.0600 
    227 H227       -7.5183  -23.0668  -46.7800 H         1 UNK         0.0600 
    228 H228       -7.5757  -21.3252  -46.5693 H         1 UNK         0.0600 
    229 H229       -8.8289  -22.1334  -47.5004 H         1 UNK         0.0600 
    230 H230       -6.8008  -21.5090  -51.0638 H         1 UNK         0.3000 
    231 H231       -8.3915  -19.0883  -51.1702 H         1 UNK         0.0600 
    232 H232       -7.0391  -20.7451  -53.3674 H         1 UNK         0.0600 
    233 H233       -8.2779  -19.5195  -53.6121 H         1 UNK         0.0600 
    234 H234       -8.6740  -20.9969  -52.7553 H         1 UNK         0.0600 
    235 H235       -5.3731  -19.1929  -50.2347 H         1 UNK         0.3000 
    236 H236       -3.5526  -17.9361  -50.2190 H         1 UNK         0.0600 
    237 H237       -5.1846  -16.1746  -49.5899 H         1 UNK         0.0600 
    238 H238       -3.8120  -15.4935  -50.4441 H         1 UNK         0.0600 
    239 H239       -5.3440  -15.6985  -51.2810 H         1 UNK         0.0600 
    240 H240       -3.7657  -19.5721  -52.4112 H         1 UNK         0.3000 
    241 H241       -2.8649  -20.2058  -54.2389 H         1 UNK         0.0600 
    242 H242       -4.1995  -17.3044  -56.3635 H         1 UNK         0.3800 
    243 H243       -4.5384  -17.5826  -54.6735 H         1 UNK         0.3800 
    244 H244       -0.8290  -19.8732  -52.8248 H         1 UNK         0.0800 
    245 H245       -0.5657  -20.0392  -54.5234 H         1 UNK         0.0800 
    246 H246       -0.6777  -17.9339  -51.5141 H         1 UNK         0.0800 
    247 H247       -0.3668  -16.3108  -52.0625 H         1 UNK         0.0800 
@<TRIPOS>BOND
     1    1    2 1    
     2    1  127 1    
     3    1  128 1    
     4    1  129 1    
     5    2    3 2    
     6    2    4 am   BACKBONE|DICT|INTERRES
     7    4    5 1    
     8    4  130 1    
     9    5    6 1    
    10    5   65 1    
    11    5  131 1    
    12    6    7 1    
    13    6  132 1    
    14    6  133 1    
    15    7    8 1    
    16    8    9 1    
    17    8  134 1    
    18    8  135 1    
    19    9   10 ar   
    20    9   14 ar   
    21   10   11 ar   
    22   10  136 1    
    23   11   12 ar   
    24   11  126 1    
    25   12   13 ar   
    26   12  137 1    
    27   13   14 ar   
    28   13   15 1    
    29   14  138 1    
    30   15   16 1    
    31   15  139 1    
    32   15  140 1    
    33   16   17 1    
    34   17   18 1    
    35   17  141 1    
    36   17  142 1    
    37   18   19 1    
    38   18   67 1    
    39   18  143 1    
    40   19   20 am   BACKBONE|DICT|INTERRES
    41   19  144 1    
    42   20   21 2    
    43   20   22 1    
    44   22   23 1    
    45   22   24 1    
    46   22  145 1    
    47   23  146 1    
    48   23  147 1    
    49   23  148 1    
    50   24   25 am   BACKBONE|DICT|INTERRES
    51   24  149 1    
    52   25   26 2    
    53   25   27 1    
    54   27   28 1    
    55   27   29 1    
    56   27  150 1    
    57   28  151 1    
    58   28  152 1    
    59   28  153 1    
    60   29   30 am   BACKBONE|DICT|INTERRES
    61   29  154 1    
    62   30   31 2    
    63   30   32 1    
    64   32   33 1    
    65   32   34 1    
    66   32  155 1    
    67   33  156 1    
    68   33  157 1    
    69   33  158 1    
    70   34   35 am   BACKBONE|DICT|INTERRES
    71   34  159 1    
    72   35   36 2    
    73   35   37 1    
    74   37   38 1    
    75   37   39 1    
    76   37  160 1    
    77   38  161 1    
    78   38  162 1    
    79   38  163 1    
    80   39   40 am   BACKBONE|DICT|INTERRES
    81   39  164 1    
    82   40   41 2    
    83   40   42 1    
    84   42   43 1    
    85   42   44 1    
    86   42  165 1    
    87   43  166 1    
    88   43  167 1    
    89   43  168 1    
    90   44   45 am   BACKBONE|DICT|INTERRES
    91   44  169 1    
    92   45   46 2    
    93   45   47 1    
    94   47   48 1    
    95   47   49 1    
    96   47  170 1    
    97   48  171 1    
    98   48  172 1    
    99   48  173 1    
   100   49   50 am   BACKBONE|DICT|INTERRES
   101   49  174 1    
   102   50   51 2    
   103   50   52 1    
   104   52   53 1    
   105   52   54 1    
   106   52  175 1    
   107   53  176 1    
   108   53  177 1    
   109   53  178 1    
   110   54   55 am   BACKBONE|DICT|INTERRES
   111   54  179 1    
   112   55   56 2    
   113   55   57 1    
   114   57   58 1    
   115   57   59 1    
   116   57  180 1    
   117   58  181 1    
   118   58  182 1    
   119   58  183 1    
   120   59   60 am   BACKBONE|DICT|INTERRES
   121   59  184 1    
   122   60   61 2    
   123   60   62 1    
   124   62   63 1    
   125   62   64 1    
   126   62  185 1    
   127   63  186 1    
   128   63  187 1    
   129   63  188 1    
   130   64   65 am   BACKBONE|DICT|INTERRES
   131   64  189 1    
   132   65   66 2    
   133   67   68 2    
   134   67   69 am   BACKBONE|DICT|INTERRES
   135   69   70 1    
   136   69  190 1    
   137   70   71 1    
   138   70   72 1    
   139   70  191 1    
   140   71  192 1    
   141   71  193 1    
   142   71  194 1    
   143   72   73 2    
   144   72   74 am   BACKBONE|DICT|INTERRES
   145   74   75 1    
   146   74  195 1    
   147   75   76 1    
   148   75   77 1    
   149   75  196 1    
   150   76  197 1    
   151   76  198 1    
   152   76  199 1    
   153   77   78 2    
   154   77   79 am   BACKBONE|DICT|INTERRES
   155   79   80 1    
   156   79  200 1    
   157   80   81 1    
   158   80   82 1    
   159   80  201 1    
   160   81  202 1    
   161   81  203 1    
   162   81  204 1    
   163   82   83 2    
   164   82   84 am   BACKBONE|DICT|INTERRES
   165   84   85 1    
   166   84  205 1    
   167   85   86 1    
   168   85   87 1    
   169   85  206 1    
   170   86  207 1    
   171   86  208 1    
   172   86  209 1    
   173   87   88 2    
   174   87   89 am   BACKBONE|DICT|INTERRES
   175   89   90 1    
   176   89  210 1    
   177   90   91 1    
   178   90   92 1    
   179   90  211 1    
   180   91  212 1    
   181   91  213 1    
   182   91  214 1    
   183   92   93 2    
   184   92   94 am   BACKBONE|DICT|INTERRES
   185   94   95 1    
   186   94  215 1    
   187   95   96 1    
   188   95   97 1    
   189   95  216 1    
   190   96  217 1    
   191   96  218 1    
   192   96  219 1    
   193   97   98 2    
   194   97   99 am   BACKBONE|DICT|INTERRES
   195   99  100 1    
   196   99  220 1    
   197  100  101 1    
   198  100  102 1    
   199  100  221 1    
   200  101  222 1    
   201  101  223 1    
   202  101  224 1    
   203  102  103 2    
   204  102  104 am   BACKBONE|DICT|INTERRES
   205  104  105 1    
   206  104  225 1    
   207  105  106 1    
   208  105  107 1    
   209  105  226 1    
   210  106  227 1    
   211  106  228 1    
   212  106  229 1    
   213  107  108 2    
   214  107  109 am   BACKBONE|DICT|INTERRES
   215  109  110 1    
   216  109  230 1    
   217  110  111 1    
   218  110  112 1    
   219  110  231 1    
   220  111  232 1    
   221  111  233 1    
   222  111  234 1    
   223  112  113 2    
   224  112  114 am   BACKBONE|DICT|INTERRES
   225  114  115 1    
   226  114  235 1    
   227  115  116 1    
   228  115  117 1    
   229  115  236 1    
   230  116  237 1    
   231  116  238 1    
   232  116  239 1    
   233  117  118 2    
   234  117  119 am   BACKBONE|DICT|INTERRES
   235  119  120 1    
   236  119  240 1    
   237  120  121 1    
   238  120  124 1    
   239  120  241 1    
   240  121  122 am   BACKBONE|DICT|INTERRES
   241  121  123 2    
   242  122  242 1    
   243  122  243 1    
   244  124  125 1    
   245  124  244 1    
   246  124  245 1    
   247  125  126 1    
   248  126  246 1    
   249  126  247 1    
@<TRIPOS>SUBSTRUCTURE
     1 UNK         1 GROUP             0       ****    0 ROOT    
