@<TRIPOS>MOLECULE
3R540
247   249    1
SMALL
USER_CHARGES


@<TRIPOS>ATOM
      1 CA         -1.7944  -12.4051  -52.0099 C.3       0 UNK        -0.1800 
      2 C          -3.2929  -12.5373  -51.7433 C.2       0 UNK         0.5000 
      3 O          -4.0841  -12.4109  -52.6753 O.2       0 UNK        -0.5000 
      4 N          -3.7322  -12.8081  -50.5069 N.am      1 UNK        -0.5000 
      5 CA         -2.9287  -12.8763  -49.2812 C.3       1 UNK         0.1400 
      6 C6         -3.6710  -13.6312  -48.1515 C.3       23 UNK        -0.0398 
      7 S7         -3.7606  -15.4197  -48.4868 S.3       23 UNK        -0.2404 
      8 C8         -5.5401  -15.6844  -48.7502 C.3       23 UNK        -0.0205 
      9 C9         -5.8241  -17.1563  -49.0075 C.ar      23 UNK        -0.0193 
     10 C10        -6.0892  -17.6173  -50.3002 C.ar      23 UNK        -0.1150 
     11 C11        -6.3003  -18.9794  -50.5386 C.ar      23 UNK        -0.0193 
     12 C12        -6.2444  -19.8835  -49.4717 C.ar      23 UNK        -0.1150 
     13 C13        -5.9618  -19.4352  -48.1779 C.ar      23 UNK        -0.0193 
     14 C14        -5.7770  -18.0686  -47.9502 C.ar      23 UNK        -0.1150 
     15 C15        -5.7781  -20.4216  -47.0347 C.3       23 UNK        -0.0205 
     16 S16        -4.0094  -20.5557  -46.6389 S.3       23 UNK        -0.2404 
     17 C17        -3.9475  -21.7951  -45.3028 C.3       23 UNK        -0.0398 
     18 CA         -2.9383  -22.9206  -45.6337 C.3       11 UNK         0.1400 
     19 N          -1.5672  -22.4265  -45.8044 N.am      11 UNK        -0.5000 
     20 C          -0.5726  -23.1260  -46.3646 C.2       10 UNK         0.5000 
     21 O          -0.7057  -24.2754  -46.7806 O.2       10 UNK        -0.5000 
     22 CA          0.8147  -22.4624  -46.4132 C.3       10 UNK         0.1400 
     23 CB          0.9030  -21.4602  -47.5720 C.3       10 UNK        -0.1800 
     24 N           1.1781  -21.8066  -45.1556 N.am      10 UNK        -0.5000 
     25 C           1.3567  -22.4496  -43.9930 C.2       9 UNK         0.5000 
     26 O           1.2299  -23.6667  -43.8627 O.2       9 UNK        -0.5000 
     27 CA          1.6865  -21.5922  -42.7579 C.3       9 UNK         0.1400 
     28 CB          3.1523  -21.1338  -42.7757 C.3       9 UNK        -0.1800 
     29 N           0.8034  -20.4341  -42.6337 N.am      9 UNK        -0.5000 
     30 C          -0.5183  -20.5156  -42.4212 C.2       8 UNK         0.5000 
     31 O          -1.1196  -21.5737  -42.2354 O.2       8 UNK        -0.5000 
     32 CA         -1.3123  -19.1979  -42.4702 C.3       8 UNK         0.1400 
     33 CB         -1.2434  -18.4749  -41.1170 C.3       8 UNK        -0.1800 
     34 N          -0.8742  -18.2963  -43.5387 N.am      8 UNK        -0.5000 
     35 C          -0.8781  -18.6082  -44.8433 C.2       7 UNK         0.5000 
     36 O          -1.2432  -19.6955  -45.2803 O.2       7 UNK        -0.5000 
     37 CA         -0.3148  -17.5644  -45.8203 C.3       7 UNK         0.1400 
     38 CB         -1.2834  -16.3865  -45.9907 C.3       7 UNK        -0.1800 
     39 N           0.9972  -17.0764  -45.4041 N.am      7 UNK        -0.5000 
     40 C           2.0876  -17.8434  -45.2632 C.2       6 UNK         0.5000 
     41 O           2.1264  -19.0433  -45.5356 O.2       6 UNK        -0.5000 
     42 CA          3.3288  -17.1627  -44.6651 C.3       6 UNK         0.1400 
     43 CB          4.1019  -16.3847  -45.7403 C.3       6 UNK        -0.1800 
     44 N           2.9752  -16.2668  -43.5640 N.am      6 UNK        -0.5000 
     45 C           2.5290  -16.6794  -42.3691 C.2       5 UNK         0.5000 
     46 O           2.3975  -17.8637  -42.0578 O.2       5 UNK        -0.5000 
     47 CA          2.1317  -15.5790  -41.3680 C.3       5 UNK         0.1400 
     48 CB          3.3719  -15.0160  -40.6578 C.3       5 UNK        -0.1800 
     49 N           1.3916  -14.4833  -41.9979 N.am      5 UNK        -0.5000 
     50 C           0.1584  -14.6073  -42.5072 C.2       4 UNK         0.5000 
     51 O          -0.4854  -15.6548  -42.4883 O.2       4 UNK        -0.5000 
     52 CA         -0.4488  -13.3662  -43.1854 C.3       4 UNK         0.1400 
     53 CB         -1.1232  -12.4595  -42.1454 C.3       4 UNK        -0.1800 
     54 N           0.4984  -12.5743  -43.9746 N.am      4 UNK        -0.5000 
     55 C           1.2548  -13.0331  -44.9797 C.2       3 UNK         0.5000 
     56 O           1.3178  -14.2195  -45.3047 O.2       3 UNK        -0.5000 
     57 CA          2.0132  -11.9705  -45.7953 C.3       3 UNK         0.1400 
     58 CB          3.2384  -12.5564  -46.5188 C.3       3 UNK        -0.1800 
     59 N           1.1127  -11.3818  -46.7859 N.am      3 UNK        -0.5000 
     60 C           0.1812  -10.4540  -46.5210 C.2       2 UNK         0.5000 
     61 O           0.0437   -9.9172  -45.4210 O.2       2 UNK        -0.5000 
     62 CA         -0.7907  -10.1176  -47.6590 C.3       2 UNK         0.1400 
     63 CB         -0.1130   -9.2798  -48.7583 C.3       2 UNK        -0.1800 
     64 N          -1.3414  -11.3531  -48.2157 N.am      2 UNK        -0.5000 
     65 C          -2.5316  -11.4603  -48.8151 C.2       1 UNK         0.5000 
     66 O          -3.3014  -10.5127  -48.9911 O.2       1 UNK        -0.5000 
     67 C          -3.0350  -24.0877  -44.6287 C.2       11 UNK         0.5000 
     68 O          -3.9843  -24.8657  -44.7129 O.2       11 UNK        -0.5000 
     69 N          -2.0544  -24.2206  -43.7259 N.am      12 UNK        -0.5000 
     70 CA         -1.9041  -25.3785  -42.8499 C.3       12 UNK         0.1400 
     71 CB         -1.1737  -24.9622  -41.5629 C.3       12 UNK        -0.1800 
     72 C          -1.1667  -26.5274  -43.5622 C.2       12 UNK         0.5000 
     73 O          -1.6685  -27.6515  -43.5789 O.2       12 UNK        -0.5000 
     74 N           0.0150  -26.2326  -44.1216 N.am      13 UNK        -0.5000 
     75 CA          0.9435  -27.2245  -44.6675 C.3       13 UNK         0.1400 
     76 CB          2.3401  -26.5945  -44.7859 C.3       13 UNK        -0.1800 
     77 C           0.5137  -27.8195  -46.0197 C.2       13 UNK         0.5000 
     78 O           0.6603  -29.0259  -46.2204 O.2       13 UNK        -0.5000 
     79 N           0.0165  -26.9692  -46.9248 N.am      14 UNK        -0.5000 
     80 CA         -0.3402  -27.3160  -48.3035 C.3       14 UNK         0.1400 
     81 CB          0.4160  -26.3712  -49.2546 C.3       14 UNK        -0.1800 
     82 C          -1.8591  -27.2455  -48.5476 C.2       14 UNK         0.5000 
     83 O          -2.2920  -27.4063  -49.6886 O.2       14 UNK        -0.5000 
     84 N          -2.6367  -26.9913  -47.4844 N.am      15 UNK        -0.5000 
     85 CA         -4.0989  -26.8513  -47.4270 C.3       15 UNK         0.1400 
     86 CB         -4.8107  -28.1038  -47.9786 C.3       15 UNK        -0.1800 
     87 C          -4.6556  -25.5561  -48.0590 C.2       15 UNK         0.5000 
     88 O          -5.8414  -25.2723  -47.8841 O.2       15 UNK        -0.5000 
     89 N          -3.8145  -24.7767  -48.7476 N.am      16 UNK        -0.5000 
     90 CA         -4.1406  -23.5018  -49.3750 C.3       16 UNK         0.1400 
     91 CB         -4.9782  -23.7391  -50.6452 C.3       16 UNK        -0.1800 
     92 C          -2.8340  -22.7729  -49.7173 C.2       16 UNK         0.5000 
     93 O          -1.8025  -23.4218  -49.9098 O.2       16 UNK        -0.5000 
     94 N          -2.9049  -21.4433  -49.8449 N.am      17 UNK        -0.5000 
     95 CA         -1.8149  -20.5669  -50.2808 C.3       17 UNK         0.1400 
     96 CB         -2.0659  -19.1577  -49.7166 C.3       17 UNK        -0.1800 
     97 C          -1.6526  -20.5930  -51.8168 C.2       17 UNK         0.5000 
     98 O          -1.7604  -19.5576  -52.4821 O.2       17 UNK        -0.5000 
     99 N          -1.4511  -21.8031  -52.3554 N.am      18 UNK        -0.5000 
    100 CA        -1.3538  -22.1157  -53.7795 C.3       18 UNK         0.1400 
    101 CB        -1.1459  -23.6279  -53.9466 C.3       18 UNK        -0.1800 
    102 C         -0.2306  -21.3267  -54.4710 C.2       18 UNK         0.5000 
    103 O          0.8824  -21.2656  -53.9437 O.2       18 UNK        -0.5000 
    104 N         -0.5626  -20.7037  -55.6100 N.am      19 UNK        -0.5000 
    105 CA         0.2485  -19.7920  -56.4318 C.3       19 UNK         0.1400 
    106 CB         1.5219  -20.4825  -56.9566 C.3       19 UNK        -0.1800 
    107 C          0.5822  -18.4422  -55.7597 C.2       19 UNK         0.5000 
    108 O          0.6023  -17.4216  -56.4481 O.2       19 UNK        -0.5000 
    109 N          0.8166  -18.4481  -54.4416 N.am      20 UNK        -0.5000 
    110 CA         1.0918  -17.2761  -53.6123 C.3       20 UNK         0.1400 
    111 CB         1.5255  -17.7404  -52.2127 C.3       20 UNK        -0.1800 
    112 C         -0.1068  -16.3159  -53.5171 C.2       20 UNK         0.5000 
    113 O          0.0866  -15.1016  -53.5889 O.2       20 UNK        -0.5000 
    114 N         -1.3126  -16.8775  -53.3696 N.am      21 UNK        -0.5000 
    115 CA        -2.5685  -16.1371  -53.2863 C.3       21 UNK         0.1400 
    116 CB        -3.0495  -16.1126  -51.8310 C.3       21 UNK        -0.1800 
    117 C         -3.6454  -16.7464  -54.1920 C.2       21 UNK         0.5000 
    118 O         -4.3653  -15.9947  -54.8500 O.2       21 UNK        -0.5000 
    119 N         -3.7507  -18.0833  -54.2171 N.am      22 UNK        -0.5000 
    120 CA        -4.8192  -18.7998  -54.9435 C.3       22 UNK         0.1400 
    121 C         -4.6234  -18.8826  -56.4872 C.2       22 UNK         0.5000 
    122 N         -3.5052  -18.4318  -57.0434 N.am      22 UNK        -0.7600 
    123 O         -5.5035  -19.3656  -57.1940 O.2       22 UNK        -0.5000 
    124 C124       -5.1367  -20.2046  -54.3566 C.3       23 UNK        -0.0398 
    125 S125       -5.0300  -20.3280  -52.5419 S.3       23 UNK        -0.2404 
    126 C126       -6.5242  -19.4812  -51.9570 C.3       23 UNK        -0.0205 
    127 H127       -1.2561  -13.2918  -51.6758 H         1 UNK         0.0600 
    128 H128       -1.3829  -11.5293  -51.5088 H         1 UNK         0.0600 
    129 H129       -1.6064  -12.2955  -53.0782 H         1 UNK         0.0600 
    130 H130       -4.7285  -12.8716  -50.3626 H         1 UNK         0.3000 
    131 H131       -2.0105  -13.4252  -49.4983 H         1 UNK         0.0600 
    132 H132       -3.1470  -13.5206  -47.2001 H         1 UNK         0.0800 
    133 H133       -4.6706  -13.2219  -47.9950 H         1 UNK         0.0800 
    134 H134       -6.0953  -15.3526  -47.8716 H         1 UNK         0.0800 
    135 H135       -5.8789  -15.0739  -49.5885 H         1 UNK         0.0800 
    136 H136       -6.1053  -16.9191  -51.1251 H         1 UNK         0.1150 
    137 H137       -6.3812  -20.9390  -49.6599 H         1 UNK         0.1150 
    138 H138       -5.5404  -17.7199  -46.9546 H         1 UNK         0.1150 
    139 H139       -6.3269  -20.0782  -46.1566 H         1 UNK         0.0800 
    140 H140       -6.1766  -21.4028  -47.2964 H         1 UNK         0.0800 
    141 H141       -4.9483  -22.2041  -45.1525 H         1 UNK         0.0800 
    142 H142       -3.6714  -21.2933  -44.3739 H         1 UNK         0.0800 
    143 H143       -3.2357  -23.3377  -46.5936 H         1 UNK         0.0600 
    144 H144       -1.3971  -21.4600  -45.5255 H         1 UNK         0.3000 
    145 H145        1.5489  -23.2499  -46.5958 H         1 UNK         0.0600 
    146 H146        1.8939  -21.0099  -47.6308 H         1 UNK         0.0600 
    147 H147        0.7164  -21.9599  -48.5229 H         1 UNK         0.0600 
    148 H148        0.1747  -20.6551  -47.4680 H         1 UNK         0.0600 
    149 H149        1.3109  -20.7997  -45.1892 H         1 UNK         0.3000 
    150 H150        1.5416  -22.2173  -41.8743 H         1 UNK         0.0600 
    151 H151        3.8269  -21.9878  -42.8467 H         1 UNK         0.0600 
    152 H152        3.4060  -20.5932  -41.8637 H         1 UNK         0.0600 
    153 H153        3.3626  -20.4781  -43.6205 H         1 UNK         0.0600 
    154 H154        1.2276  -19.5198  -42.7418 H         1 UNK         0.3000 
    155 H155       -2.3558  -19.4525  -42.6664 H         1 UNK         0.0600 
    156 H156       -0.2307  -18.1378  -40.8930 H         1 UNK         0.0600 
    157 H157       -1.8974  -17.6030  -41.1032 H         1 UNK         0.0600 
    158 H158       -1.5602  -19.1308  -40.3053 H         1 UNK         0.0600 
    159 H159       -0.5773  -17.3670  -43.2510 H         1 UNK         0.3000 
    160 H160       -0.1972  -18.0482  -46.7923 H         1 UNK         0.0600 
    161 H161       -0.9351  -15.6956  -46.7585 H         1 UNK         0.0600 
    162 H162       -1.4072  -15.8255  -45.0655 H         1 UNK         0.0600 
    163 H163       -2.2696  -16.7422  -46.2910 H         1 UNK         0.0600 
    164 H164        1.0728  -16.0830  -45.2005 H         1 UNK         0.3000 
    165 H165        3.9842  -17.9436  -44.2734 H         1 UNK         0.0600 
    166 H166        4.9981  -15.9222  -45.3265 H         1 UNK         0.0600 
    167 H167        4.4200  -17.0483  -46.5453 H         1 UNK         0.0600 
    168 H168        3.4934  -15.5986  -46.1873 H         1 UNK         0.0600 
    169 H169        2.9868  -15.2773  -43.7625 H         1 UNK         0.3000 
    170 H170        1.4866  -16.0349  -40.6138 H         1 UNK         0.0600 
    171 H171        4.0470  -14.5186  -41.3553 H         1 UNK         0.0600 
    172 H172        3.0924  -14.2954  -39.8891 H         1 UNK         0.0600 
    173 H173        3.9344  -15.8114  -40.1670 H         1 UNK         0.0600 
    174 H174        1.8534  -13.5879  -42.0598 H         1 UNK         0.3000 
    175 H175       -1.2202  -13.7183  -43.8726 H         1 UNK         0.0600 
    176 H176       -1.6541  -11.6367  -42.6247 H         1 UNK         0.0600 
    177 H177       -0.3973  -12.0326  -41.4523 H         1 UNK         0.0600 
    178 H178       -1.8533  -13.0159  -41.5558 H         1 UNK         0.0600 
    179 H179        0.4694  -11.5731  -43.8306 H         1 UNK         0.3000 
    180 H180        2.3654  -11.1948  -45.1118 H         1 UNK         0.0600 
    181 H181        2.9556  -13.3144  -47.2504 H         1 UNK         0.0600 
    182 H182        3.9238  -13.0224  -45.8099 H         1 UNK         0.0600 
    183 H183        3.7938  -11.7784  -47.0428 H         1 UNK         0.0600 
    184 H184        1.1839  -11.7539  -47.7209 H         1 UNK         0.3000 
    185 H185       -1.6020   -9.5288  -47.2247 H         1 UNK         0.0600 
    186 H186        0.6781   -9.8361  -49.2621 H         1 UNK         0.0600 
    187 H187       -0.8327   -8.9662  -49.5146 H         1 UNK         0.0600 
    188 H188        0.3328   -8.3760  -48.3412 H         1 UNK         0.0600 
    189 H189       -0.7968  -12.1881  -48.0527 H         1 UNK         0.3000 
    190 H190       -1.3198  -23.5256  -43.6964 H         1 UNK         0.3000 
    191 H191       -2.8921  -25.7431  -42.5604 H         1 UNK         0.0600 
    192 H192       -1.7352  -24.1985  -41.0245 H         1 UNK         0.0600 
    193 H193       -1.0527  -25.8122  -40.8905 H         1 UNK         0.0600 
    194 H194       -0.1811  -24.5602  -41.7660 H         1 UNK         0.0600 
    195 H195        0.3660  -25.2789  -44.0609 H         1 UNK         0.3000 
    196 H196        1.0112  -28.0487  -43.9540 H         1 UNK         0.0600 
    197 H197        3.0662  -27.3167  -45.1613 H         1 UNK         0.0600 
    198 H198        2.6986  -26.2464  -43.8170 H         1 UNK         0.0600 
    199 H199        2.3401  -25.7426  -45.4672 H         1 UNK         0.0600 
    200 H200       -0.1069  -25.9876  -46.6799 H         1 UNK         0.3000 
    201 H201       -0.0334  -28.3380  -48.5333 H         1 UNK         0.0600 
    202 H202        1.4924  -26.4290  -49.0932 H         1 UNK         0.0600 
    203 H203        0.1127  -25.3327  -49.1180 H         1 UNK         0.0600 
    204 H204        0.2311  -26.6304  -50.2977 H         1 UNK         0.0600 
    205 H205       -2.1597  -26.8556  -46.6042 H         1 UNK         0.3000 
    206 H206       -4.3419  -26.7986  -46.3661 H         1 UNK         0.0600 
    207 H207       -4.4225  -29.0137  -47.5211 H         1 UNK         0.0600 
    208 H208       -5.8799  -28.0661  -47.7668 H         1 UNK         0.0600 
    209 H209       -4.7012  -28.1951  -49.0592 H         1 UNK         0.0600 
    210 H210       -2.8457  -25.0549  -48.8493 H         1 UNK         0.3000 
    211 H211       -4.7067  -22.8935  -48.6677 H         1 UNK         0.0600 
    212 H212       -4.4330  -24.3348  -51.3784 H         1 UNK         0.0600 
    213 H213       -5.2445  -22.7968  -51.1200 H         1 UNK         0.0600 
    214 H214       -5.9119  -24.2551  -50.4227 H         1 UNK         0.0600 
    215 H215       -3.7935  -20.9844  -49.7034 H         1 UNK         0.3000 
    216 H216       -0.8750  -20.9258  -49.8618 H         1 UNK         0.0600 
    217 H217       -1.3354  -18.4384  -50.0886 H         1 UNK         0.0600 
    218 H218       -1.9963  -19.1553  -48.6285 H         1 UNK         0.0600 
    219 H219       -3.0594  -18.7955  -49.9804 H         1 UNK         0.0600 
    220 H220       -1.3812  -22.5860  -51.7148 H         1 UNK         0.3000 
    221 H221       -2.3078  -21.8478  -54.2353 H         1 UNK         0.0600 
    222 H222       -0.2209  -23.9603  -53.4735 H         1 UNK         0.0600 
    223 H223       -1.9689  -24.1905  -53.5048 H         1 UNK         0.0600 
    224 H224       -1.0934  -23.9016  -55.0011 H         1 UNK         0.0600 
    225 H225       -1.5119  -20.8143  -55.9373 H         1 UNK         0.3000 
    226 H226       -0.3713  -19.5567  -57.2986 H         1 UNK         0.0600 
    227 H227        1.2822  -21.4111  -57.4745 H         1 UNK         0.0600 
    228 H228        2.0456  -19.8406  -57.6659 H         1 UNK         0.0600 
    229 H229        2.2225  -20.7158  -56.1546 H         1 UNK         0.0600 
    230 H230        0.8101  -19.3502  -53.9757 H         1 UNK         0.3000 
    231 H231        1.9222  -16.7311  -54.0658 H         1 UNK         0.0600 
    232 H232        0.7455  -18.3237  -51.7219 H         1 UNK         0.0600 
    233 H233        1.7518  -16.8881  -51.5707 H         1 UNK         0.0600 
    234 H234        2.4227  -18.3576  -52.2628 H         1 UNK         0.0600 
    235 H235       -1.3716  -17.8866  -53.2617 H         1 UNK         0.3000 
    236 H236       -2.4221  -15.1061  -53.6150 H         1 UNK         0.0600 
    237 H237       -2.3009  -15.6707  -51.1740 H         1 UNK         0.0600 
    238 H238       -3.9635  -15.5268  -51.7308 H         1 UNK         0.0600 
    239 H239       -3.2675  -17.1149  -51.4665 H         1 UNK         0.0600 
    240 H240       -3.1572  -18.6479  -53.6184 H         1 UNK         0.3000 
    241 H241       -5.7284  -18.2105  -54.8109 H         1 UNK         0.0600 
    242 H242       -2.8019  -17.9844  -56.4792 H         1 UNK         0.3800 
    243 H243       -3.3964  -18.4793  -58.0443 H         1 UNK         0.3800 
    244 H244       -6.1301  -20.5300  -54.6701 H         1 UNK         0.0800 
    245 H245       -4.4430  -20.9441  -54.7578 H         1 UNK         0.0800 
    246 H246       -7.3717  -20.1672  -51.9857 H         1 UNK         0.0800 
    247 H247       -6.7659  -18.6506  -52.6213 H         1 UNK         0.0800 
@<TRIPOS>BOND
     1    1    2 1    
     2    1  127 1    
     3    1  128 1    
     4    1  129 1    
     5    2    3 2    
     6    2    4 am   BACKBONE|DICT|INTERRES
     7    4    5 1    
     8    4  130 1    
     9    5    6 1    
    10    5   65 1    
    11    5  131 1    
    12    6    7 1    
    13    6  132 1    
    14    6  133 1    
    15    7    8 1    
    16    8    9 1    
    17    8  134 1    
    18    8  135 1    
    19    9   10 ar   
    20    9   14 ar   
    21   10   11 ar   
    22   10  136 1    
    23   11   12 ar   
    24   11  126 1    
    25   12   13 ar   
    26   12  137 1    
    27   13   14 ar   
    28   13   15 1    
    29   14  138 1    
    30   15   16 1    
    31   15  139 1    
    32   15  140 1    
    33   16   17 1    
    34   17   18 1    
    35   17  141 1    
    36   17  142 1    
    37   18   19 1    
    38   18   67 1    
    39   18  143 1    
    40   19   20 am   BACKBONE|DICT|INTERRES
    41   19  144 1    
    42   20   21 2    
    43   20   22 1    
    44   22   23 1    
    45   22   24 1    
    46   22  145 1    
    47   23  146 1    
    48   23  147 1    
    49   23  148 1    
    50   24   25 am   BACKBONE|DICT|INTERRES
    51   24  149 1    
    52   25   26 2    
    53   25   27 1    
    54   27   28 1    
    55   27   29 1    
    56   27  150 1    
    57   28  151 1    
    58   28  152 1    
    59   28  153 1    
    60   29   30 am   BACKBONE|DICT|INTERRES
    61   29  154 1    
    62   30   31 2    
    63   30   32 1    
    64   32   33 1    
    65   32   34 1    
    66   32  155 1    
    67   33  156 1    
    68   33  157 1    
    69   33  158 1    
    70   34   35 am   BACKBONE|DICT|INTERRES
    71   34  159 1    
    72   35   36 2    
    73   35   37 1    
    74   37   38 1    
    75   37   39 1    
    76   37  160 1    
    77   38  161 1    
    78   38  162 1    
    79   38  163 1    
    80   39   40 am   BACKBONE|DICT|INTERRES
    81   39  164 1    
    82   40   41 2    
    83   40   42 1    
    84   42   43 1    
    85   42   44 1    
    86   42  165 1    
    87   43  166 1    
    88   43  167 1    
    89   43  168 1    
    90   44   45 am   BACKBONE|DICT|INTERRES
    91   44  169 1    
    92   45   46 2    
    93   45   47 1    
    94   47   48 1    
    95   47   49 1    
    96   47  170 1    
    97   48  171 1    
    98   48  172 1    
    99   48  173 1    
   100   49   50 am   BACKBONE|DICT|INTERRES
   101   49  174 1    
   102   50   51 2    
   103   50   52 1    
   104   52   53 1    
   105   52   54 1    
   106   52  175 1    
   107   53  176 1    
   108   53  177 1    
   109   53  178 1    
   110   54   55 am   BACKBONE|DICT|INTERRES
   111   54  179 1    
   112   55   56 2    
   113   55   57 1    
   114   57   58 1    
   115   57   59 1    
   116   57  180 1    
   117   58  181 1    
   118   58  182 1    
   119   58  183 1    
   120   59   60 am   BACKBONE|DICT|INTERRES
   121   59  184 1    
   122   60   61 2    
   123   60   62 1    
   124   62   63 1    
   125   62   64 1    
   126   62  185 1    
   127   63  186 1    
   128   63  187 1    
   129   63  188 1    
   130   64   65 am   BACKBONE|DICT|INTERRES
   131   64  189 1    
   132   65   66 2    
   133   67   68 2    
   134   67   69 am   BACKBONE|DICT|INTERRES
   135   69   70 1    
   136   69  190 1    
   137   70   71 1    
   138   70   72 1    
   139   70  191 1    
   140   71  192 1    
   141   71  193 1    
   142   71  194 1    
   143   72   73 2    
   144   72   74 am   BACKBONE|DICT|INTERRES
   145   74   75 1    
   146   74  195 1    
   147   75   76 1    
   148   75   77 1    
   149   75  196 1    
   150   76  197 1    
   151   76  198 1    
   152   76  199 1    
   153   77   78 2    
   154   77   79 am   BACKBONE|DICT|INTERRES
   155   79   80 1    
   156   79  200 1    
   157   80   81 1    
   158   80   82 1    
   159   80  201 1    
   160   81  202 1    
   161   81  203 1    
   162   81  204 1    
   163   82   83 2    
   164   82   84 am   BACKBONE|DICT|INTERRES
   165   84   85 1    
   166   84  205 1    
   167   85   86 1    
   168   85   87 1    
   169   85  206 1    
   170   86  207 1    
   171   86  208 1    
   172   86  209 1    
   173   87   88 2    
   174   87   89 am   BACKBONE|DICT|INTERRES
   175   89   90 1    
   176   89  210 1    
   177   90   91 1    
   178   90   92 1    
   179   90  211 1    
   180   91  212 1    
   181   91  213 1    
   182   91  214 1    
   183   92   93 2    
   184   92   94 am   BACKBONE|DICT|INTERRES
   185   94   95 1    
   186   94  215 1    
   187   95   96 1    
   188   95   97 1    
   189   95  216 1    
   190   96  217 1    
   191   96  218 1    
   192   96  219 1    
   193   97   98 2    
   194   97   99 am   BACKBONE|DICT|INTERRES
   195   99  100 1    
   196   99  220 1    
   197  100  101 1    
   198  100  102 1    
   199  100  221 1    
   200  101  222 1    
   201  101  223 1    
   202  101  224 1    
   203  102  103 2    
   204  102  104 am   BACKBONE|DICT|INTERRES
   205  104  105 1    
   206  104  225 1    
   207  105  106 1    
   208  105  107 1    
   209  105  226 1    
   210  106  227 1    
   211  106  228 1    
   212  106  229 1    
   213  107  108 2    
   214  107  109 am   BACKBONE|DICT|INTERRES
   215  109  110 1    
   216  109  230 1    
   217  110  111 1    
   218  110  112 1    
   219  110  231 1    
   220  111  232 1    
   221  111  233 1    
   222  111  234 1    
   223  112  113 2    
   224  112  114 am   BACKBONE|DICT|INTERRES
   225  114  115 1    
   226  114  235 1    
   227  115  116 1    
   228  115  117 1    
   229  115  236 1    
   230  116  237 1    
   231  116  238 1    
   232  116  239 1    
   233  117  118 2    
   234  117  119 am   BACKBONE|DICT|INTERRES
   235  119  120 1    
   236  119  240 1    
   237  120  121 1    
   238  120  124 1    
   239  120  241 1    
   240  121  122 am   BACKBONE|DICT|INTERRES
   241  121  123 2    
   242  122  242 1    
   243  122  243 1    
   244  124  125 1    
   245  124  244 1    
   246  124  245 1    
   247  125  126 1    
   248  126  246 1    
   249  126  247 1    
@<TRIPOS>SUBSTRUCTURE
     1 UNK         1 GROUP             0       ****    0 ROOT    
