@<TRIPOS>MOLECULE
3R540
247   249    1
SMALL
USER_CHARGES


@<TRIPOS>ATOM
      1 CA         -1.2115  -14.5236  -38.5928 C.3       0 UNK        -0.1800 
      2 C          -1.1733  -14.0819  -40.0483 C.2       0 UNK         0.5000 
      3 O          -1.4395  -12.9177  -40.3466 O.2       0 UNK        -0.5000 
      4 N          -0.8212  -15.0014  -40.9550 N.am      1 UNK        -0.5000 
      5 CA         -0.6976  -14.7611  -42.3990 C.3       1 UNK         0.1400 
      6 C6         -0.8941  -16.0719  -43.2045 C.3       23 UNK        -0.0398 
      7 S7         -1.8277  -15.8256  -44.7514 S.3       23 UNK        -0.2404 
      8 C8         -0.5054  -15.7919  -46.0082 C.3       23 UNK        -0.0205 
      9 C9         -0.7739  -16.7152  -47.1932 C.ar      23 UNK        -0.0193 
     10 C10        -2.0285  -16.7554  -47.8120 C.ar      23 UNK        -0.1150 
     11 C11        -2.2611  -17.5989  -48.9022 C.ar      23 UNK        -0.0193 
     12 C12        -1.2172  -18.3848  -49.3983 C.ar      23 UNK        -0.1150 
     13 C13         0.0472  -18.3418  -48.8025 C.ar      23 UNK        -0.0193 
     14 C14         0.2551  -17.5173  -47.6944 C.ar      23 UNK        -0.1150 
     15 C15         1.2019  -19.1574  -49.3674 C.3       23 UNK        -0.0205 
     16 S16         1.4497  -20.7252  -48.4741 S.3       23 UNK        -0.2404 
     17 C17         0.0000  -21.6887  -49.0244 C.3       23 UNK        -0.0398 
     18 CA         -0.9790  -22.0361  -47.8784 C.3       11 UNK         0.1400 
     19 N          -1.3450  -20.8666  -47.0674 N.am      11 UNK        -0.5000 
     20 C          -2.0279  -20.9130  -45.9174 C.2       10 UNK         0.5000 
     21 O          -2.5000  -21.9476  -45.4409 O.2       10 UNK        -0.5000 
     22 CA         -2.2517  -19.5755  -45.1971 C.3       10 UNK         0.1400 
     23 CB         -3.7410  -19.1983  -45.1935 C.3       10 UNK        -0.1800 
     24 N          -1.7536  -19.6324  -43.8257 N.am      10 UNK        -0.5000 
     25 C          -0.4540  -19.6652  -43.5095 C.2       9 UNK         0.5000 
     26 O           0.4570  -19.6188  -44.3397 O.2       9 UNK        -0.5000 
     27 CA         -0.1174  -19.7760  -42.0162 C.3       9 UNK         0.1400 
     28 CB         -0.0658  -21.2507  -41.5871 C.3       9 UNK        -0.1800 
     29 N           1.1898  -19.1700  -41.7828 N.am      9 UNK        -0.5000 
     30 C           1.4162  -18.0567  -41.0788 C.2       8 UNK         0.5000 
     31 O           0.5449  -17.4501  -40.4540 O.2       8 UNK        -0.5000 
     32 CA          2.8557  -17.5098  -41.0850 C.3       8 UNK         0.1400 
     33 CB          3.5986  -17.9341  -39.8098 C.3       8 UNK        -0.1800 
     34 N           3.6351  -17.9214  -42.2563 N.am      8 UNK        -0.5000 
     35 C           3.4858  -17.3978  -43.4800 C.2       7 UNK         0.5000 
     36 O           2.6564  -16.5312  -43.7579 O.2       7 UNK        -0.5000 
     37 CA          4.4065  -17.9479  -44.5825 C.3       7 UNK         0.1400 
     38 CB          3.6559  -18.9576  -45.4640 C.3       7 UNK        -0.1800 
     39 N           4.9135  -16.8606  -45.4181 N.am      7 UNK        -0.5000 
     40 C           5.9075  -16.0353  -45.0622 C.2       6 UNK         0.5000 
     41 O           6.5547  -16.1563  -44.0209 O.2       6 UNK        -0.5000 
     42 CA          6.2463  -14.8852  -46.0325 C.3       6 UNK         0.1400 
     43 CB          7.3536  -15.3139  -47.0078 C.3       6 UNK        -0.1800 
     44 N           5.0927  -14.4054  -46.7989 N.am      6 UNK        -0.5000 
     45 C           4.0714  -13.7188  -46.2699 C.2       5 UNK         0.5000 
     46 O           4.0110  -13.4023  -45.0824 O.2       5 UNK        -0.5000 
     47 CA          2.9403  -13.3214  -47.2304 C.3       5 UNK         0.1400 
     48 CB          2.3167  -14.5573  -47.9036 C.3       5 UNK        -0.1800 
     49 N           1.9099  -12.5822  -46.5022 N.am      5 UNK        -0.5000 
     50 C           1.1103  -11.6518  -47.0362 C.2       4 UNK         0.5000 
     51 O           1.1482  -11.3268  -48.2239 O.2       4 UNK        -0.5000 
     52 CA          0.1026  -10.9528  -46.1070 C.3       4 UNK         0.1400 
     53 CB         -1.2412  -11.6997  -46.1082 C.3       4 UNK        -0.1800 
     54 N           0.5823  -10.8497  -44.7283 N.am      4 UNK        -0.5000 
     55 C           1.0152   -9.7206  -44.1493 C.2       3 UNK         0.5000 
     56 O           1.1240   -8.6483  -44.7460 O.2       3 UNK        -0.5000 
     57 CA          1.3581   -9.7721  -42.6455 C.3       3 UNK         0.1400 
     58 CB          0.2049   -9.1856  -41.8163 C.3       3 UNK        -0.1800 
     59 N           1.6306  -11.1260  -42.1675 N.am      3 UNK        -0.5000 
     60 C           2.7963  -11.7675  -42.3205 C.2       2 UNK         0.5000 
     61 O           3.8087  -11.2306  -42.7709 O.2       2 UNK        -0.5000 
     62 CA          2.8442  -13.2505  -41.8891 C.3       2 UNK         0.1400 
     63 CB          3.5697  -13.3844  -40.5402 C.3       2 UNK        -0.1800 
     64 N           1.5338  -13.9020  -41.7826 N.am      2 UNK        -0.5000 
     65 C           0.6256  -14.0455  -42.7618 C.2       1 UNK         0.5000 
     66 O           0.7800  -13.5941  -43.8966 O.2       1 UNK        -0.5000 
     67 C          -2.2077  -22.7838  -48.4383 C.2       11 UNK         0.5000 
     68 O          -2.1209  -23.9808  -48.7068 O.2       11 UNK        -0.5000 
     69 N          -3.3448  -22.0825  -48.5500 N.am      12 UNK        -0.5000 
     70 CA         -4.6491  -22.6219  -48.9344 C.3       12 UNK         0.1400 
     71 CB         -5.6603  -21.4656  -48.9768 C.3       12 UNK        -0.1800 
     72 C          -5.1654  -23.7465  -48.0133 C.2       12 UNK         0.5000 
     73 O          -5.9428  -24.5869  -48.4649 O.2       12 UNK        -0.5000 
     74 N          -4.7182  -23.7569  -46.7491 N.am      13 UNK        -0.5000 
     75 CA         -5.0072  -24.8213  -45.7893 C.3       13 UNK         0.1400 
     76 CB         -4.8225  -24.2719  -44.3662 C.3       13 UNK        -0.1800 
     77 C          -4.1277  -26.0700  -46.0020 C.2       13 UNK         0.5000 
     78 O          -4.5032  -27.1493  -45.5425 O.2       13 UNK        -0.5000 
     79 N          -2.9754  -25.9105  -46.6690 N.am      14 UNK        -0.5000 
     80 CA         -2.0071  -26.9774  -46.9117 C.3       14 UNK         0.1400 
     81 CB         -0.5862  -26.3901  -46.9231 C.3       14 UNK        -0.1800 
     82 C          -2.2896  -27.7385  -48.2172 C.2       14 UNK         0.5000 
     83 O          -2.0636  -28.9492  -48.2561 O.2       14 UNK        -0.5000 
     84 N          -2.7721  -27.0432  -49.2571 N.am      15 UNK        -0.5000 
     85 CA         -3.0578  -27.6329  -50.5630 C.3       15 UNK         0.1400 
     86 CB         -1.7671  -27.6962  -51.4004 C.3       15 UNK        -0.1800 
     87 C          -4.1331  -26.8325  -51.3058 C.2       15 UNK         0.5000 
     88 O          -4.1353  -25.6010  -51.2514 O.2       15 UNK        -0.5000 
     89 N          -4.9806  -27.5478  -52.0574 N.am      16 UNK        -0.5000 
     90 CA         -6.0016  -26.9742  -52.9381 C.3       16 UNK         0.1400 
     91 CB         -6.9596  -28.0830  -53.3971 C.3       16 UNK        -0.1800 
     92 C          -5.3991  -26.2438  -54.1533 C.2       16 UNK         0.5000 
     93 O          -5.9750  -25.2616  -54.6185 O.2       16 UNK        -0.5000 
     94 N          -4.2282  -26.7017  -54.6198 N.am      17 UNK        -0.5000 
     95 CA         -3.4462  -26.0457  -55.6703 C.3       17 UNK         0.1400 
     96 CB         -2.2911  -26.9642  -56.0955 C.3       17 UNK        -0.1800 
     97 C          -2.9131  -24.6722  -55.2232 C.2       17 UNK         0.5000 
     98 O          -2.9209  -23.7258  -56.0099 O.2       17 UNK        -0.5000 
     99 N          -2.5075  -24.5766  -53.9495 N.am      18 UNK        -0.5000 
    100 CA        -2.0928  -23.3277  -53.3163 C.3       18 UNK         0.1400 
    101 CB        -1.3284  -23.6319  -52.0239 C.3       18 UNK        -0.1800 
    102 C         -3.2849  -22.3910  -53.0556 C.2       18 UNK         0.5000 
    103 O         -3.1392  -21.1804  -53.2129 O.2       18 UNK        -0.5000 
    104 N         -4.4536  -22.9581  -52.7201 N.am      19 UNK        -0.5000 
    105 CA        -5.7168  -22.2253  -52.5949 C.3       19 UNK         0.1400 
    106 CB        -6.8076  -23.1414  -52.0163 C.3       19 UNK        -0.1800 
    107 C         -6.1753  -21.6109  -53.9300 C.2       19 UNK         0.5000 
    108 O         -6.6330  -20.4691  -53.9444 O.2       19 UNK        -0.5000 
    109 N         -6.0122  -22.3663  -55.0254 N.am      20 UNK        -0.5000 
    110 CA        -6.2800  -21.9194  -56.3921 C.3       20 UNK         0.1400 
    111 CB        -6.2503  -23.1274  -57.3407 C.3       20 UNK        -0.1800 
    112 C         -5.3041  -20.8244  -56.8644 C.2       20 UNK         0.5000 
    113 O         -5.7283  -19.8986  -57.5571 O.2       20 UNK        -0.5000 
    114 N         -4.0253  -20.9375  -56.4747 N.am      21 UNK        -0.5000 
    115 CA        -2.9877  -19.9382  -56.7400 C.3       21 UNK         0.1400 
    116 CB        -1.6058  -20.5289  -56.4220 C.3       21 UNK        -0.1800 
    117 C         -3.2198  -18.6296  -55.9605 C.2       21 UNK         0.5000 
    118 O         -3.0814  -17.5471  -56.5325 O.2       21 UNK        -0.5000 
    119 N         -3.6051  -18.7520  -54.6842 N.am      22 UNK        -0.5000 
    120 CA        -3.9951  -17.6630  -53.7732 C.3       22 UNK         0.1400 
    121 C         -5.3739  -17.0171  -54.1289 C.2       22 UNK         0.5000 
    122 N         -5.5889  -16.6167  -55.3747 N.am      22 UNK        -0.7600 
    123 O         -6.2568  -16.8690  -53.2880 O.2       22 UNK        -0.5000 
    124 C124       -3.8749  -18.1284  -52.2962 C.3       23 UNK        -0.0398 
    125 S125       -3.7081  -16.7515  -51.1089 S.3       23 UNK        -0.2404 
    126 C126       -3.6426  -17.6631  -49.5349 C.3       23 UNK        -0.0205 
    127 H127       -2.2163  -14.3988  -38.1892 H         1 UNK         0.0600 
    128 H128       -0.5260  -13.9193  -37.9987 H         1 UNK         0.0600 
    129 H129       -0.9268  -15.5704  -38.4807 H         1 UNK         0.0600 
    130 H130       -0.5478  -15.9318  -40.6444 H         1 UNK         0.3000 
    131 H131       -1.4995  -14.0723  -42.6738 H         1 UNK         0.0600 
    132 H132        0.0484  -16.5859  -43.3946 H         1 UNK         0.0800 
    133 H133       -1.4870  -16.7778  -42.6216 H         1 UNK         0.0800 
    134 H134       -0.3971  -14.7732  -46.3794 H         1 UNK         0.0800 
    135 H135        0.4486  -16.0454  -45.5440 H         1 UNK         0.0800 
    136 H136       -2.8292  -16.1330  -47.4381 H         1 UNK         0.1150 
    137 H137       -1.3894  -19.0167  -50.2578 H         1 UNK         0.1150 
    138 H138        1.2305  -17.4894  -47.2327 H         1 UNK         0.1150 
    139 H139        1.0487  -19.3577  -50.4290 H         1 UNK         0.0800 
    140 H140        2.1209  -18.5728  -49.3034 H         1 UNK         0.0800 
    141 H141        0.3748  -22.6066  -49.4810 H         1 UNK         0.0800 
    142 H142       -0.5134  -21.1484  -49.8198 H         1 UNK         0.0800 
    143 H143       -0.4687  -22.7333  -47.2102 H         1 UNK         0.0600 
    144 H144       -0.9584  -19.9837  -47.3740 H         1 UNK         0.3000 
    145 H145       -1.7051  -18.7937  -45.7231 H         1 UNK         0.0600 
    146 H146       -3.9014  -18.2334  -44.7124 H         1 UNK         0.0600 
    147 H147       -4.1242  -19.1190  -46.2117 H         1 UNK         0.0600 
    148 H148       -4.3457  -19.9401  -44.6702 H         1 UNK         0.0600 
    149 H149       -2.4475  -19.7227  -43.0984 H         1 UNK         0.3000 
    150 H150       -0.8929  -19.2657  -41.4410 H         1 UNK         0.0600 
    151 H151        0.6812  -21.8095  -42.1525 H         1 UNK         0.0600 
    152 H152       -1.0288  -21.7385  -41.7436 H         1 UNK         0.0600 
    153 H153        0.1775  -21.3432  -40.5285 H         1 UNK         0.0600 
    154 H154        1.9451  -19.5446  -42.3389 H         1 UNK         0.3000 
    155 H155        2.7845  -16.4215  -41.0878 H         1 UNK         0.0600 
    156 H156        3.7170  -19.0169  -39.7536 H         1 UNK         0.0600 
    157 H157        3.0567  -17.6162  -38.9179 H         1 UNK         0.0600 
    158 H158        4.5902  -17.4835  -39.7629 H         1 UNK         0.0600 
    159 H159        4.3401  -18.6283  -42.1035 H         1 UNK         0.3000 
    160 H160        5.2535  -18.4610  -44.1219 H         1 UNK         0.0600 
    161 H161        4.2923  -19.3418  -46.2613 H         1 UNK         0.0600 
    162 H162        2.7728  -18.5144  -45.9227 H         1 UNK         0.0600 
    163 H163        3.3184  -19.8124  -44.8767 H         1 UNK         0.0600 
    164 H164        4.4018  -16.6613  -46.2636 H         1 UNK         0.3000 
    165 H165        6.6260  -14.0539  -45.4343 H         1 UNK         0.0600 
    166 H166        8.2391  -15.6530  -46.4684 H         1 UNK         0.0600 
    167 H167        7.0288  -16.1317  -47.6522 H         1 UNK         0.0600 
    168 H168        7.6613  -14.4846  -47.6451 H         1 UNK         0.0600 
    169 H169        5.0860  -14.6190  -47.7857 H         1 UNK         0.3000 
    170 H170        3.3749  -12.6737  -47.9945 H         1 UNK         0.0600 
    171 H171        3.0128  -15.0247  -48.6003 H         1 UNK         0.0600 
    172 H172        2.0463  -15.3058  -47.1614 H         1 UNK         0.0600 
    173 H173        1.4200  -14.3026  -48.4689 H         1 UNK         0.0600 
    174 H174        1.8438  -12.8025  -45.5128 H         1 UNK         0.3000 
    175 H175       -0.0762   -9.9580  -46.5204 H         1 UNK         0.0600 
    176 H176       -2.0005  -11.1379  -45.5642 H         1 UNK         0.0600 
    177 H177       -1.6107  -11.8461  -47.1240 H         1 UNK         0.0600 
    178 H178       -1.1596  -12.6812  -45.6419 H         1 UNK         0.0600 
    179 H179        0.5862  -11.7146  -44.1965 H         1 UNK         0.3000 
    180 H180        2.2418   -9.1509  -42.4852 H         1 UNK         0.0600 
    181 H181       -0.7095   -9.7700  -41.9287 H         1 UNK         0.0600 
    182 H182       -0.0184   -8.1631  -42.1237 H         1 UNK         0.0600 
    183 H183        0.4565   -9.1571  -40.7559 H         1 UNK         0.0600 
    184 H184        0.8550  -11.6312  -41.7635 H         1 UNK         0.3000 
    185 H185        3.4179  -13.7977  -42.6375 H         1 UNK         0.0600 
    186 H186        4.5598  -12.9283  -40.5826 H         1 UNK         0.0600 
    187 H187        3.0175  -12.8943  -39.7374 H         1 UNK         0.0600 
    188 H188        3.7117  -14.4282  -40.2627 H         1 UNK         0.0600 
    189 H189        1.2966  -14.2790  -40.8774 H         1 UNK         0.3000 
    190 H190       -3.3218  -21.1087  -48.2892 H         1 UNK         0.3000 
    191 H191       -4.5420  -23.0432  -49.9341 H         1 UNK         0.0600 
    192 H192       -5.3477  -20.6880  -49.6725 H         1 UNK         0.0600 
    193 H193       -6.6423  -21.8144  -49.2984 H         1 UNK         0.0600 
    194 H194       -5.7831  -21.0050  -47.9957 H         1 UNK         0.0600 
    195 H195       -4.0720  -23.0383  -46.4428 H         1 UNK         0.3000 
    196 H196       -6.0500  -25.1261  -45.9007 H         1 UNK         0.0600 
    197 H197       -5.0943  -25.0203  -43.6208 H         1 UNK         0.0600 
    198 H198       -5.4518  -23.3985  -44.1944 H         1 UNK         0.0600 
    199 H199       -3.7881  -23.9828  -44.1771 H         1 UNK         0.0600 
    200 H200       -2.7642  -25.0124  -47.0868 H         1 UNK         0.3000 
    201 H201       -2.0549  -27.6969  -46.0912 H         1 UNK         0.0600 
    202 H202        0.1583  -27.1827  -47.0062 H         1 UNK         0.0600 
    203 H203       -0.4298  -25.7114  -47.7613 H         1 UNK         0.0600 
    204 H204       -0.3770  -25.8430  -46.0038 H         1 UNK         0.0600 
    205 H205       -2.9330  -26.0450  -49.1756 H         1 UNK         0.3000 
    206 H206       -3.4375  -28.6472  -50.4206 H         1 UNK         0.0600 
    207 H207       -1.0202  -28.3344  -50.9281 H         1 UNK         0.0600 
    208 H208       -1.9584  -28.1058  -52.3929 H         1 UNK         0.0600 
    209 H209       -1.3249  -26.7078  -51.5298 H         1 UNK         0.0600 
    210 H210       -4.9102  -28.5554  -52.0523 H         1 UNK         0.3000 
    211 H211       -6.5747  -26.2450  -52.3621 H         1 UNK         0.0600 
    212 H212       -6.4404  -28.8566  -53.9643 H         1 UNK         0.0600 
    213 H213       -7.7457  -27.6789  -54.0365 H         1 UNK         0.0600 
    214 H214       -7.4476  -28.5594  -52.5467 H         1 UNK         0.0600 
    215 H215       -3.8291  -27.5267  -54.1979 H         1 UNK         0.3000 
    216 H216       -4.0964  -25.8877  -56.5334 H         1 UNK         0.0600 
    217 H217       -1.7000  -26.5046  -56.8888 H         1 UNK         0.0600 
    218 H218       -2.6638  -27.9143  -56.4785 H         1 UNK         0.0600 
    219 H219       -1.6168  -27.1777  -55.2651 H         1 UNK         0.0600 
    220 H220       -2.5690  -25.3891  -53.3554 H         1 UNK         0.3000 
    221 H221       -1.4083  -22.8121  -53.9929 H         1 UNK         0.0600 
    222 H222       -1.9470  -24.1680  -51.3061 H         1 UNK         0.0600 
    223 H223       -0.4422  -24.2353  -52.2199 H         1 UNK         0.0600 
    224 H224       -0.9960  -22.7089  -51.5521 H         1 UNK         0.0600 
    225 H225       -4.4777  -23.9556  -52.5446 H         1 UNK         0.3000 
    226 H226       -5.5504  -21.4053  -51.8954 H         1 UNK         0.0600 
    227 H227       -7.6826  -22.5589  -51.7262 H         1 UNK         0.0600 
    228 H228       -7.1431  -23.8828  -52.7401 H         1 UNK         0.0600 
    229 H229       -6.4646  -23.6766  -51.1318 H         1 UNK         0.0600 
    230 H230       -5.7065  -23.3276  -54.9106 H         1 UNK         0.3000 
    231 H231       -7.2869  -21.4974  -56.4145 H         1 UNK         0.0600 
    232 H232       -5.2709  -23.6054  -57.3562 H         1 UNK         0.0600 
    233 H233       -6.4852  -22.8268  -58.3625 H         1 UNK         0.0600 
    234 H234       -6.9833  -23.8783  -57.0452 H         1 UNK         0.0600 
    235 H235       -3.7427  -21.7686  -55.9687 H         1 UNK         0.3000 
    236 H236       -3.0145  -19.7009  -57.8056 H         1 UNK         0.0600 
    237 H237       -1.4218  -21.4357  -56.9985 H         1 UNK         0.0600 
    238 H238       -0.8143  -19.8200  -56.6678 H         1 UNK         0.0600 
    239 H239       -1.5052  -20.7773  -55.3658 H         1 UNK         0.0600 
    240 H240       -3.6569  -19.6871  -54.2905 H         1 UNK         0.3000 
    241 H241       -3.2597  -16.8682  -53.9107 H         1 UNK         0.0600 
    242 H242       -4.8621  -16.7467  -56.0696 H         1 UNK         0.3800 
    243 H243       -6.4711  -16.2012  -55.6283 H         1 UNK         0.3800 
    244 H244       -2.9857  -18.7485  -52.1765 H         1 UNK         0.0800 
    245 H245       -4.7231  -18.7577  -52.0205 H         1 UNK         0.0800 
    246 H246       -3.9266  -18.7053  -49.6825 H         1 UNK         0.0800 
    247 H247       -4.3889  -17.2424  -48.8592 H         1 UNK         0.0800 
@<TRIPOS>BOND
     1    1    2 1    
     2    1  127 1    
     3    1  128 1    
     4    1  129 1    
     5    2    3 2    
     6    2    4 am   BACKBONE|DICT|INTERRES
     7    4    5 1    
     8    4  130 1    
     9    5    6 1    
    10    5   65 1    
    11    5  131 1    
    12    6    7 1    
    13    6  132 1    
    14    6  133 1    
    15    7    8 1    
    16    8    9 1    
    17    8  134 1    
    18    8  135 1    
    19    9   10 ar   
    20    9   14 ar   
    21   10   11 ar   
    22   10  136 1    
    23   11   12 ar   
    24   11  126 1    
    25   12   13 ar   
    26   12  137 1    
    27   13   14 ar   
    28   13   15 1    
    29   14  138 1    
    30   15   16 1    
    31   15  139 1    
    32   15  140 1    
    33   16   17 1    
    34   17   18 1    
    35   17  141 1    
    36   17  142 1    
    37   18   19 1    
    38   18   67 1    
    39   18  143 1    
    40   19   20 am   BACKBONE|DICT|INTERRES
    41   19  144 1    
    42   20   21 2    
    43   20   22 1    
    44   22   23 1    
    45   22   24 1    
    46   22  145 1    
    47   23  146 1    
    48   23  147 1    
    49   23  148 1    
    50   24   25 am   BACKBONE|DICT|INTERRES
    51   24  149 1    
    52   25   26 2    
    53   25   27 1    
    54   27   28 1    
    55   27   29 1    
    56   27  150 1    
    57   28  151 1    
    58   28  152 1    
    59   28  153 1    
    60   29   30 am   BACKBONE|DICT|INTERRES
    61   29  154 1    
    62   30   31 2    
    63   30   32 1    
    64   32   33 1    
    65   32   34 1    
    66   32  155 1    
    67   33  156 1    
    68   33  157 1    
    69   33  158 1    
    70   34   35 am   BACKBONE|DICT|INTERRES
    71   34  159 1    
    72   35   36 2    
    73   35   37 1    
    74   37   38 1    
    75   37   39 1    
    76   37  160 1    
    77   38  161 1    
    78   38  162 1    
    79   38  163 1    
    80   39   40 am   BACKBONE|DICT|INTERRES
    81   39  164 1    
    82   40   41 2    
    83   40   42 1    
    84   42   43 1    
    85   42   44 1    
    86   42  165 1    
    87   43  166 1    
    88   43  167 1    
    89   43  168 1    
    90   44   45 am   BACKBONE|DICT|INTERRES
    91   44  169 1    
    92   45   46 2    
    93   45   47 1    
    94   47   48 1    
    95   47   49 1    
    96   47  170 1    
    97   48  171 1    
    98   48  172 1    
    99   48  173 1    
   100   49   50 am   BACKBONE|DICT|INTERRES
   101   49  174 1    
   102   50   51 2    
   103   50   52 1    
   104   52   53 1    
   105   52   54 1    
   106   52  175 1    
   107   53  176 1    
   108   53  177 1    
   109   53  178 1    
   110   54   55 am   BACKBONE|DICT|INTERRES
   111   54  179 1    
   112   55   56 2    
   113   55   57 1    
   114   57   58 1    
   115   57   59 1    
   116   57  180 1    
   117   58  181 1    
   118   58  182 1    
   119   58  183 1    
   120   59   60 am   BACKBONE|DICT|INTERRES
   121   59  184 1    
   122   60   61 2    
   123   60   62 1    
   124   62   63 1    
   125   62   64 1    
   126   62  185 1    
   127   63  186 1    
   128   63  187 1    
   129   63  188 1    
   130   64   65 am   BACKBONE|DICT|INTERRES
   131   64  189 1    
   132   65   66 2    
   133   67   68 2    
   134   67   69 am   BACKBONE|DICT|INTERRES
   135   69   70 1    
   136   69  190 1    
   137   70   71 1    
   138   70   72 1    
   139   70  191 1    
   140   71  192 1    
   141   71  193 1    
   142   71  194 1    
   143   72   73 2    
   144   72   74 am   BACKBONE|DICT|INTERRES
   145   74   75 1    
   146   74  195 1    
   147   75   76 1    
   148   75   77 1    
   149   75  196 1    
   150   76  197 1    
   151   76  198 1    
   152   76  199 1    
   153   77   78 2    
   154   77   79 am   BACKBONE|DICT|INTERRES
   155   79   80 1    
   156   79  200 1    
   157   80   81 1    
   158   80   82 1    
   159   80  201 1    
   160   81  202 1    
   161   81  203 1    
   162   81  204 1    
   163   82   83 2    
   164   82   84 am   BACKBONE|DICT|INTERRES
   165   84   85 1    
   166   84  205 1    
   167   85   86 1    
   168   85   87 1    
   169   85  206 1    
   170   86  207 1    
   171   86  208 1    
   172   86  209 1    
   173   87   88 2    
   174   87   89 am   BACKBONE|DICT|INTERRES
   175   89   90 1    
   176   89  210 1    
   177   90   91 1    
   178   90   92 1    
   179   90  211 1    
   180   91  212 1    
   181   91  213 1    
   182   91  214 1    
   183   92   93 2    
   184   92   94 am   BACKBONE|DICT|INTERRES
   185   94   95 1    
   186   94  215 1    
   187   95   96 1    
   188   95   97 1    
   189   95  216 1    
   190   96  217 1    
   191   96  218 1    
   192   96  219 1    
   193   97   98 2    
   194   97   99 am   BACKBONE|DICT|INTERRES
   195   99  100 1    
   196   99  220 1    
   197  100  101 1    
   198  100  102 1    
   199  100  221 1    
   200  101  222 1    
   201  101  223 1    
   202  101  224 1    
   203  102  103 2    
   204  102  104 am   BACKBONE|DICT|INTERRES
   205  104  105 1    
   206  104  225 1    
   207  105  106 1    
   208  105  107 1    
   209  105  226 1    
   210  106  227 1    
   211  106  228 1    
   212  106  229 1    
   213  107  108 2    
   214  107  109 am   BACKBONE|DICT|INTERRES
   215  109  110 1    
   216  109  230 1    
   217  110  111 1    
   218  110  112 1    
   219  110  231 1    
   220  111  232 1    
   221  111  233 1    
   222  111  234 1    
   223  112  113 2    
   224  112  114 am   BACKBONE|DICT|INTERRES
   225  114  115 1    
   226  114  235 1    
   227  115  116 1    
   228  115  117 1    
   229  115  236 1    
   230  116  237 1    
   231  116  238 1    
   232  116  239 1    
   233  117  118 2    
   234  117  119 am   BACKBONE|DICT|INTERRES
   235  119  120 1    
   236  119  240 1    
   237  120  121 1    
   238  120  124 1    
   239  120  241 1    
   240  121  122 am   BACKBONE|DICT|INTERRES
   241  121  123 2    
   242  122  242 1    
   243  122  243 1    
   244  124  125 1    
   245  124  244 1    
   246  124  245 1    
   247  125  126 1    
   248  126  246 1    
   249  126  247 1    
@<TRIPOS>SUBSTRUCTURE
     1 UNK         1 GROUP             0       ****    0 ROOT    
