@<TRIPOS>MOLECULE
3R540
247   249    1
SMALL
USER_CHARGES


@<TRIPOS>ATOM
      1 CA          5.0473  -12.7910  -47.5681 C.3       0 UNK        -0.1800 
      2 C           4.0610  -13.9381  -47.7349 C.2       0 UNK         0.5000 
      3 O           4.0652  -14.8700  -46.9317 O.2       0 UNK        -0.5000 
      4 N           3.2191  -13.8729  -48.7739 N.am      1 UNK        -0.5000 
      5 CA          2.1835  -14.8691  -49.0835 C.3       1 UNK         0.1400 
      6 C6          1.6370  -14.7003  -50.5213 C.3       23 UNK        -0.0398 
      7 S7          2.9308  -14.9094  -51.7897 S.3       23 UNK        -0.2404 
      8 C8          2.0212  -15.8320  -53.0780 C.3       23 UNK        -0.0205 
      9 C9          1.6715  -17.2895  -52.7634 C.ar      23 UNK        -0.0193 
     10 C10         0.8980  -17.9889  -53.6940 C.ar      23 UNK        -0.1150 
     11 C11         0.5645  -19.3306  -53.4918 C.ar      23 UNK        -0.0193 
     12 C12         1.0018  -19.9791  -52.3344 C.ar      23 UNK        -0.1150 
     13 C13         1.7766  -19.2992  -51.3916 C.ar      23 UNK        -0.0193 
     14 C14         2.1108  -17.9598  -51.6129 C.ar      23 UNK        -0.1150 
     15 C15         2.3023  -20.0191  -50.1581 C.3       23 UNK        -0.0205 
     16 S16         1.3965  -19.5586  -48.6489 S.3       23 UNK        -0.2404 
     17 C17        -0.0615  -20.6502  -48.7360 C.3       23 UNK        -0.0398 
     18 CA          0.1329  -21.9727  -47.9535 C.3       11 UNK         0.1400 
     19 N           0.4797  -21.7551  -46.5450 N.am      11 UNK        -0.5000 
     20 C           0.9462  -22.7051  -45.7226 C.2       10 UNK         0.5000 
     21 O           1.1804  -23.8595  -46.0790 O.2       10 UNK        -0.5000 
     22 CA          1.1316  -22.3151  -44.2437 C.3       10 UNK         0.1400 
     23 CB          2.4858  -21.6253  -44.0243 C.3       10 UNK        -0.1800 
     24 N           0.0575  -21.4511  -43.7526 N.am      10 UNK        -0.5000 
     25 C          -1.2291  -21.8152  -43.6638 C.2       9 UNK         0.5000 
     26 O          -1.6345  -22.9463  -43.9208 O.2       9 UNK        -0.5000 
     27 CA         -2.2445  -20.7238  -43.2848 C.3       9 UNK         0.1400 
     28 CB         -2.3824  -20.6050  -41.7599 C.3       9 UNK        -0.1800 
     29 N          -1.9066  -19.4223  -43.8621 N.am      9 UNK        -0.5000 
     30 C          -1.9123  -19.1468  -45.1749 C.2       8 UNK         0.5000 
     31 O          -2.2257  -19.9633  -46.0428 O.2       8 UNK        -0.5000 
     32 CA         -1.4686  -17.7317  -45.5873 C.3       8 UNK         0.1400 
     33 CB         -2.6793  -16.7926  -45.6856 C.3       8 UNK        -0.1800 
     34 N          -0.4825  -17.1621  -44.6652 N.am      8 UNK        -0.5000 
     35 C           0.8010  -17.5474  -44.6257 C.2       7 UNK         0.5000 
     36 O           1.2768  -18.4223  -45.3480 O.2       7 UNK        -0.5000 
     37 CA          1.6837  -16.8856  -43.5504 C.3       7 UNK         0.1400 
     38 CB          1.9503  -15.4095  -43.8892 C.3       7 UNK        -0.1800 
     39 N           1.1245  -16.9716  -42.1983 N.am      7 UNK        -0.5000 
     40 C           0.7474  -18.0924  -41.5667 C.2       6 UNK         0.5000 
     41 O           0.8218  -19.2078  -42.0812 O.2       6 UNK        -0.5000 
     42 CA          0.1914  -17.9679  -40.1277 C.3       6 UNK         0.1400 
     43 CB          0.8054  -19.0314  -39.2009 C.3       6 UNK        -0.1800 
     44 N           0.3683  -16.6509  -39.5054 N.am      6 UNK        -0.5000 
     45 C          -0.3269  -15.5469  -39.8026 C.2       5 UNK         0.5000 
     46 O          -1.1873  -15.5083  -40.6860 O.2       5 UNK        -0.5000 
     47 CA          0.0283  -14.2761  -39.0105 C.3       5 UNK         0.1400 
     48 CB          1.5303  -13.9381  -39.1288 C.3       5 UNK        -0.1800 
     49 N          -0.7676  -13.1720  -39.5316 N.am      5 UNK        -0.5000 
     50 C          -0.9589  -11.9730  -38.9745 C.2       4 UNK         0.5000 
     51 O          -0.5340  -11.6639  -37.8596 O.2       4 UNK        -0.5000 
     52 CA         -1.7046  -10.9377  -39.8480 C.3       4 UNK         0.1400 
     53 CB         -1.8831   -9.5800  -39.1444 C.3       4 UNK        -0.1800 
     54 N          -0.9957  -10.7248  -41.1146 N.am      4 UNK        -0.5000 
     55 C          -1.0455  -11.5505  -42.1667 C.2       3 UNK         0.5000 
     56 O          -1.8053  -12.5227  -42.2298 O.2       3 UNK        -0.5000 
     57 CA         -0.0402  -11.2945  -43.2999 C.3       3 UNK         0.1400 
     58 CB          1.4078  -11.4844  -42.7977 C.3       3 UNK        -0.1800 
     59 N          -0.3331  -12.2468  -44.3646 N.am      3 UNK        -0.5000 
     60 C           0.1826  -12.2632  -45.5941 C.2       2 UNK         0.5000 
     61 O           0.9750  -11.4220  -46.0278 O.2       2 UNK        -0.5000 
     62 CA         -0.2712  -13.4211  -46.4901 C.3       2 UNK         0.1400 
     63 CB         -1.6089  -13.1094  -47.1832 C.3       2 UNK        -0.1800 
     64 N           0.7605  -13.6592  -47.4879 N.am      2 UNK        -0.5000 
     65 C           1.0158  -14.8321  -48.0758 C.2       1 UNK         0.5000 
     66 O           0.3701  -15.8547  -47.8574 O.2       1 UNK        -0.5000 
     67 C          -1.1042  -22.8869  -48.0828 C.2       11 UNK         0.5000 
     68 O          -1.1098  -23.7996  -48.9099 O.2       11 UNK        -0.5000 
     69 N          -2.1163  -22.6626  -47.2313 N.am      12 UNK        -0.5000 
     70 CA         -3.3187  -23.4933  -47.1435 C.3       12 UNK         0.1400 
     71 CB         -4.3561  -22.8133  -46.2396 C.3       12 UNK        -0.1800 
     72 C          -3.0211  -24.9302  -46.6749 C.2       12 UNK         0.5000 
     73 O          -3.5685  -25.8734  -47.2444 O.2       12 UNK        -0.5000 
     74 N          -2.1174  -25.0821  -45.6965 N.am      13 UNK        -0.5000 
     75 CA         -1.6123  -26.3699  -45.2092 C.3       13 UNK         0.1400 
     76 CB         -0.7607  -26.1444  -43.9511 C.3       13 UNK        -0.1800 
     77 C          -0.8145  -27.1507  -46.2727 C.2       13 UNK         0.5000 
     78 O          -0.8495  -28.3813  -46.2752 O.2       13 UNK        -0.5000 
     79 N          -0.1542  -26.4247  -47.1853 N.am      14 UNK        -0.5000 
     80 CA          0.5118  -26.9598  -48.3754 C.3       14 UNK         0.1400 
     81 CB          1.6033  -25.9726  -48.8228 C.3       14 UNK        -0.1800 
     82 C          -0.4638  -27.2802  -49.5321 C.2       14 UNK         0.5000 
     83 O          -0.0102  -27.7188  -50.5898 O.2       14 UNK        -0.5000 
     84 N          -1.7719  -27.0672  -49.3168 N.am      15 UNK        -0.5000 
     85 CA         -2.8911  -27.3141  -50.2302 C.3       15 UNK         0.1400 
     86 CB         -2.9975  -28.8108  -50.5929 C.3       15 UNK        -0.1800 
     87 C          -2.8978  -26.3854  -51.4607 C.2       15 UNK         0.5000 
     88 O          -3.3750  -26.7832  -52.5250 O.2       15 UNK        -0.5000 
     89 N          -2.3936  -25.1572  -51.2935 N.am      16 UNK        -0.5000 
     90 CA         -2.3520  -24.1286  -52.3264 C.3       16 UNK         0.1400 
     91 CB         -1.0623  -24.2734  -53.1576 C.3       16 UNK        -0.1800 
     92 C          -2.4882  -22.7591  -51.6511 C.2       16 UNK         0.5000 
     93 O          -1.5400  -21.9773  -51.6618 O.2       16 UNK        -0.5000 
     94 N          -3.6461  -22.5263  -51.0131 N.am      17 UNK        -0.5000 
     95 CA         -3.9781  -21.3161  -50.2540 C.3       17 UNK         0.1400 
     96 CB         -5.4274  -21.4107  -49.7538 C.3       17 UNK        -0.1800 
     97 C          -3.7654  -20.0251  -51.0653 C.2       17 UNK         0.5000 
     98 O          -4.2897  -19.9212  -52.1774 O.2       17 UNK        -0.5000 
     99 N          -2.9936  -19.0955  -50.4862 N.am      18 UNK        -0.5000 
    100 CA        -2.4637  -17.8771  -51.0997 C.3       18 UNK         0.1400 
    101 CB        -1.7144  -17.0718  -50.0279 C.3       18 UNK        -0.1800 
    102 C         -3.5318  -17.0158  -51.7973 C.2       18 UNK         0.5000 
    103 O         -4.3211  -16.3514  -51.1237 O.2       18 UNK        -0.5000 
    104 N         -3.5392  -17.0822  -53.1358 N.am      19 UNK        -0.5000 
    105 CA        -4.4593  -16.4235  -54.0693 C.3       19 UNK         0.1400 
    106 CB        -4.3055  -14.8900  -53.9968 C.3       19 UNK        -0.1800 
    107 C         -5.9308  -16.8796  -53.9406 C.2       19 UNK         0.5000 
    108 O         -6.8214  -16.1923  -54.4438 O.2       19 UNK        -0.5000 
    109 N         -6.1637  -18.0269  -53.2900 N.am      20 UNK        -0.5000 
    110 CA        -7.4851  -18.6002  -53.0384 C.3       20 UNK         0.1400 
    111 CB        -7.7338  -18.6365  -51.5225 C.3       20 UNK        -0.1800 
    112 C         -7.6235  -20.0052  -53.6454 C.2       20 UNK         0.5000 
    113 O         -8.7129  -20.3503  -54.1053 O.2       20 UNK        -0.5000 
    114 N         -6.5353  -20.7871  -53.6522 N.am      21 UNK        -0.5000 
    115 CA        -6.5019  -22.1573  -54.1669 C.3       21 UNK         0.1400 
    116 CB        -6.8320  -23.1500  -53.0358 C.3       21 UNK        -0.1800 
    117 C         -5.1689  -22.4763  -54.8679 C.2       21 UNK         0.5000 
    118 O         -4.7970  -23.6463  -54.9596 O.2       21 UNK        -0.5000 
    119 N         -4.4735  -21.4444  -55.3645 N.am      22 UNK        -0.5000 
    120 CA        -3.2169  -21.5758  -56.1256 C.3       22 UNK         0.1400 
    121 C         -3.3710  -22.2179  -57.5380 C.2       22 UNK         0.5000 
    122 N         -4.5687  -22.3156  -58.1028 N.am      22 UNK        -0.7600 
    123 O         -2.3816  -22.6377  -58.1316 O.2       22 UNK        -0.5000 
    124 C124       -2.4643  -20.2266  -56.2384 C.3       23 UNK        -0.0398 
    125 S125       -1.9566  -19.5479  -54.6244 S.3       23 UNK        -0.2404 
    126 C126       -0.2198  -20.0830  -54.5553 C.3       23 UNK        -0.0205 
    127 H127        4.9445  -12.0488  -48.3602 H         1 UNK         0.0600 
    128 H128        6.0695  -13.1689  -47.5869 H         1 UNK         0.0600 
    129 H129        4.8837  -12.2931  -46.6123 H         1 UNK         0.0600 
    130 H130        3.2852  -13.0971  -49.4175 H         1 UNK         0.3000 
    131 H131        2.6361  -15.8602  -49.0054 H         1 UNK         0.0600 
    132 H132        0.8480  -15.4295  -50.7083 H         1 UNK         0.0800 
    133 H133        1.1806  -13.7175  -50.6520 H         1 UNK         0.0800 
    134 H134        1.1059  -15.2867  -53.3136 H         1 UNK         0.0800 
    135 H135        2.6266  -15.8183  -53.9853 H         1 UNK         0.0800 
    136 H136        0.5646  -17.4914  -54.5944 H         1 UNK         0.1150 
    137 H137        0.7597  -21.0205  -52.1786 H         1 UNK         0.1150 
    138 H138        2.7262  -17.4574  -50.8824 H         1 UNK         0.1150 
    139 H139        2.2689  -21.1013  -50.2932 H         1 UNK         0.0800 
    140 H140        3.3544  -19.7653  -50.0212 H         1 UNK         0.0800 
    141 H141       -0.2848  -20.8490  -49.7832 H         1 UNK         0.0800 
    142 H142       -0.9132  -20.0939  -48.3449 H         1 UNK         0.0800 
    143 H143        0.9676  -22.5048  -48.4150 H         1 UNK         0.0600 
    144 H144        0.3338  -20.8235  -46.1808 H         1 UNK         0.3000 
    145 H145        1.1181  -23.2330  -43.6528 H         1 UNK         0.0600 
    146 H146        2.6452  -21.3971  -42.9702 H         1 UNK         0.0600 
    147 H147        3.3070  -22.2659  -44.3480 H         1 UNK         0.0600 
    148 H148        2.5574  -20.6913  -44.5823 H         1 UNK         0.0600 
    149 H149        0.3224  -20.5182  -43.4496 H         1 UNK         0.3000 
    150 H150       -3.2157  -21.0192  -43.6863 H         1 UNK         0.0600 
    151 H151       -2.7396  -21.5424  -41.3318 H         1 UNK         0.0600 
    152 H152       -3.0972  -19.8294  -41.4844 H         1 UNK         0.0600 
    153 H153       -1.4314  -20.3746  -41.2815 H         1 UNK         0.0600 
    154 H154       -1.5993  -18.7056  -43.2230 H         1 UNK         0.3000 
    155 H155       -1.0172  -17.8068  -46.5792 H         1 UNK         0.0600 
    156 H156       -3.1604  -16.6488  -44.7174 H         1 UNK         0.0600 
    157 H157       -2.3872  -15.8146  -46.0664 H         1 UNK         0.0600 
    158 H158       -3.4283  -17.1932  -46.3701 H         1 UNK         0.0600 
    159 H159       -0.8064  -16.4630  -44.0134 H         1 UNK         0.3000 
    160 H160        2.6403  -17.4120  -43.5448 H         1 UNK         0.0600 
    161 H161        2.7164  -14.9877  -43.2385 H         1 UNK         0.0600 
    162 H162        1.0516  -14.8022  -43.7824 H         1 UNK         0.0600 
    163 H163        2.3005  -15.2992  -44.9160 H         1 UNK         0.0600 
    164 H164        1.0037  -16.1000  -41.7056 H         1 UNK         0.3000 
    165 H165       -0.8805  -18.1648  -40.1934 H         1 UNK         0.0600 
    166 H166        0.3711  -18.9831  -38.2022 H         1 UNK         0.0600 
    167 H167        0.6254  -20.0389  -39.5784 H         1 UNK         0.0600 
    168 H168        1.8845  -18.9047  -39.1055 H         1 UNK         0.0600 
    169 H169        1.0759  -16.5974  -38.7866 H         1 UNK         0.3000 
    170 H170       -0.2343  -14.4427  -37.9641 H         1 UNK         0.0600 
    171 H171        1.7788  -13.0253  -38.5874 H         1 UNK         0.0600 
    172 H172        1.8281  -13.7971  -40.1686 H         1 UNK         0.0600 
    173 H173        2.1544  -14.7284  -38.7110 H         1 UNK         0.0600 
    174 H174       -1.1948  -13.3620  -40.4351 H         1 UNK         0.3000 
    175 H175       -2.6995  -11.3388  -40.0530 H         1 UNK         0.0600 
    176 H176       -2.4461   -8.8851  -39.7677 H         1 UNK         0.0600 
    177 H177       -0.9238   -9.1175  -38.9089 H         1 UNK         0.0600 
    178 H178       -2.4329   -9.6936  -38.2093 H         1 UNK         0.0600 
    179 H179       -0.3275   -9.9676  -41.1234 H         1 UNK         0.3000 
    180 H180       -0.1820  -10.2786  -43.6734 H         1 UNK         0.0600 
    181 H181        1.5697  -12.4941  -42.4184 H         1 UNK         0.0600 
    182 H182        1.6449  -10.7898  -41.9914 H         1 UNK         0.0600 
    183 H183        2.1357  -11.3068  -43.5891 H         1 UNK         0.0600 
    184 H184       -1.0264  -12.9334  -44.0893 H         1 UNK         0.3000 
    185 H185       -0.3820  -14.3117  -45.8679 H         1 UNK         0.0600 
    186 H186       -2.3980  -12.9337  -46.4512 H         1 UNK         0.0600 
    187 H187       -1.5370  -12.2207  -47.8114 H         1 UNK         0.0600 
    188 H188       -1.9304  -13.9390  -47.8135 H         1 UNK         0.0600 
    189 H189        1.3665  -12.8672  -47.6616 H         1 UNK         0.3000 
    190 H190       -2.0599  -21.8691  -46.6001 H         1 UNK         0.3000 
    191 H191       -3.7422  -23.5640  -48.1468 H         1 UNK         0.0600 
    192 H192       -4.5843  -21.8057  -46.5879 H         1 UNK         0.0600 
    193 H193       -5.2909  -23.3750  -46.2308 H         1 UNK         0.0600 
    194 H194       -4.0089  -22.7412  -45.2095 H         1 UNK         0.0600 
    195 H195       -1.7711  -24.2520  -45.2205 H         1 UNK         0.3000 
    196 H196       -2.4738  -26.9805  -44.9311 H         1 UNK         0.0600 
    197 H197       -0.3972  -27.0912  -43.5498 H         1 UNK         0.0600 
    198 H198       -1.3393  -25.6590  -43.1650 H         1 UNK         0.0600 
    199 H199        0.1085  -25.5211  -44.1606 H         1 UNK         0.0600 
    200 H200       -0.1400  -25.4177  -47.0802 H         1 UNK         0.3000 
    201 H201        1.0023  -27.8968  -48.1047 H         1 UNK         0.0600 
    202 H202        2.2986  -25.7587  -48.0108 H         1 UNK         0.0600 
    203 H203        1.1818  -25.0261  -49.1592 H         1 UNK         0.0600 
    204 H204        2.1866  -26.3811  -49.6487 H         1 UNK         0.0600 
    205 H205       -2.0438  -26.6794  -48.4212 H         1 UNK         0.3000 
    206 H206       -3.7912  -27.0590  -49.6699 H         1 UNK         0.0600 
    207 H207       -2.9935  -29.4343  -49.6988 H         1 UNK         0.0600 
    208 H208       -3.9256  -29.0183  -51.1265 H         1 UNK         0.0600 
    209 H209       -2.1761  -29.1343  -51.2326 H         1 UNK         0.0600 
    210 H210       -2.0079  -24.8872  -50.3922 H         1 UNK         0.3000 
    211 H211       -3.2074  -24.2398  -52.9933 H         1 UNK         0.0600 
    212 H212       -0.1717  -24.1891  -52.5335 H         1 UNK         0.0600 
    213 H213       -1.0046  -23.5010  -53.9250 H         1 UNK         0.0600 
    214 H214       -1.0259  -25.2378  -53.6641 H         1 UNK         0.0600 
    215 H215       -4.3569  -23.2407  -51.0460 H         1 UNK         0.3000 
    216 H216       -3.3208  -21.2913  -49.3843 H         1 UNK         0.0600 
    217 H217       -5.6829  -20.5479  -49.1374 H         1 UNK         0.0600 
    218 H218       -5.5835  -22.3000  -49.1437 H         1 UNK         0.0600 
    219 H219       -6.1382  -21.4447  -50.5795 H         1 UNK         0.0600 
    220 H220       -2.6684  -19.2708  -49.5489 H         1 UNK         0.3000 
    221 H221       -1.7296  -18.1868  -51.8460 H         1 UNK         0.0600 
    222 H222       -2.3452  -16.8571  -49.1643 H         1 UNK         0.0600 
    223 H223       -0.8335  -17.6089  -49.6758 H         1 UNK         0.0600 
    224 H224       -1.3731  -16.1158  -50.4249 H         1 UNK         0.0600 
    225 H225       -2.8843  -17.7213  -53.5713 H         1 UNK         0.3000 
    226 H226       -4.1414  -16.7359  -55.0650 H         1 UNK         0.0600 
    227 H227       -3.2620  -14.5930  -54.1018 H         1 UNK         0.0600 
    228 H228       -4.8614  -14.4011  -54.7976 H         1 UNK         0.0600 
    229 H229       -4.6755  -14.4899  -53.0525 H         1 UNK         0.0600 
    230 H230       -5.3712  -18.5364  -52.9098 H         1 UNK         0.3000 
    231 H231       -8.2643  -17.9828  -53.4900 H         1 UNK         0.0600 
    232 H232       -6.9628  -19.2029  -51.0014 H         1 UNK         0.0600 
    233 H233       -8.6962  -19.0952  -51.2915 H         1 UNK         0.0600 
    234 H234       -7.7435  -17.6297  -51.1047 H         1 UNK         0.0600 
    235 H235       -5.6771  -20.4571  -53.2136 H         1 UNK         0.3000 
    236 H236       -7.2637  -22.2685  -54.9411 H         1 UNK         0.0600 
    237 H237       -7.7808  -22.9061  -52.5579 H         1 UNK         0.0600 
    238 H238       -6.9170  -24.1678  -53.4183 H         1 UNK         0.0600 
    239 H239       -6.0604  -23.1531  -52.2684 H         1 UNK         0.0600 
    240 H240       -4.8381  -20.5105  -55.2537 H         1 UNK         0.3000 
    241 H241       -2.5750  -22.2575  -55.5640 H         1 UNK         0.0600 
    242 H242       -5.3906  -21.9739  -57.6319 H         1 UNK         0.3800 
    243 H243       -4.6533  -22.7365  -59.0149 H         1 UNK         0.3800 
    244 H244       -1.5793  -20.3259  -56.8693 H         1 UNK         0.0800 
    245 H245       -3.0954  -19.4864  -56.7326 H         1 UNK         0.0800 
    246 H246        0.2606  -19.9167  -55.5204 H         1 UNK         0.0800 
    247 H247       -0.1873  -21.1579  -54.3721 H         1 UNK         0.0800 
@<TRIPOS>BOND
     1    1    2 1    
     2    1  127 1    
     3    1  128 1    
     4    1  129 1    
     5    2    3 2    
     6    2    4 am   BACKBONE|DICT|INTERRES
     7    4    5 1    
     8    4  130 1    
     9    5    6 1    
    10    5   65 1    
    11    5  131 1    
    12    6    7 1    
    13    6  132 1    
    14    6  133 1    
    15    7    8 1    
    16    8    9 1    
    17    8  134 1    
    18    8  135 1    
    19    9   10 ar   
    20    9   14 ar   
    21   10   11 ar   
    22   10  136 1    
    23   11   12 ar   
    24   11  126 1    
    25   12   13 ar   
    26   12  137 1    
    27   13   14 ar   
    28   13   15 1    
    29   14  138 1    
    30   15   16 1    
    31   15  139 1    
    32   15  140 1    
    33   16   17 1    
    34   17   18 1    
    35   17  141 1    
    36   17  142 1    
    37   18   19 1    
    38   18   67 1    
    39   18  143 1    
    40   19   20 am   BACKBONE|DICT|INTERRES
    41   19  144 1    
    42   20   21 2    
    43   20   22 1    
    44   22   23 1    
    45   22   24 1    
    46   22  145 1    
    47   23  146 1    
    48   23  147 1    
    49   23  148 1    
    50   24   25 am   BACKBONE|DICT|INTERRES
    51   24  149 1    
    52   25   26 2    
    53   25   27 1    
    54   27   28 1    
    55   27   29 1    
    56   27  150 1    
    57   28  151 1    
    58   28  152 1    
    59   28  153 1    
    60   29   30 am   BACKBONE|DICT|INTERRES
    61   29  154 1    
    62   30   31 2    
    63   30   32 1    
    64   32   33 1    
    65   32   34 1    
    66   32  155 1    
    67   33  156 1    
    68   33  157 1    
    69   33  158 1    
    70   34   35 am   BACKBONE|DICT|INTERRES
    71   34  159 1    
    72   35   36 2    
    73   35   37 1    
    74   37   38 1    
    75   37   39 1    
    76   37  160 1    
    77   38  161 1    
    78   38  162 1    
    79   38  163 1    
    80   39   40 am   BACKBONE|DICT|INTERRES
    81   39  164 1    
    82   40   41 2    
    83   40   42 1    
    84   42   43 1    
    85   42   44 1    
    86   42  165 1    
    87   43  166 1    
    88   43  167 1    
    89   43  168 1    
    90   44   45 am   BACKBONE|DICT|INTERRES
    91   44  169 1    
    92   45   46 2    
    93   45   47 1    
    94   47   48 1    
    95   47   49 1    
    96   47  170 1    
    97   48  171 1    
    98   48  172 1    
    99   48  173 1    
   100   49   50 am   BACKBONE|DICT|INTERRES
   101   49  174 1    
   102   50   51 2    
   103   50   52 1    
   104   52   53 1    
   105   52   54 1    
   106   52  175 1    
   107   53  176 1    
   108   53  177 1    
   109   53  178 1    
   110   54   55 am   BACKBONE|DICT|INTERRES
   111   54  179 1    
   112   55   56 2    
   113   55   57 1    
   114   57   58 1    
   115   57   59 1    
   116   57  180 1    
   117   58  181 1    
   118   58  182 1    
   119   58  183 1    
   120   59   60 am   BACKBONE|DICT|INTERRES
   121   59  184 1    
   122   60   61 2    
   123   60   62 1    
   124   62   63 1    
   125   62   64 1    
   126   62  185 1    
   127   63  186 1    
   128   63  187 1    
   129   63  188 1    
   130   64   65 am   BACKBONE|DICT|INTERRES
   131   64  189 1    
   132   65   66 2    
   133   67   68 2    
   134   67   69 am   BACKBONE|DICT|INTERRES
   135   69   70 1    
   136   69  190 1    
   137   70   71 1    
   138   70   72 1    
   139   70  191 1    
   140   71  192 1    
   141   71  193 1    
   142   71  194 1    
   143   72   73 2    
   144   72   74 am   BACKBONE|DICT|INTERRES
   145   74   75 1    
   146   74  195 1    
   147   75   76 1    
   148   75   77 1    
   149   75  196 1    
   150   76  197 1    
   151   76  198 1    
   152   76  199 1    
   153   77   78 2    
   154   77   79 am   BACKBONE|DICT|INTERRES
   155   79   80 1    
   156   79  200 1    
   157   80   81 1    
   158   80   82 1    
   159   80  201 1    
   160   81  202 1    
   161   81  203 1    
   162   81  204 1    
   163   82   83 2    
   164   82   84 am   BACKBONE|DICT|INTERRES
   165   84   85 1    
   166   84  205 1    
   167   85   86 1    
   168   85   87 1    
   169   85  206 1    
   170   86  207 1    
   171   86  208 1    
   172   86  209 1    
   173   87   88 2    
   174   87   89 am   BACKBONE|DICT|INTERRES
   175   89   90 1    
   176   89  210 1    
   177   90   91 1    
   178   90   92 1    
   179   90  211 1    
   180   91  212 1    
   181   91  213 1    
   182   91  214 1    
   183   92   93 2    
   184   92   94 am   BACKBONE|DICT|INTERRES
   185   94   95 1    
   186   94  215 1    
   187   95   96 1    
   188   95   97 1    
   189   95  216 1    
   190   96  217 1    
   191   96  218 1    
   192   96  219 1    
   193   97   98 2    
   194   97   99 am   BACKBONE|DICT|INTERRES
   195   99  100 1    
   196   99  220 1    
   197  100  101 1    
   198  100  102 1    
   199  100  221 1    
   200  101  222 1    
   201  101  223 1    
   202  101  224 1    
   203  102  103 2    
   204  102  104 am   BACKBONE|DICT|INTERRES
   205  104  105 1    
   206  104  225 1    
   207  105  106 1    
   208  105  107 1    
   209  105  226 1    
   210  106  227 1    
   211  106  228 1    
   212  106  229 1    
   213  107  108 2    
   214  107  109 am   BACKBONE|DICT|INTERRES
   215  109  110 1    
   216  109  230 1    
   217  110  111 1    
   218  110  112 1    
   219  110  231 1    
   220  111  232 1    
   221  111  233 1    
   222  111  234 1    
   223  112  113 2    
   224  112  114 am   BACKBONE|DICT|INTERRES
   225  114  115 1    
   226  114  235 1    
   227  115  116 1    
   228  115  117 1    
   229  115  236 1    
   230  116  237 1    
   231  116  238 1    
   232  116  239 1    
   233  117  118 2    
   234  117  119 am   BACKBONE|DICT|INTERRES
   235  119  120 1    
   236  119  240 1    
   237  120  121 1    
   238  120  124 1    
   239  120  241 1    
   240  121  122 am   BACKBONE|DICT|INTERRES
   241  121  123 2    
   242  122  242 1    
   243  122  243 1    
   244  124  125 1    
   245  124  244 1    
   246  124  245 1    
   247  125  126 1    
   248  126  246 1    
   249  126  247 1    
@<TRIPOS>SUBSTRUCTURE
     1 UNK         1 GROUP             0       ****    0 ROOT    
