@<TRIPOS>MOLECULE
3R540
247   249    1
SMALL
USER_CHARGES


@<TRIPOS>ATOM
      1 CA         -1.5127  -12.8173  -49.1481 C.3       0 UNK        -0.1800 
      2 C          -0.0453  -12.7693  -48.7514 C.2       0 UNK         0.5000 
      3 O           0.3044  -13.2150  -47.6602 O.2       0 UNK        -0.5000 
      4 N           0.8128  -12.2287  -49.6255 N.am      1 UNK        -0.5000 
      5 CA          2.2704  -12.0691  -49.4852 C.3       1 UNK         0.1400 
      6 C6          3.0750  -13.3940  -49.3297 C.3       23 UNK        -0.0398 
      7 S7          2.5491  -14.7515  -50.4348 S.3       23 UNK        -0.2404 
      8 C8          1.9434  -15.9536  -49.2007 C.3       23 UNK        -0.0205 
      9 C9          0.9087  -16.9093  -49.7713 C.ar      23 UNK        -0.0193 
     10 C10        -0.3059  -16.4147  -50.2504 C.ar      23 UNK        -0.1150 
     11 C11        -1.2874  -17.2811  -50.7336 C.ar      23 UNK        -0.0193 
     12 C12        -1.0546  -18.6586  -50.7161 C.ar      23 UNK        -0.1150 
     13 C13         0.1554  -19.1735  -50.2377 C.ar      23 UNK        -0.0193 
     14 C14         1.1394  -18.2875  -49.7796 C.ar      23 UNK        -0.1150 
     15 C15         0.3772  -20.6857  -50.2477 C.3       23 UNK        -0.0205 
     16 S16         1.3618  -21.3297  -48.8525 S.3       23 UNK        -0.2404 
     17 C17         0.3425  -20.8404  -47.4228 C.3       23 UNK        -0.0398 
     18 CA         -0.3507  -22.0401  -46.7338 C.3       11 UNK         0.1400 
     19 N          -0.5422  -21.7910  -45.3038 N.am      11 UNK        -0.5000 
     20 C          -0.9931  -22.6840  -44.4132 C.2       10 UNK         0.5000 
     21 O          -1.2346  -23.8594  -44.6830 O.2       10 UNK        -0.5000 
     22 CA         -1.2766  -22.1538  -42.9977 C.3       10 UNK         0.1400 
     23 CB         -0.0041  -22.1735  -42.1385 C.3       10 UNK        -0.1800 
     24 N          -1.8340  -20.8000  -43.0354 N.am      10 UNK        -0.5000 
     25 C          -3.0787  -20.5148  -43.4449 C.2       9 UNK         0.5000 
     26 O          -3.8982  -21.3723  -43.7729 O.2       9 UNK        -0.5000 
     27 CA         -3.4562  -19.0243  -43.5456 C.3       9 UNK         0.1400 
     28 CB         -3.8908  -18.4812  -42.1764 C.3       9 UNK        -0.1800 
     29 N          -2.3677  -18.1980  -44.0711 N.am      9 UNK        -0.5000 
     30 C          -1.8934  -18.2732  -45.3229 C.2       8 UNK         0.5000 
     31 O          -2.3580  -19.0199  -46.1824 O.2       8 UNK        -0.5000 
     32 CA         -0.6579  -17.4146  -45.6549 C.3       8 UNK         0.1400 
     33 CB         -1.0814  -16.0453  -46.2003 C.3       8 UNK        -0.1800 
     34 N           0.2537  -17.2255  -44.5215 N.am      8 UNK        -0.5000 
     35 C           0.8811  -18.2162  -43.8685 C.2       7 UNK         0.5000 
     36 O           0.7015  -19.4095  -44.1183 O.2       7 UNK        -0.5000 
     37 CA          1.8571  -17.7913  -42.7516 C.3       7 UNK         0.1400 
     38 CB          2.7466  -18.9447  -42.2448 C.3       7 UNK        -0.1800 
     39 N           2.6637  -16.6332  -43.1418 N.am      7 UNK        -0.5000 
     40 C           3.5275  -16.5435  -44.1646 C.2       6 UNK         0.5000 
     41 O           3.8608  -17.4945  -44.8721 O.2       6 UNK        -0.5000 
     42 CA          4.0935  -15.1451  -44.4759 C.3       6 UNK         0.1400 
     43 CB          3.5217  -14.6341  -45.8054 C.3       6 UNK        -0.1800 
     44 N           3.7851  -14.1696  -43.4282 N.am      6 UNK        -0.5000 
     45 C           4.5711  -13.9086  -42.3747 C.2       5 UNK         0.5000 
     46 O           5.6895  -14.3987  -42.2175 O.2       5 UNK        -0.5000 
     47 CA          4.0032  -12.9614  -41.2995 C.3       5 UNK         0.1400 
     48 CB          4.5065  -11.5267  -41.5138 C.3       5 UNK        -0.1800 
     49 N           2.5381  -12.9653  -41.2553 N.am      5 UNK        -0.5000 
     50 C           1.8075  -13.9764  -40.7613 C.2       4 UNK         0.5000 
     51 O           2.2981  -14.9970  -40.2793 O.2       4 UNK        -0.5000 
     52 CA          0.2748  -13.8594  -40.8580 C.3       4 UNK         0.1400 
     53 CB         -0.3005  -13.2486  -39.5717 C.3       4 UNK        -0.1800 
     54 N          -0.1860  -13.0789  -42.0065 N.am      4 UNK        -0.5000 
     55 C           0.0110  -13.4015  -43.2911 C.2       3 UNK         0.5000 
     56 O           0.6218  -14.4101  -43.6530 O.2       3 UNK        -0.5000 
     57 CA         -0.5486  -12.4371  -44.3551 C.3       3 UNK         0.1400 
     58 CB         -1.4441  -11.3106  -43.7921 C.3       3 UNK        -0.1800 
     59 N           0.5143  -11.8765  -45.1905 N.am      3 UNK        -0.5000 
     60 C           1.5704  -11.1452  -44.7975 C.2       2 UNK         0.5000 
     61 O           1.7931  -10.8609  -43.6196 O.2       2 UNK        -0.5000 
     62 CA          2.5423  -10.6602  -45.8960 C.3       2 UNK         0.1400 
     63 CB          4.0104  -10.6583  -45.4283 C.3       2 UNK        -0.1800 
     64 N           2.3976  -11.4548  -47.1153 N.am      2 UNK        -0.5000 
     65 C           2.6304  -11.0570  -48.3714 C.2       1 UNK         0.5000 
     66 O           3.0771   -9.9488  -48.6700 O.2       1 UNK        -0.5000 
     67 C          -1.6771  -22.4245  -47.4276 C.2       11 UNK         0.5000 
     68 O          -1.7154  -23.4024  -48.1734 O.2       11 UNK        -0.5000 
     69 N          -2.7544  -21.6887  -47.1180 N.am      12 UNK        -0.5000 
     70 CA         -4.1189  -21.9686  -47.5653 C.3       12 UNK         0.1400 
     71 CB         -5.0321  -20.7967  -47.1823 C.3       12 UNK        -0.1800 
     72 C          -4.6776  -23.2948  -47.0186 C.2       12 UNK         0.5000 
     73 O          -5.3522  -24.0108  -47.7582 O.2       12 UNK        -0.5000 
     74 N          -4.3751  -23.6089  -45.7501 N.am      13 UNK        -0.5000 
     75 CA         -4.7558  -24.8629  -45.0958 C.3       13 UNK         0.1400 
     76 CB         -4.5070  -24.7585  -43.5836 C.3       13 UNK        -0.1800 
     77 C          -4.0349  -26.0880  -45.6902 C.2       13 UNK         0.5000 
     78 O          -4.6667  -27.1285  -45.8779 O.2       13 UNK        -0.5000 
     79 N          -2.7381  -25.9381  -45.9985 N.am      14 UNK        -0.5000 
     80 CA         -1.9296  -26.9327  -46.7092 C.3       14 UNK         0.1400 
     81 CB         -0.4489  -26.5299  -46.6372 C.3       14 UNK        -0.1800 
     82 C          -2.3717  -27.1092  -48.1747 C.2       14 UNK         0.5000 
     83 O          -2.3312  -28.2245  -48.6967 O.2       14 UNK        -0.5000 
     84 N          -2.7971  -26.0015  -48.7960 N.am      15 UNK        -0.5000 
     85 CA         -3.3706  -25.8321  -50.1321 C.3       15 UNK         0.1400 
     86 CB         -4.6421  -26.6794  -50.3220 C.3       15 UNK        -0.1800 
     87 C          -2.3757  -26.0464  -51.2841 C.2       15 UNK         0.5000 
     88 O          -2.3085  -25.2103  -52.1881 O.2       15 UNK        -0.5000 
     89 N          -1.6517  -27.1746  -51.2563 N.am      16 UNK        -0.5000 
     90 CA         -0.6028  -27.6080  -52.1927 C.3       16 UNK         0.1400 
     91 CB          0.6373  -26.7052  -52.0292 C.3       16 UNK        -0.1800 
     92 C          -1.0439  -27.7060  -53.6733 C.2       16 UNK         0.5000 
     93 O          -0.1886  -27.7835  -54.5565 O.2       16 UNK        -0.5000 
     94 N          -2.3638  -27.6654  -53.9173 N.am      17 UNK        -0.5000 
     95 CA         -3.0326  -27.4833  -55.2108 C.3       17 UNK         0.1400 
     96 CB         -2.8430  -28.7272  -56.1041 C.3       17 UNK        -0.1800 
     97 C          -2.6379  -26.1644  -55.9197 C.2       17 UNK         0.5000 
     98 O          -2.6660  -26.1045  -57.1506 O.2       17 UNK        -0.5000 
     99 N          -2.2637  -25.1388  -55.1388 N.am      18 UNK        -0.5000 
    100 CA        -1.7012  -23.8816  -55.6360 C.3       18 UNK         0.1400 
    101 CB        -0.1699  -23.9367  -55.5067 C.3       18 UNK        -0.1800 
    102 C         -2.2534  -22.6392  -54.9184 C.2       18 UNK         0.5000 
    103 O         -2.2837  -21.5684  -55.5252 O.2       18 UNK        -0.5000 
    104 N         -2.6917  -22.7733  -53.6588 N.am      19 UNK        -0.5000 
    105 CA        -3.1192  -21.6697  -52.7896 C.3       19 UNK         0.1400 
    106 CB        -3.0215  -22.1303  -51.3266 C.3       19 UNK        -0.1800 
    107 C         -4.5297  -21.1148  -53.0895 C.2       19 UNK         0.5000 
    108 O         -5.1699  -20.5805  -52.1832 O.2       19 UNK        -0.5000 
    109 N         -5.0046  -21.2347  -54.3351 N.am      20 UNK        -0.5000 
    110 CA        -6.3590  -20.8874  -54.7830 C.3       20 UNK         0.1400 
    111 CB        -6.4919  -21.2439  -56.2709 C.3       20 UNK        -0.1800 
    112 C         -6.7754  -19.4213  -54.5403 C.2       20 UNK         0.5000 
    113 O         -7.9690  -19.1440  -54.4185 O.2       20 UNK        -0.5000 
    114 N         -5.7917  -18.5163  -54.4576 N.am      21 UNK        -0.5000 
    115 CA        -5.9855  -17.1020  -54.1392 C.3       21 UNK         0.1400 
    116 CB        -4.7494  -16.3182  -54.6088 C.3       21 UNK        -0.1800 
    117 C         -6.2625  -16.8312  -52.6446 C.2       21 UNK         0.5000 
    118 O         -6.7879  -15.7626  -52.3287 O.2       21 UNK        -0.5000 
    119 N         -5.8998  -17.7714  -51.7606 N.am      22 UNK        -0.5000 
    120 CA        -6.0289  -17.6502  -50.2968 C.3       22 UNK         0.1400 
    121 C         -6.9370  -18.7438  -49.6716 C.2       22 UNK         0.5000 
    122 N         -7.0568  -19.9290  -50.2551 N.am      22 UNK        -0.7600 
    123 O         -7.5615  -18.5048  -48.6421 O.2       22 UNK        -0.5000 
    124 C124       -4.6444  -17.6233  -49.5961 C.3       23 UNK        -0.0398 
    125 S125       -3.6984  -16.1171  -50.0014 S.3       23 UNK        -0.2404 
    126 C126       -2.5778  -16.7150  -51.3034 C.3       23 UNK        -0.0205 
    127 H127       -1.6505  -12.6320  -50.2134 H         1 UNK         0.0600 
    128 H128       -2.0758  -12.0692  -48.5906 H         1 UNK         0.0600 
    129 H129       -1.9294  -13.7977  -48.9177 H         1 UNK         0.0600 
    130 H130        0.4410  -11.8668  -50.4923 H         1 UNK         0.3000 
    131 H131        2.5917  -11.6190  -50.4260 H         1 UNK         0.0600 
    132 H132        4.1325  -13.2033  -49.5190 H         1 UNK         0.0800 
    133 H133        3.0272  -13.7547  -48.3060 H         1 UNK         0.0800 
    134 H134        2.7956  -16.4984  -48.7919 H         1 UNK         0.0800 
    135 H135        1.4819  -15.4361  -48.3603 H         1 UNK         0.0800 
    136 H136       -0.4854  -15.3497  -50.2529 H         1 UNK         0.1150 
    137 H137       -1.8149  -19.3287  -51.0879 H         1 UNK         0.1150 
    138 H138        2.0812  -18.6698  -49.4132 H         1 UNK         0.1150 
    139 H139       -0.5808  -21.2019  -50.2367 H         1 UNK         0.0800 
    140 H140        0.8689  -20.9598  -51.1817 H         1 UNK         0.0800 
    141 H141        1.0272  -20.3557  -46.7252 H         1 UNK         0.0800 
    142 H142       -0.3763  -20.0696  -47.7037 H         1 UNK         0.0800 
    143 H143        0.3116  -22.9061  -46.8005 H         1 UNK         0.0600 
    144 H144       -0.3097  -20.8617  -44.9670 H         1 UNK         0.3000 
    145 H145       -2.0092  -22.8140  -42.5290 H         1 UNK         0.0600 
    146 H146       -0.1958  -21.7891  -41.1367 H         1 UNK         0.0600 
    147 H147        0.3724  -23.1914  -42.0301 H         1 UNK         0.0600 
    148 H148        0.7941  -21.5786  -42.5816 H         1 UNK         0.0600 
    149 H149       -1.1945  -20.0417  -42.8468 H         1 UNK         0.3000 
    150 H150       -4.3036  -18.9425  -44.2297 H         1 UNK         0.0600 
    151 H151       -4.7149  -19.0680  -41.7682 H         1 UNK         0.0600 
    152 H152       -4.2348  -17.4496  -42.2527 H         1 UNK         0.0600 
    153 H153       -3.0760  -18.5112  -41.4519 H         1 UNK         0.0600 
    154 H154       -1.9259  -17.5573  -43.4290 H         1 UNK         0.3000 
    155 H155       -0.0992  -17.9292  -46.4389 H         1 UNK         0.0600 
    156 H156       -0.2095  -15.4469  -46.4600 H         1 UNK         0.0600 
    157 H157       -1.6682  -15.4845  -45.4724 H         1 UNK         0.0600 
    158 H158       -1.6842  -16.1514  -47.1036 H         1 UNK         0.0600 
    159 H159        0.4514  -16.2649  -44.2541 H         1 UNK         0.3000 
    160 H160        1.2389  -17.4617  -41.9155 H         1 UNK         0.0600 
    161 H161        3.3270  -19.3962  -43.0499 H         1 UNK         0.0600 
    162 H162        2.1423  -19.7330  -41.7960 H         1 UNK         0.0600 
    163 H163        3.4433  -18.5983  -41.4815 H         1 UNK         0.0600 
    164 H164        2.4621  -15.7813  -42.6383 H         1 UNK         0.3000 
    165 H165        5.1751  -15.2455  -44.5874 H         1 UNK         0.0600 
    166 H166        2.4441  -14.4732  -45.7511 H         1 UNK         0.0600 
    167 H167        3.9938  -13.6977  -46.0972 H         1 UNK         0.0600 
    168 H168        3.7067  -15.3491  -46.6079 H         1 UNK         0.0600 
    169 H169        2.8674  -13.7468  -43.4648 H         1 UNK         0.3000 
    170 H170        4.3757  -13.3045  -40.3318 H         1 UNK         0.0600 
    171 H171        5.5965  -11.4897  -41.5008 H         1 UNK         0.0600 
    172 H172        4.1780  -11.1227  -42.4701 H         1 UNK         0.0600 
    173 H173        4.1493  -10.8612  -40.7279 H         1 UNK         0.0600 
    174 H174        2.0665  -12.1733  -41.6747 H         1 UNK         0.3000 
    175 H175       -0.1237  -14.8706  -40.9637 H         1 UNK         0.0600 
    176 H176        0.0406  -12.2228  -39.4258 H         1 UNK         0.0600 
    177 H177       -1.3904  -13.2413  -39.5911 H         1 UNK         0.0600 
    178 H178        0.0034  -13.8235  -38.6959 H         1 UNK         0.0600 
    179 H179       -0.6774  -12.2215  -41.8001 H         1 UNK         0.3000 
    180 H180       -1.1654  -13.0464  -45.0168 H         1 UNK         0.0600 
    181 H181       -0.8977  -10.6359  -43.1322 H         1 UNK         0.0600 
    182 H182       -2.2876  -11.7179  -43.2333 H         1 UNK         0.0600 
    183 H183       -1.8606  -10.7094  -44.6005 H         1 UNK         0.0600 
    184 H184        0.4315  -12.1276  -46.1711 H         1 UNK         0.3000 
    185 H185        2.2540   -9.6318  -46.1220 H         1 UNK         0.0600 
    186 H186        4.6849  -10.3567  -46.2295 H         1 UNK         0.0600 
    187 H187        4.3250  -11.6400  -45.0756 H         1 UNK         0.0600 
    188 H188        4.1547   -9.9542  -44.6084 H         1 UNK         0.0600 
    189 H189        1.9513  -12.3586  -47.0017 H         1 UNK         0.3000 
    190 H190       -2.6301  -20.8539  -46.5512 H         1 UNK         0.3000 
    191 H191       -4.1060  -22.0430  -48.6530 H         1 UNK         0.0600 
    192 H192       -4.6782  -19.8654  -47.6215 H         1 UNK         0.0600 
    193 H193       -6.0494  -20.9606  -47.5394 H         1 UNK         0.0600 
    194 H194       -5.0818  -20.6573  -46.1026 H         1 UNK         0.0600 
    195 H195       -3.8719  -22.9334  -45.1864 H         1 UNK         0.3000 
    196 H196       -5.8278  -25.0043  -45.2487 H         1 UNK         0.0600 
    197 H197       -4.8426  -25.6610  -43.0715 H         1 UNK         0.0600 
    198 H198       -5.0499  -23.9180  -43.1509 H         1 UNK         0.0600 
    199 H199       -3.4498  -24.6283  -43.3552 H         1 UNK         0.0600 
    200 H200       -2.2716  -25.0738  -45.7360 H         1 UNK         0.3000 
    201 H201       -2.0492  -27.8938  -46.2050 H         1 UNK         0.0600 
    202 H202       -0.1091  -26.4631  -45.6035 H         1 UNK         0.0600 
    203 H203       -0.2708  -25.5631  -47.1094 H         1 UNK         0.0600 
    204 H204        0.1812  -27.2637  -47.1413 H         1 UNK         0.0600 
    205 H205       -2.6630  -25.1263  -48.2984 H         1 UNK         0.3000 
    206 H206       -3.6765  -24.7889  -50.1690 H         1 UNK         0.0600 
    207 H207       -5.3714  -26.4684  -49.5394 H         1 UNK         0.0600 
    208 H208       -5.1180  -26.4565  -51.2777 H         1 UNK         0.0600 
    209 H209       -4.4317  -27.7489  -50.3037 H         1 UNK         0.0600 
    210 H210       -1.8136  -27.7890  -50.4615 H         1 UNK         0.3000 
    211 H211       -0.3237  -28.6187  -51.8922 H         1 UNK         0.0600 
    212 H212        0.4409  -25.6864  -52.3655 H         1 UNK         0.0600 
    213 H213        1.4816  -27.0837  -52.6065 H         1 UNK         0.0600 
    214 H214        0.9555  -26.6578  -50.9876 H         1 UNK         0.0600 
    215 H215       -2.9670  -27.6106  -53.1096 H         1 UNK         0.3000 
    216 H216       -4.0976  -27.3963  -54.9914 H         1 UNK         0.0600 
    217 H217       -3.1285  -29.6379  -55.5775 H         1 UNK         0.0600 
    218 H218       -1.8087  -28.8385  -56.4304 H         1 UNK         0.0600 
    219 H219       -3.4626  -28.6648  -56.9994 H         1 UNK         0.0600 
    220 H220       -2.2716  -25.2680  -54.1317 H         1 UNK         0.3000 
    221 H221       -1.9483  -23.7542  -56.6920 H         1 UNK         0.0600 
    222 H222        0.1392  -24.0715  -54.4693 H         1 UNK         0.0600 
    223 H223        0.2444  -24.7611  -56.0875 H         1 UNK         0.0600 
    224 H224        0.2898  -23.0175  -55.8723 H         1 UNK         0.0600 
    225 H225       -2.6326  -23.6819  -53.2082 H         1 UNK         0.3000 
    226 H226       -2.4171  -20.8453  -52.9271 H         1 UNK         0.0600 
    227 H227       -2.0935  -22.6657  -51.1275 H         1 UNK         0.0600 
    228 H228       -3.0651  -21.2812  -50.6446 H         1 UNK         0.0600 
    229 H229       -3.8500  -22.7893  -51.0718 H         1 UNK         0.0600 
    230 H230       -4.3797  -21.6187  -55.0314 H         1 UNK         0.3000 
    231 H231       -7.0543  -21.5123  -54.2197 H         1 UNK         0.0600 
    232 H232       -7.4961  -21.0278  -56.6381 H         1 UNK         0.0600 
    233 H233       -6.3067  -22.3046  -56.4410 H         1 UNK         0.0600 
    234 H234       -5.7890  -20.6776  -56.8827 H         1 UNK         0.0600 
    235 H235       -4.8412  -18.8318  -54.5821 H         1 UNK         0.3000 
    236 H236       -6.8484  -16.7357  -54.6996 H         1 UNK         0.0600 
    237 H237       -4.6091  -16.4141  -55.6855 H         1 UNK         0.0600 
    238 H238       -4.8523  -15.2546  -54.3899 H         1 UNK         0.0600 
    239 H239       -3.8396  -16.6671  -54.1205 H         1 UNK         0.0600 
    240 H240       -5.5379  -18.6553  -52.0996 H         1 UNK         0.3000 
    241 H241       -6.5248  -16.7080  -50.0558 H         1 UNK         0.0600 
    242 H242       -7.6662  -20.6187  -49.8473 H         1 UNK         0.3800 
    243 H243       -6.4758  -20.1814  -51.0516 H         1 UNK         0.3800 
    244 H244       -4.0628  -18.5129  -49.8435 H         1 UNK         0.0800 
    245 H245       -4.7646  -17.6310  -48.5113 H         1 UNK         0.0800 
    246 H246       -2.3379  -15.8808  -51.9641 H         1 UNK         0.0800 
    247 H247       -3.0846  -17.4551  -51.9231 H         1 UNK         0.0800 
@<TRIPOS>BOND
     1    1    2 1    
     2    1  127 1    
     3    1  128 1    
     4    1  129 1    
     5    2    3 2    
     6    2    4 am   BACKBONE|DICT|INTERRES
     7    4    5 1    
     8    4  130 1    
     9    5    6 1    
    10    5   65 1    
    11    5  131 1    
    12    6    7 1    
    13    6  132 1    
    14    6  133 1    
    15    7    8 1    
    16    8    9 1    
    17    8  134 1    
    18    8  135 1    
    19    9   10 ar   
    20    9   14 ar   
    21   10   11 ar   
    22   10  136 1    
    23   11   12 ar   
    24   11  126 1    
    25   12   13 ar   
    26   12  137 1    
    27   13   14 ar   
    28   13   15 1    
    29   14  138 1    
    30   15   16 1    
    31   15  139 1    
    32   15  140 1    
    33   16   17 1    
    34   17   18 1    
    35   17  141 1    
    36   17  142 1    
    37   18   19 1    
    38   18   67 1    
    39   18  143 1    
    40   19   20 am   BACKBONE|DICT|INTERRES
    41   19  144 1    
    42   20   21 2    
    43   20   22 1    
    44   22   23 1    
    45   22   24 1    
    46   22  145 1    
    47   23  146 1    
    48   23  147 1    
    49   23  148 1    
    50   24   25 am   BACKBONE|DICT|INTERRES
    51   24  149 1    
    52   25   26 2    
    53   25   27 1    
    54   27   28 1    
    55   27   29 1    
    56   27  150 1    
    57   28  151 1    
    58   28  152 1    
    59   28  153 1    
    60   29   30 am   BACKBONE|DICT|INTERRES
    61   29  154 1    
    62   30   31 2    
    63   30   32 1    
    64   32   33 1    
    65   32   34 1    
    66   32  155 1    
    67   33  156 1    
    68   33  157 1    
    69   33  158 1    
    70   34   35 am   BACKBONE|DICT|INTERRES
    71   34  159 1    
    72   35   36 2    
    73   35   37 1    
    74   37   38 1    
    75   37   39 1    
    76   37  160 1    
    77   38  161 1    
    78   38  162 1    
    79   38  163 1    
    80   39   40 am   BACKBONE|DICT|INTERRES
    81   39  164 1    
    82   40   41 2    
    83   40   42 1    
    84   42   43 1    
    85   42   44 1    
    86   42  165 1    
    87   43  166 1    
    88   43  167 1    
    89   43  168 1    
    90   44   45 am   BACKBONE|DICT|INTERRES
    91   44  169 1    
    92   45   46 2    
    93   45   47 1    
    94   47   48 1    
    95   47   49 1    
    96   47  170 1    
    97   48  171 1    
    98   48  172 1    
    99   48  173 1    
   100   49   50 am   BACKBONE|DICT|INTERRES
   101   49  174 1    
   102   50   51 2    
   103   50   52 1    
   104   52   53 1    
   105   52   54 1    
   106   52  175 1    
   107   53  176 1    
   108   53  177 1    
   109   53  178 1    
   110   54   55 am   BACKBONE|DICT|INTERRES
   111   54  179 1    
   112   55   56 2    
   113   55   57 1    
   114   57   58 1    
   115   57   59 1    
   116   57  180 1    
   117   58  181 1    
   118   58  182 1    
   119   58  183 1    
   120   59   60 am   BACKBONE|DICT|INTERRES
   121   59  184 1    
   122   60   61 2    
   123   60   62 1    
   124   62   63 1    
   125   62   64 1    
   126   62  185 1    
   127   63  186 1    
   128   63  187 1    
   129   63  188 1    
   130   64   65 am   BACKBONE|DICT|INTERRES
   131   64  189 1    
   132   65   66 2    
   133   67   68 2    
   134   67   69 am   BACKBONE|DICT|INTERRES
   135   69   70 1    
   136   69  190 1    
   137   70   71 1    
   138   70   72 1    
   139   70  191 1    
   140   71  192 1    
   141   71  193 1    
   142   71  194 1    
   143   72   73 2    
   144   72   74 am   BACKBONE|DICT|INTERRES
   145   74   75 1    
   146   74  195 1    
   147   75   76 1    
   148   75   77 1    
   149   75  196 1    
   150   76  197 1    
   151   76  198 1    
   152   76  199 1    
   153   77   78 2    
   154   77   79 am   BACKBONE|DICT|INTERRES
   155   79   80 1    
   156   79  200 1    
   157   80   81 1    
   158   80   82 1    
   159   80  201 1    
   160   81  202 1    
   161   81  203 1    
   162   81  204 1    
   163   82   83 2    
   164   82   84 am   BACKBONE|DICT|INTERRES
   165   84   85 1    
   166   84  205 1    
   167   85   86 1    
   168   85   87 1    
   169   85  206 1    
   170   86  207 1    
   171   86  208 1    
   172   86  209 1    
   173   87   88 2    
   174   87   89 am   BACKBONE|DICT|INTERRES
   175   89   90 1    
   176   89  210 1    
   177   90   91 1    
   178   90   92 1    
   179   90  211 1    
   180   91  212 1    
   181   91  213 1    
   182   91  214 1    
   183   92   93 2    
   184   92   94 am   BACKBONE|DICT|INTERRES
   185   94   95 1    
   186   94  215 1    
   187   95   96 1    
   188   95   97 1    
   189   95  216 1    
   190   96  217 1    
   191   96  218 1    
   192   96  219 1    
   193   97   98 2    
   194   97   99 am   BACKBONE|DICT|INTERRES
   195   99  100 1    
   196   99  220 1    
   197  100  101 1    
   198  100  102 1    
   199  100  221 1    
   200  101  222 1    
   201  101  223 1    
   202  101  224 1    
   203  102  103 2    
   204  102  104 am   BACKBONE|DICT|INTERRES
   205  104  105 1    
   206  104  225 1    
   207  105  106 1    
   208  105  107 1    
   209  105  226 1    
   210  106  227 1    
   211  106  228 1    
   212  106  229 1    
   213  107  108 2    
   214  107  109 am   BACKBONE|DICT|INTERRES
   215  109  110 1    
   216  109  230 1    
   217  110  111 1    
   218  110  112 1    
   219  110  231 1    
   220  111  232 1    
   221  111  233 1    
   222  111  234 1    
   223  112  113 2    
   224  112  114 am   BACKBONE|DICT|INTERRES
   225  114  115 1    
   226  114  235 1    
   227  115  116 1    
   228  115  117 1    
   229  115  236 1    
   230  116  237 1    
   231  116  238 1    
   232  116  239 1    
   233  117  118 2    
   234  117  119 am   BACKBONE|DICT|INTERRES
   235  119  120 1    
   236  119  240 1    
   237  120  121 1    
   238  120  124 1    
   239  120  241 1    
   240  121  122 am   BACKBONE|DICT|INTERRES
   241  121  123 2    
   242  122  242 1    
   243  122  243 1    
   244  124  125 1    
   245  124  244 1    
   246  124  245 1    
   247  125  126 1    
   248  126  246 1    
   249  126  247 1    
@<TRIPOS>SUBSTRUCTURE
     1 UNK         1 GROUP             0       ****    0 ROOT    
