@<TRIPOS>MOLECULE
3R540
247   249    1
SMALL
USER_CHARGES


@<TRIPOS>ATOM
      1 CA         -2.9773  -12.6257  -43.4679 C.3       0 UNK        -0.1800 
      2 C          -2.2784  -13.8662  -44.0198 C.2       0 UNK         0.5000 
      3 O          -1.7905  -14.6790  -43.2384 O.2       0 UNK        -0.5000 
      4 N          -2.2093  -14.0683  -45.3427 N.am      1 UNK        -0.5000 
      5 CA         -2.7992  -13.2346  -46.3976 C.3       1 UNK         0.1400 
      6 C6         -3.1617  -14.0716  -47.6502 C.3       23 UNK        -0.0398 
      7 S7         -1.7536  -14.9695  -48.4004 S.3       23 UNK        -0.2404 
      8 C8         -2.3698  -16.6789  -48.3698 C.3       23 UNK        -0.0205 
      9 C9         -1.4876  -17.5978  -49.1993 C.ar      23 UNK        -0.0193 
     10 C10        -1.8134  -17.8604  -50.5320 C.ar      23 UNK        -0.1150 
     11 C11        -1.0220  -18.7147  -51.3034 C.ar      23 UNK        -0.0193 
     12 C12         0.1105  -19.3040  -50.7329 C.ar      23 UNK        -0.1150 
     13 C13         0.4534  -19.0432  -49.4021 C.ar      23 UNK        -0.0193 
     14 C14        -0.3520  -18.1904  -48.6398 C.ar      23 UNK        -0.1150 
     15 C15         1.7006  -19.6699  -48.7904 C.3       23 UNK        -0.0205 
     16 S16         1.6114  -21.4877  -48.6987 S.3       23 UNK        -0.2404 
     17 C17         0.1579  -21.7235  -47.6281 C.3       23 UNK        -0.0398 
     18 CA         -0.1613  -23.2229  -47.4202 C.3       11 UNK         0.1400 
     19 N           0.8421  -23.9109  -46.6017 N.am      11 UNK        -0.5000 
     20 C           0.9118  -25.2401  -46.4374 C.2       10 UNK         0.5000 
     21 O           0.1503  -26.0384  -46.9808 O.2       10 UNK        -0.5000 
     22 CA          1.9790  -25.7610  -45.4584 C.3       10 UNK         0.1400 
     23 CB          3.3583  -25.8070  -46.1325 C.3       10 UNK        -0.1800 
     24 N           2.0588  -24.9540  -44.2408 N.am      10 UNK        -0.5000 
     25 C           1.0715  -24.8314  -43.3415 C.2       9 UNK         0.5000 
     26 O           0.0035  -25.4371  -43.4109 O.2       9 UNK        -0.5000 
     27 CA          1.2936  -23.8153  -42.2059 C.3       9 UNK         0.1400 
     28 CB          1.9916  -24.4826  -41.0119 C.3       9 UNK        -0.1800 
     29 N           2.0660  -22.6446  -42.6315 N.am      9 UNK        -0.5000 
     30 C           1.6697  -21.7756  -43.5704 C.2       8 UNK         0.5000 
     31 O           0.6012  -21.8661  -44.1815 O.2       8 UNK        -0.5000 
     32 CA          2.6761  -20.6715  -43.9386 C.3       8 UNK         0.1400 
     33 CB          3.5997  -21.1570  -45.0671 C.3       8 UNK        -0.1800 
     34 N           2.0182  -19.4392  -44.3684 N.am      8 UNK        -0.5000 
     35 C           1.3008  -18.6417  -43.5687 C.2       7 UNK         0.5000 
     36 O           1.1202  -18.8535  -42.3663 O.2       7 UNK        -0.5000 
     37 CA          0.6702  -17.4045  -44.2376 C.3       7 UNK         0.1400 
     38 CB         -0.7487  -17.7321  -44.7280 C.3       7 UNK        -0.1800 
     39 N           0.6064  -16.2573  -43.3314 N.am      7 UNK        -0.5000 
     40 C           1.6642  -15.6394  -42.7942 C.2       6 UNK         0.5000 
     41 O           2.8348  -15.8953  -43.0906 O.2       6 UNK        -0.5000 
     42 CA          1.3616  -14.5865  -41.7141 C.3       6 UNK         0.1400 
     43 CB          1.3461  -15.2384  -40.3226 C.3       6 UNK        -0.1800 
     44 N           2.3750  -13.5353  -41.7318 N.am      6 UNK        -0.5000 
     45 C           2.3064  -12.4457  -42.5007 C.2       5 UNK         0.5000 
     46 O           1.3302  -12.1563  -43.2009 O.2       5 UNK        -0.5000 
     47 CA          3.5416  -11.5333  -42.4935 C.3       5 UNK         0.1400 
     48 CB          4.6453  -12.0825  -43.4131 C.3       5 UNK        -0.1800 
     49 N           3.1302  -10.2191  -42.9613 N.am      5 UNK        -0.5000 
     50 C           3.6097   -9.0377  -42.5587 C.2       4 UNK         0.5000 
     51 O           4.5631   -8.9114  -41.7893 O.2       4 UNK        -0.5000 
     52 CA          2.8930   -7.7823  -43.1007 C.3       4 UNK         0.1400 
     53 CB          3.7228   -7.1275  -44.2156 C.3       4 UNK        -0.1800 
     54 N           1.5578   -8.0820  -43.6234 N.am      4 UNK        -0.5000 
     55 C           0.4861   -8.3919  -42.8845 C.2       3 UNK         0.5000 
     56 O           0.4620   -8.3138  -41.6559 O.2       3 UNK        -0.5000 
     57 CA         -0.7446   -8.9385  -43.6331 C.3       3 UNK         0.1400 
     58 CB         -1.6269   -7.7998  -44.1779 C.3       3 UNK        -0.1800 
     59 N          -0.4249   -9.9265  -44.6759 N.am      3 UNK        -0.5000 
     60 C           0.1902   -9.7556  -45.8564 C.2       2 UNK         0.5000 
     61 O           0.6483   -8.6796  -46.2420 O.2       2 UNK        -0.5000 
     62 CA          0.3376  -10.9994  -46.7546 C.3       2 UNK         0.1400 
     63 CB          1.7638  -11.5672  -46.6791 C.3       2 UNK        -0.1800 
     64 N          -0.6249  -12.0610  -46.4445 N.am      2 UNK        -0.5000 
     65 C          -1.9255  -12.0165  -46.7708 C.2       1 UNK         0.5000 
     66 O          -2.4492  -11.0579  -47.3394 O.2       1 UNK        -0.5000 
     67 C          -1.5750  -23.3973  -46.8398 C.2       11 UNK         0.5000 
     68 O          -2.5092  -23.6558  -47.5997 O.2       11 UNK        -0.5000 
     69 N          -1.6984  -23.2873  -45.5098 N.am      12 UNK        -0.5000 
     70 CA         -2.9429  -23.5103  -44.7757 C.3       12 UNK         0.1400 
     71 CB         -2.7571  -23.0909  -43.3097 C.3       12 UNK        -0.1800 
     72 C          -3.4384  -24.9653  -44.8810 C.2       12 UNK         0.5000 
     73 O          -4.6227  -25.1819  -45.1376 O.2       12 UNK        -0.5000 
     74 N          -2.5218  -25.9303  -44.7177 N.am      13 UNK        -0.5000 
     75 CA         -2.7913  -27.3659  -44.8214 C.3       13 UNK         0.1400 
     76 CB         -1.5698  -28.1548  -44.3255 C.3       13 UNK        -0.1800 
     77 C          -3.1793  -27.8082  -46.2440 C.2       13 UNK         0.5000 
     78 O          -4.1021  -28.6090  -46.3993 O.2       13 UNK        -0.5000 
     79 N          -2.4828  -27.2711  -47.2550 N.am      14 UNK        -0.5000 
     80 CA         -2.7425  -27.5368  -48.6720 C.3       14 UNK         0.1400 
     81 CB         -1.5116  -27.1159  -49.4909 C.3       14 UNK        -0.1800 
     82 C          -3.9968  -26.8246  -49.2136 C.2       14 UNK         0.5000 
     83 O          -4.4862  -27.2082  -50.2765 O.2       14 UNK        -0.5000 
     84 N          -4.4629  -25.7877  -48.5000 N.am      15 UNK        -0.5000 
     85 CA         -5.4904  -24.8217  -48.9019 C.3       15 UNK         0.1400 
     86 CB         -6.8719  -25.4923  -49.0451 C.3       15 UNK        -0.1800 
     87 C          -5.0579  -24.0362  -50.1571 C.2       15 UNK         0.5000 
     88 O          -5.8523  -23.8293  -51.0772 O.2       15 UNK        -0.5000 
     89 N          -3.7843  -23.6157  -50.1673 N.am      16 UNK        -0.5000 
     90 CA         -3.1063  -22.9670  -51.2912 C.3       16 UNK         0.1400 
     91 CB         -1.6351  -22.7254  -50.9268 C.3       16 UNK        -0.1800 
     92 C          -3.7660  -21.6524  -51.7346 C.2       16 UNK         0.5000 
     93 O          -3.7573  -21.3486  -52.9267 O.2       16 UNK        -0.5000 
     94 N          -4.3465  -20.9210  -50.7742 N.am      17 UNK        -0.5000 
     95 CA         -5.0908  -19.6820  -50.9931 C.3       17 UNK         0.1400 
     96 CB         -5.3365  -19.0058  -49.6363 C.3       17 UNK        -0.1800 
     97 C          -6.4216  -19.9002  -51.7362 C.2       17 UNK         0.5000 
     98 O          -6.8178  -19.0441  -52.5268 O.2       17 UNK        -0.5000 
     99 N          -7.0786  -21.0403  -51.4810 N.am      18 UNK        -0.5000 
    100 CA        -8.3214  -21.4396  -52.1420 C.3       18 UNK         0.1400 
    101 CB        -9.0857  -22.4271  -51.2464 C.3       18 UNK        -0.1800 
    102 C         -8.0457  -22.0548  -53.5236 C.2       18 UNK         0.5000 
    103 O         -8.7842  -21.7843  -54.4711 O.2       18 UNK        -0.5000 
    104 N         -6.9735  -22.8536  -53.6148 N.am      19 UNK        -0.5000 
    105 CA        -6.5016  -23.4822  -54.8492 C.3       19 UNK         0.1400 
    106 CB        -5.4936  -24.5826  -54.4820 C.3       19 UNK        -0.1800 
    107 C         -5.8633  -22.4893  -55.8416 C.2       19 UNK         0.5000 
    108 O         -5.8032  -22.7900  -57.0341 O.2       19 UNK        -0.5000 
    109 N         -5.3750  -21.3505  -55.3253 N.am      20 UNK        -0.5000 
    110 CA        -4.5664  -20.3300  -56.0028 C.3       20 UNK         0.1400 
    111 CB        -5.3667  -19.6277  -57.1186 C.3       20 UNK        -0.1800 
    112 C         -3.2115  -20.8942  -56.4820 C.2       20 UNK         0.5000 
    113 O         -2.7144  -20.5182  -57.5456 O.2       20 UNK        -0.5000 
    114 N         -2.6352  -21.7962  -55.6737 N.am      21 UNK        -0.5000 
    115 CA        -1.4286  -22.5726  -55.9795 C.3       21 UNK         0.1400 
    116 CB        -1.2524  -23.6535  -54.9023 C.3       21 UNK        -0.1800 
    117 C         -0.1499  -21.7220  -56.1115 C.2       21 UNK         0.5000 
    118 O          0.8034  -22.1475  -56.7646 O.2       21 UNK        -0.5000 
    119 N         -0.1663  -20.5341  -55.5005 N.am      22 UNK        -0.5000 
    120 CA         0.8643  -19.4936  -55.6037 C.3       22 UNK         0.1400 
    121 C          0.7916  -18.6439  -56.9092 C.2       22 UNK         0.5000 
    122 N         -0.2125  -18.8046  -57.7653 N.am      22 UNK        -0.7600 
    123 O          1.6777  -17.8317  -57.1606 O.2       22 UNK        -0.5000 
    124 C124        0.8981  -18.6153  -54.3236 C.3       23 UNK        -0.0398 
    125 S125       -0.7065  -17.8325  -53.9238 S.3       23 UNK        -0.2404 
    126 C126       -1.4175  -19.0179  -52.7395 C.3       23 UNK        -0.0205 
    127 H127       -2.6914  -11.7225  -44.0042 H         1 UNK         0.0600 
    128 H128       -2.7159  -12.4798  -42.4196 H         1 UNK         0.0600 
    129 H129       -4.0591  -12.7422  -43.5310 H         1 UNK         0.0600 
    130 H130       -1.7328  -14.8913  -45.6800 H         1 UNK         0.3000 
    131 H131       -3.7398  -12.8276  -46.0215 H         1 UNK         0.0600 
    132 H132       -3.6096  -13.4373  -48.4175 H         1 UNK         0.0800 
    133 H133       -3.9413  -14.7852  -47.3805 H         1 UNK         0.0800 
    134 H134       -2.4259  -17.0359  -47.3411 H         1 UNK         0.0800 
    135 H135       -3.3889  -16.6973  -48.7584 H         1 UNK         0.0800 
    136 H136       -2.6876  -17.3996  -50.9697 H         1 UNK         0.1150 
    137 H137        0.7246  -19.9733  -51.3180 H         1 UNK         0.1150 
    138 H138       -0.0924  -17.9781  -47.6134 H         1 UNK         0.1150 
    139 H139        1.8857  -19.2734  -47.7915 H         1 UNK         0.0800 
    140 H140        2.5660  -19.3918  -49.3934 H         1 UNK         0.0800 
    141 H141       -0.6859  -21.2111  -48.0925 H         1 UNK         0.0800 
    142 H142        0.3287  -21.2190  -46.6769 H         1 UNK         0.0800 
    143 H143       -0.1663  -23.7067  -48.3992 H         1 UNK         0.0600 
    144 H144        1.4783  -23.3230  -46.0858 H         1 UNK         0.3000 
    145 H145        1.7023  -26.7782  -45.1728 H         1 UNK         0.0600 
    146 H146        3.3290  -26.4148  -47.0379 H         1 UNK         0.0600 
    147 H147        4.1055  -26.2466  -45.4716 H         1 UNK         0.0600 
    148 H148        3.7040  -24.8121  -46.4161 H         1 UNK         0.0600 
    149 H149        2.9052  -24.4237  -44.0990 H         1 UNK         0.3000 
    150 H150        0.3123  -23.4668  -41.8775 H         1 UNK         0.0600 
    151 H151        2.9928  -24.8292  -41.2711 H         1 UNK         0.0600 
    152 H152        1.4251  -25.3470  -40.6627 H         1 UNK         0.0600 
    153 H153        2.0809  -23.7938  -40.1717 H         1 UNK         0.0600 
    154 H154        2.9599  -22.5088  -42.1814 H         1 UNK         0.3000 
    155 H155        3.2845  -20.4433  -43.0608 H         1 UNK         0.0600 
    156 H156        3.0418  -21.3875  -45.9750 H         1 UNK         0.0600 
    157 H157        4.1381  -22.0595  -44.7752 H         1 UNK         0.0600 
    158 H158        4.3471  -20.4036  -45.3167 H         1 UNK         0.0600 
    159 H159        2.1016  -19.2075  -45.3459 H         1 UNK         0.3000 
    160 H160        1.2809  -17.1196  -45.0968 H         1 UNK         0.0600 
    161 H161       -1.4180  -17.9539  -43.8957 H         1 UNK         0.0600 
    162 H162       -0.7495  -18.6019  -45.3863 H         1 UNK         0.0600 
    163 H163       -1.1734  -16.8984  -45.2850 H         1 UNK         0.0600 
    164 H164       -0.3227  -15.9396  -43.0704 H         1 UNK         0.3000 
    165 H165        0.3785  -14.1501  -41.8977 H         1 UNK         0.0600 
    166 H166        0.5852  -16.0181  -40.2668 H         1 UNK         0.0600 
    167 H167        2.3051  -15.6987  -40.0813 H         1 UNK         0.0600 
    168 H168        1.1191  -14.5069  -39.5468 H         1 UNK         0.0600 
    169 H169        3.2292  -13.7329  -41.2310 H         1 UNK         0.3000 
    170 H170        3.9135  -11.4622  -41.4691 H         1 UNK         0.0600 
    171 H171        4.3018  -12.1690  -44.4447 H         1 UNK         0.0600 
    172 H172        4.9694  -13.0726  -43.0904 H         1 UNK         0.0600 
    173 H173        5.5223  -11.4350  -43.4059 H         1 UNK         0.0600 
    174 H174        2.3005  -10.2346  -43.5396 H         1 UNK         0.3000 
    175 H175        2.7953   -7.0721  -42.2772 H         1 UNK         0.0600 
    176 H176        4.7201   -6.8659  -43.8593 H         1 UNK         0.0600 
    177 H177        3.8428   -7.7938  -45.0710 H         1 UNK         0.0600 
    178 H178        3.2532   -6.2093  -44.5688 H         1 UNK         0.0600 
    179 H179        1.4629   -8.1625  -44.6328 H         1 UNK         0.3000 
    180 H180       -1.3381   -9.4811  -42.8954 H         1 UNK         0.0600 
    181 H181       -1.0971   -7.1803  -44.9018 H         1 UNK         0.0600 
    182 H182       -1.9554   -7.1445  -43.3703 H         1 UNK         0.0600 
    183 H183       -2.5210   -8.1924  -44.6625 H         1 UNK         0.0600 
    184 H184       -0.6642  -10.8787  -44.4389 H         1 UNK         0.3000 
    185 H185        0.1662  -10.6716  -47.7822 H         1 UNK         0.0600 
    186 H186        2.5051  -10.7986  -46.9021 H         1 UNK         0.0600 
    187 H187        1.9927  -11.9656  -45.6921 H         1 UNK         0.0600 
    188 H188        1.9040  -12.3706  -47.4025 H         1 UNK         0.0600 
    189 H189       -0.2694  -12.8799  -45.9722 H         1 UNK         0.3000 
    190 H190       -0.8824  -23.0284  -44.9644 H         1 UNK         0.3000 
    191 H191       -3.7070  -22.8664  -45.2163 H         1 UNK         0.0600 
    192 H192       -2.4428  -22.0496  -43.2341 H         1 UNK         0.0600 
    193 H193       -3.6908  -23.1914  -42.7551 H         1 UNK         0.0600 
    194 H194       -2.0095  -23.7025  -42.8052 H         1 UNK         0.0600 
    195 H195       -1.5751  -25.6680  -44.4558 H         1 UNK         0.3000 
    196 H196       -3.6316  -27.5957  -44.1631 H         1 UNK         0.0600 
    197 H197       -1.7457  -29.2295  -44.3865 H         1 UNK         0.0600 
    198 H198       -1.3466  -27.9208  -43.2844 H         1 UNK         0.0600 
    199 H199       -0.6805  -27.9320  -44.9161 H         1 UNK         0.0600 
    200 H200       -1.6918  -26.6678  -47.0460 H         1 UNK         0.3000 
    201 H201       -2.8895  -28.6108  -48.8034 H         1 UNK         0.0600 
    202 H202       -1.6529  -27.3277  -50.5515 H         1 UNK         0.0600 
    203 H203       -0.6202  -27.6544  -49.1689 H         1 UNK         0.0600 
    204 H204       -1.3122  -26.0477  -49.3932 H         1 UNK         0.0600 
    205 H205       -3.9599  -25.5497  -47.6551 H         1 UNK         0.3000 
    206 H206       -5.5580  -24.0947  -48.0913 H         1 UNK         0.0600 
    207 H207       -7.1290  -26.0583  -48.1497 H         1 UNK         0.0600 
    208 H208       -7.6521  -24.7450  -49.1916 H         1 UNK         0.0600 
    209 H209       -6.9100  -26.1729  -49.8959 H         1 UNK         0.0600 
    210 H210       -3.2292  -23.7760  -49.3302 H         1 UNK         0.3000 
    211 H211       -3.1406  -23.6552  -52.1372 H         1 UNK         0.0600 
    212 H212       -1.0941  -22.2550  -51.7480 H         1 UNK         0.0600 
    213 H213       -1.1257  -23.6609  -50.6960 H         1 UNK         0.0600 
    214 H214       -1.5442  -22.0669  -50.0642 H         1 UNK         0.0600 
    215 H215       -4.2932  -21.2580  -49.8246 H         1 UNK         0.3000 
    216 H216       -4.4774  -19.0166  -51.6017 H         1 UNK         0.0600 
    217 H217       -4.4020  -18.8531  -49.0975 H         1 UNK         0.0600 
    218 H218       -5.9919  -19.6030  -49.0009 H         1 UNK         0.0600 
    219 H219       -5.8039  -18.0289  -49.7660 H         1 UNK         0.0600 
    220 H220       -6.6537  -21.7234  -50.8692 H         1 UNK         0.3000 
    221 H221       -8.9499  -20.5575  -52.2830 H         1 UNK         0.0600 
    222 H222       -8.5247  -23.3480  -51.0861 H         1 UNK         0.0600 
    223 H223       -9.3003  -21.9905  -50.2709 H         1 UNK         0.0600 
    224 H224      -10.0402  -22.7009  -51.6974 H         1 UNK         0.0600 
    225 H225       -6.4635  -23.0779  -52.7650 H         1 UNK         0.3000 
    226 H226       -7.3547  -23.9481  -55.3466 H         1 UNK         0.0600 
    227 H227       -5.9406  -25.3230  -53.8181 H         1 UNK         0.0600 
    228 H228       -5.1460  -25.1094  -55.3716 H         1 UNK         0.0600 
    229 H229       -4.6175  -24.1710  -53.9809 H         1 UNK         0.0600 
    230 H230       -5.4243  -21.2483  -54.3195 H         1 UNK         0.3000 
    231 H231       -4.3306  -19.5803  -55.2459 H         1 UNK         0.0600 
    232 H232       -5.5756  -20.2966  -57.9537 H         1 UNK         0.0600 
    233 H233       -4.8145  -18.7751  -57.5153 H         1 UNK         0.0600 
    234 H234       -6.3182  -19.2515  -56.7428 H         1 UNK         0.0600 
    235 H235       -3.0866  -21.9795  -54.7846 H         1 UNK         0.3000 
    236 H236       -1.5887  -23.0683  -56.9391 H         1 UNK         0.0600 
    237 H237       -1.1000  -23.2149  -53.9167 H         1 UNK         0.0600 
    238 H238       -2.1241  -24.3061  -54.8498 H         1 UNK         0.0600 
    239 H239       -0.3886  -24.2836  -55.1180 H         1 UNK         0.0600 
    240 H240       -1.0110  -20.2624  -55.0216 H         1 UNK         0.3000 
    241 H241        1.8298  -20.0003  -55.6552 H         1 UNK         0.0600 
    242 H242       -0.2337  -18.2492  -58.6057 H         1 UNK         0.3800 
    243 H243       -0.9592  -19.4676  -57.5902 H         1 UNK         0.3800 
    244 H244        1.2224  -19.2207  -53.4778 H         1 UNK         0.0800 
    245 H245        1.6501  -17.8299  -54.4162 H         1 UNK         0.0800 
    246 H246       -2.5018  -18.9729  -52.8369 H         1 UNK         0.0800 
    247 H247       -1.1377  -20.0396  -52.9955 H         1 UNK         0.0800 
@<TRIPOS>BOND
     1    1    2 1    
     2    1  127 1    
     3    1  128 1    
     4    1  129 1    
     5    2    3 2    
     6    2    4 am   BACKBONE|DICT|INTERRES
     7    4    5 1    
     8    4  130 1    
     9    5    6 1    
    10    5   65 1    
    11    5  131 1    
    12    6    7 1    
    13    6  132 1    
    14    6  133 1    
    15    7    8 1    
    16    8    9 1    
    17    8  134 1    
    18    8  135 1    
    19    9   10 ar   
    20    9   14 ar   
    21   10   11 ar   
    22   10  136 1    
    23   11   12 ar   
    24   11  126 1    
    25   12   13 ar   
    26   12  137 1    
    27   13   14 ar   
    28   13   15 1    
    29   14  138 1    
    30   15   16 1    
    31   15  139 1    
    32   15  140 1    
    33   16   17 1    
    34   17   18 1    
    35   17  141 1    
    36   17  142 1    
    37   18   19 1    
    38   18   67 1    
    39   18  143 1    
    40   19   20 am   BACKBONE|DICT|INTERRES
    41   19  144 1    
    42   20   21 2    
    43   20   22 1    
    44   22   23 1    
    45   22   24 1    
    46   22  145 1    
    47   23  146 1    
    48   23  147 1    
    49   23  148 1    
    50   24   25 am   BACKBONE|DICT|INTERRES
    51   24  149 1    
    52   25   26 2    
    53   25   27 1    
    54   27   28 1    
    55   27   29 1    
    56   27  150 1    
    57   28  151 1    
    58   28  152 1    
    59   28  153 1    
    60   29   30 am   BACKBONE|DICT|INTERRES
    61   29  154 1    
    62   30   31 2    
    63   30   32 1    
    64   32   33 1    
    65   32   34 1    
    66   32  155 1    
    67   33  156 1    
    68   33  157 1    
    69   33  158 1    
    70   34   35 am   BACKBONE|DICT|INTERRES
    71   34  159 1    
    72   35   36 2    
    73   35   37 1    
    74   37   38 1    
    75   37   39 1    
    76   37  160 1    
    77   38  161 1    
    78   38  162 1    
    79   38  163 1    
    80   39   40 am   BACKBONE|DICT|INTERRES
    81   39  164 1    
    82   40   41 2    
    83   40   42 1    
    84   42   43 1    
    85   42   44 1    
    86   42  165 1    
    87   43  166 1    
    88   43  167 1    
    89   43  168 1    
    90   44   45 am   BACKBONE|DICT|INTERRES
    91   44  169 1    
    92   45   46 2    
    93   45   47 1    
    94   47   48 1    
    95   47   49 1    
    96   47  170 1    
    97   48  171 1    
    98   48  172 1    
    99   48  173 1    
   100   49   50 am   BACKBONE|DICT|INTERRES
   101   49  174 1    
   102   50   51 2    
   103   50   52 1    
   104   52   53 1    
   105   52   54 1    
   106   52  175 1    
   107   53  176 1    
   108   53  177 1    
   109   53  178 1    
   110   54   55 am   BACKBONE|DICT|INTERRES
   111   54  179 1    
   112   55   56 2    
   113   55   57 1    
   114   57   58 1    
   115   57   59 1    
   116   57  180 1    
   117   58  181 1    
   118   58  182 1    
   119   58  183 1    
   120   59   60 am   BACKBONE|DICT|INTERRES
   121   59  184 1    
   122   60   61 2    
   123   60   62 1    
   124   62   63 1    
   125   62   64 1    
   126   62  185 1    
   127   63  186 1    
   128   63  187 1    
   129   63  188 1    
   130   64   65 am   BACKBONE|DICT|INTERRES
   131   64  189 1    
   132   65   66 2    
   133   67   68 2    
   134   67   69 am   BACKBONE|DICT|INTERRES
   135   69   70 1    
   136   69  190 1    
   137   70   71 1    
   138   70   72 1    
   139   70  191 1    
   140   71  192 1    
   141   71  193 1    
   142   71  194 1    
   143   72   73 2    
   144   72   74 am   BACKBONE|DICT|INTERRES
   145   74   75 1    
   146   74  195 1    
   147   75   76 1    
   148   75   77 1    
   149   75  196 1    
   150   76  197 1    
   151   76  198 1    
   152   76  199 1    
   153   77   78 2    
   154   77   79 am   BACKBONE|DICT|INTERRES
   155   79   80 1    
   156   79  200 1    
   157   80   81 1    
   158   80   82 1    
   159   80  201 1    
   160   81  202 1    
   161   81  203 1    
   162   81  204 1    
   163   82   83 2    
   164   82   84 am   BACKBONE|DICT|INTERRES
   165   84   85 1    
   166   84  205 1    
   167   85   86 1    
   168   85   87 1    
   169   85  206 1    
   170   86  207 1    
   171   86  208 1    
   172   86  209 1    
   173   87   88 2    
   174   87   89 am   BACKBONE|DICT|INTERRES
   175   89   90 1    
   176   89  210 1    
   177   90   91 1    
   178   90   92 1    
   179   90  211 1    
   180   91  212 1    
   181   91  213 1    
   182   91  214 1    
   183   92   93 2    
   184   92   94 am   BACKBONE|DICT|INTERRES
   185   94   95 1    
   186   94  215 1    
   187   95   96 1    
   188   95   97 1    
   189   95  216 1    
   190   96  217 1    
   191   96  218 1    
   192   96  219 1    
   193   97   98 2    
   194   97   99 am   BACKBONE|DICT|INTERRES
   195   99  100 1    
   196   99  220 1    
   197  100  101 1    
   198  100  102 1    
   199  100  221 1    
   200  101  222 1    
   201  101  223 1    
   202  101  224 1    
   203  102  103 2    
   204  102  104 am   BACKBONE|DICT|INTERRES
   205  104  105 1    
   206  104  225 1    
   207  105  106 1    
   208  105  107 1    
   209  105  226 1    
   210  106  227 1    
   211  106  228 1    
   212  106  229 1    
   213  107  108 2    
   214  107  109 am   BACKBONE|DICT|INTERRES
   215  109  110 1    
   216  109  230 1    
   217  110  111 1    
   218  110  112 1    
   219  110  231 1    
   220  111  232 1    
   221  111  233 1    
   222  111  234 1    
   223  112  113 2    
   224  112  114 am   BACKBONE|DICT|INTERRES
   225  114  115 1    
   226  114  235 1    
   227  115  116 1    
   228  115  117 1    
   229  115  236 1    
   230  116  237 1    
   231  116  238 1    
   232  116  239 1    
   233  117  118 2    
   234  117  119 am   BACKBONE|DICT|INTERRES
   235  119  120 1    
   236  119  240 1    
   237  120  121 1    
   238  120  124 1    
   239  120  241 1    
   240  121  122 am   BACKBONE|DICT|INTERRES
   241  121  123 2    
   242  122  242 1    
   243  122  243 1    
   244  124  125 1    
   245  124  244 1    
   246  124  245 1    
   247  125  126 1    
   248  126  246 1    
   249  126  247 1    
@<TRIPOS>SUBSTRUCTURE
     1 UNK         1 GROUP             0       ****    0 ROOT    
