@<TRIPOS>MOLECULE
3R540
247   249    1
SMALL
USER_CHARGES


@<TRIPOS>ATOM
      1 CA          1.6752   -9.5649  -43.8070 C.3       0 UNK        -0.1800 
      2 C           0.9655  -10.3957  -44.8670 C.2       0 UNK         0.5000 
      3 O          -0.2633  -10.3814  -44.9354 O.2       0 UNK        -0.5000 
      4 N           1.7298  -11.1226  -45.6859 N.am      1 UNK        -0.5000 
      5 CA          1.2459  -11.9748  -46.7697 C.3       1 UNK         0.1400 
      6 C6          0.7641  -13.3555  -46.2404 C.3       23 UNK        -0.0398 
      7 S7         -0.4647  -14.1310  -47.3447 S.3       23 UNK        -0.2404 
      8 C8          0.1219  -15.8525  -47.4341 C.3       23 UNK        -0.0205 
      9 C9         -0.6831  -16.6510  -48.4477 C.ar      23 UNK        -0.0193 
     10 C10        -0.0760  -17.1219  -49.6142 C.ar      23 UNK        -0.1150 
     11 C11        -0.8222  -17.8134  -50.5720 C.ar      23 UNK        -0.0193 
     12 C12        -2.1860  -18.0393  -50.3561 C.ar      23 UNK        -0.1150 
     13 C13        -2.8024  -17.5852  -49.1863 C.ar      23 UNK        -0.0193 
     14 C14        -2.0421  -16.9002  -48.2328 C.ar      23 UNK        -0.1150 
     15 C15        -4.2968  -17.7921  -48.9689 C.3       23 UNK        -0.0205 
     16 S16        -4.7351  -19.5199  -48.5874 S.3       23 UNK        -0.2404 
     17 C17        -3.7440  -19.8405  -47.0895 C.3       23 UNK        -0.0398 
     18 CA         -2.5522  -20.7829  -47.3922 C.3       11 UNK         0.1400 
     19 N          -1.3611  -20.4553  -46.6089 N.am      11 UNK        -0.5000 
     20 C          -0.1646  -21.0377  -46.7739 C.2       10 UNK         0.5000 
     21 O           0.0752  -21.8969  -47.6225 O.2       10 UNK        -0.5000 
     22 CA          0.9345  -20.6361  -45.7822 C.3       10 UNK         0.1400 
     23 CB          1.6304  -19.3471  -46.2324 C.3       10 UNK        -0.1800 
     24 N           0.4072  -20.4832  -44.4259 N.am      10 UNK        -0.5000 
     25 C           0.0249  -21.5145  -43.6588 C.2       9 UNK         0.5000 
     26 O           0.1495  -22.6944  -43.9873 O.2       9 UNK        -0.5000 
     27 CA         -0.6573  -21.1669  -42.3241 C.3       9 UNK         0.1400 
     28 CB          0.3865  -20.8658  -41.2385 C.3       9 UNK        -0.1800 
     29 N          -1.5877  -20.0423  -42.4507 N.am      9 UNK        -0.5000 
     30 C          -2.7412  -20.1080  -43.1338 C.2       8 UNK         0.5000 
     31 O          -3.1292  -21.1209  -43.7125 O.2       8 UNK        -0.5000 
     32 CA         -3.6010  -18.8341  -43.2270 C.3       8 UNK         0.1400 
     33 CB         -4.6566  -18.8188  -42.1120 C.3       8 UNK        -0.1800 
     34 N          -2.8402  -17.5871  -43.1829 N.am      8 UNK        -0.5000 
     35 C          -1.8758  -17.2296  -44.0402 C.2       7 UNK         0.5000 
     36 O          -1.4931  -17.9414  -44.9716 O.2       7 UNK        -0.5000 
     37 CA         -1.1959  -15.8648  -43.7988 C.3       7 UNK         0.1400 
     38 CB         -1.8788  -14.9963  -42.7190 C.3       7 UNK        -0.1800 
     39 N           0.2304  -16.0035  -43.4899 N.am      7 UNK        -0.5000 
     40 C           0.7814  -16.7662  -42.5326 C.2       6 UNK         0.5000 
     41 O           0.1457  -17.5293  -41.8036 O.2       6 UNK        -0.5000 
     42 CA          2.3061  -16.6460  -42.3517 C.3       6 UNK         0.1400 
     43 CB          3.0305  -17.7214  -43.1718 C.3       6 UNK        -0.1800 
     44 N           2.8344  -15.3290  -42.7219 N.am      6 UNK        -0.5000 
     45 C           2.6287  -14.2039  -42.0172 C.2       5 UNK         0.5000 
     46 O           1.9571  -14.1667  -40.9855 O.2       5 UNK        -0.5000 
     47 CA          3.2956  -12.9177  -42.5412 C.3       5 UNK         0.1400 
     48 CB          3.5911  -11.8896  -41.4333 C.3       5 UNK        -0.1800 
     49 N           4.5247  -13.2406  -43.2595 N.am      5 UNK        -0.5000 
     50 C           4.9767  -12.6123  -44.3486 C.2       4 UNK         0.5000 
     51 O           4.4621  -11.5959  -44.8135 O.2       4 UNK        -0.5000 
     52 CA          6.1939  -13.2405  -45.0586 C.3       4 UNK         0.1400 
     53 CB          7.0987  -14.0657  -44.1162 C.3       4 UNK        -0.1800 
     54 N           5.8052  -14.0480  -46.2215 N.am      4 UNK        -0.5000 
     55 C           4.9471  -15.0782  -46.2490 C.2       3 UNK         0.5000 
     56 O           4.2945  -15.4632  -45.2756 O.2       3 UNK        -0.5000 
     57 CA          4.7511  -15.7513  -47.6170 C.3       3 UNK         0.1400 
     58 CB          4.1493  -17.1613  -47.4920 C.3       3 UNK        -0.1800 
     59 N           3.8405  -14.9257  -48.3983 N.am      3 UNK        -0.5000 
     60 C           4.1805  -14.1063  -49.4001 C.2       2 UNK         0.5000 
     61 O           5.3177  -14.0171  -49.8633 O.2       2 UNK        -0.5000 
     62 CA          3.0520  -13.2066  -49.9462 C.3       2 UNK         0.1400 
     63 CB          2.3224  -13.9001  -51.1069 C.3       2 UNK        -0.1800 
     64 N           2.0746  -12.8460  -48.9128 N.am      2 UNK        -0.5000 
     65 C           2.3483  -12.0864  -47.8435 C.2       1 UNK         0.5000 
     66 O           3.4268  -11.5085  -47.6891 O.2       1 UNK        -0.5000 
     67 C          -2.9462  -22.2663  -47.2424 C.2       11 UNK         0.5000 
     68 O          -3.1657  -22.9369  -48.2483 O.2       11 UNK        -0.5000 
     69 N          -2.9758  -22.7721  -46.0019 N.am      12 UNK        -0.5000 
     70 CA         -3.2408  -24.1757  -45.6815 C.3       12 UNK         0.1400 
     71 CB         -3.3645  -24.3377  -44.1596 C.3       12 UNK        -0.1800 
     72 C          -2.1875  -25.1447  -46.2448 C.2       12 UNK         0.5000 
     73 O          -2.5439  -26.2500  -46.6528 O.2       12 UNK        -0.5000 
     74 N          -0.9196  -24.7166  -46.2620 N.am      13 UNK        -0.5000 
     75 CA          0.2006  -25.5028  -46.7671 C.3       13 UNK         0.1400 
     76 CB          1.5177  -24.9291  -46.2202 C.3       13 UNK        -0.1800 
     77 C           0.2312  -25.5798  -48.3036 C.2       13 UNK         0.5000 
     78 O           0.3253  -26.6800  -48.8494 O.2       13 UNK        -0.5000 
     79 N           0.1893  -24.4182  -48.9693 N.am      14 UNK        -0.5000 
     80 CA          0.5183  -24.2894  -50.3910 C.3       14 UNK         0.1400 
     81 CB          1.5262  -23.1424  -50.5494 C.3       14 UNK        -0.1800 
     82 C          -0.6995  -24.0870  -51.3107 C.2       14 UNK         0.5000 
     83 O          -0.5824  -24.3646  -52.5050 O.2       14 UNK        -0.5000 
     84 N          -1.8366  -23.6331  -50.7682 N.am      15 UNK        -0.5000 
     85 CA         -3.0827  -23.4033  -51.5116 C.3       15 UNK         0.1400 
     86 CB         -3.4492  -21.9123  -51.4120 C.3       15 UNK        -0.1800 
     87 C          -4.2339  -24.2913  -50.9961 C.2       15 UNK         0.5000 
     88 O          -5.3852  -24.0866  -51.3923 O.2       15 UNK        -0.5000 
     89 N          -3.9233  -25.2210  -50.0767 N.am      16 UNK        -0.5000 
     90 CA         -4.8305  -26.1361  -49.3668 C.3       16 UNK         0.1400 
     91 CB         -5.4227  -27.1606  -50.3564 C.3       16 UNK        -0.1800 
     92 C          -5.9353  -25.4336  -48.5410 C.2       16 UNK         0.5000 
     93 O          -6.9048  -26.0843  -48.1490 O.2       16 UNK        -0.5000 
     94 N          -5.7927  -24.1145  -48.3324 N.am      17 UNK        -0.5000 
     95 CA         -6.7927  -23.1612  -47.8374 C.3       17 UNK         0.1400 
     96 CB         -7.0403  -23.3571  -46.3273 C.3       17 UNK        -0.1800 
     97 C          -8.0977  -23.1568  -48.6696 C.2       17 UNK         0.5000 
     98 O          -9.1616  -22.8379  -48.1352 O.2       17 UNK        -0.5000 
     99 N          -7.9982  -23.5273  -49.9547 N.am      18 UNK        -0.5000 
    100 CA        -9.1363  -23.7554  -50.8442 C.3       18 UNK         0.1400 
    101 CB        -9.3580  -25.2686  -51.0021 C.3       18 UNK        -0.1800 
    102 C         -8.9397  -23.0907  -52.2125 C.2       18 UNK         0.5000 
    103 O         -9.8993  -22.5375  -52.7513 O.2       18 UNK        -0.5000 
    104 N         -7.7143  -23.1402  -52.7551 N.am      19 UNK        -0.5000 
    105 CA        -7.3759  -22.5288  -54.0421 C.3       19 UNK         0.1400 
    106 CB        -6.0909  -23.1723  -54.5865 C.3       19 UNK        -0.1800 
    107 C         -7.2090  -21.0023  -53.9412 C.2       19 UNK         0.5000 
    108 O         -7.4379  -20.3032  -54.9282 O.2       19 UNK        -0.5000 
    109 N         -6.7919  -20.5270  -52.7558 N.am      20 UNK        -0.5000 
    110 CA        -6.4919  -19.1326  -52.3977 C.3       20 UNK         0.1400 
    111 CB        -7.7734  -18.2754  -52.4268 C.3       20 UNK        -0.1800 
    112 C         -5.3390  -18.4992  -53.2120 C.2       20 UNK         0.5000 
    113 O         -5.1806  -17.2778  -53.2043 O.2       20 UNK        -0.5000 
    114 N         -4.5438  -19.3386  -53.8814 N.am      21 UNK        -0.5000 
    115 CA        -3.3865  -18.9919  -54.6896 C.3       21 UNK         0.1400 
    116 CB        -3.8266  -18.6532  -56.1232 C.3       21 UNK        -0.1800 
    117 C         -2.4412  -20.1979  -54.6632 C.2       21 UNK         0.5000 
    118 O         -2.9096  -21.3377  -54.6025 O.2       21 UNK        -0.5000 
    119 N         -1.1373  -19.9179  -54.6892 N.am      22 UNK        -0.5000 
    120 CA        -0.0614  -20.8979  -54.4642 C.3       22 UNK         0.1400 
    121 C          0.6497  -21.3548  -55.7715 C.2       22 UNK         0.5000 
    122 N          0.2186  -20.9229  -56.9506 N.am      22 UNK        -0.7600 
    123 O          1.6044  -22.1254  -55.7208 O.2       22 UNK        -0.5000 
    124 C124        0.9521  -20.3647  -53.4171 C.3       23 UNK        -0.0398 
    125 S125        0.1831  -20.0743  -51.7857 S.3       23 UNK        -0.2404 
    126 C126       -0.1590  -18.2915  -51.8519 C.3       23 UNK        -0.0205 
    127 H127        1.3912   -9.9053  -42.8112 H         1 UNK         0.0600 
    128 H128        1.3967   -8.5156  -43.9029 H         1 UNK         0.0600 
    129 H129        2.7595   -9.6371  -43.8944 H         1 UNK         0.0600 
    130 H130        2.7456  -11.0941  -45.6029 H         1 UNK         0.3000 
    131 H131        0.4082  -11.4584  -47.2439 H         1 UNK         0.0600 
    132 H132        1.6067  -14.0246  -46.0566 H         1 UNK         0.0800 
    133 H133        0.2697  -13.2335  -45.2757 H         1 UNK         0.0800 
    134 H134        0.0418  -16.3241  -46.4565 H         1 UNK         0.0800 
    135 H135        1.1788  -15.8639  -47.6969 H         1 UNK         0.0800 
    136 H136        0.9756  -16.9402  -49.7851 H         1 UNK         0.1150 
    137 H137       -2.7675  -18.5668  -51.0992 H         1 UNK         0.1150 
    138 H138       -2.5106  -16.5349  -47.3299 H         1 UNK         0.1150 
    139 H139       -4.6603  -17.1496  -48.1655 H         1 UNK         0.0800 
    140 H140       -4.8326  -17.4830  -49.8673 H         1 UNK         0.0800 
    141 H141       -4.3953  -20.2419  -46.3108 H         1 UNK         0.0800 
    142 H142       -3.3899  -18.8865  -46.6996 H         1 UNK         0.0800 
    143 H143       -2.2538  -20.6375  -48.4335 H         1 UNK         0.0600 
    144 H144       -1.4515  -19.7187  -45.9169 H         1 UNK         0.3000 
    145 H145        1.6800  -21.4342  -45.7801 H         1 UNK         0.0600 
    146 H146        2.5741  -19.2200  -45.7052 H         1 UNK         0.0600 
    147 H147        1.8634  -19.3754  -47.2981 H         1 UNK         0.0600 
    148 H148        1.0132  -18.4674  -46.0536 H         1 UNK         0.0600 
    149 H149        0.2038  -19.5442  -44.1142 H         1 UNK         0.3000 
    150 H150       -1.2286  -22.0418  -42.0060 H         1 UNK         0.0600 
    151 H151        1.0377  -21.7259  -41.0779 H         1 UNK         0.0600 
    152 H152       -0.0895  -20.6356  -40.2853 H         1 UNK         0.0600 
    153 H153        1.0222  -20.0227  -41.5083 H         1 UNK         0.0600 
    154 H154       -1.3001  -19.1594  -42.0439 H         1 UNK         0.3000 
    155 H155       -4.1218  -18.8632  -44.1856 H         1 UNK         0.0600 
    156 H156       -4.1975  -18.7535  -41.1247 H         1 UNK         0.0600 
    157 H157       -5.2613  -19.7265  -42.1336 H         1 UNK         0.0600 
    158 H158       -5.3374  -17.9746  -42.2234 H         1 UNK         0.0600 
    159 H159       -3.0614  -16.9548  -42.4278 H         1 UNK         0.3000 
    160 H160       -1.2701  -15.3227  -44.7404 H         1 UNK         0.0600 
    161 H161       -1.8243  -15.4501  -41.7287 H         1 UNK         0.0600 
    162 H162       -2.9295  -14.8222  -42.9547 H         1 UNK         0.0600 
    163 H163       -1.4025  -14.0177  -42.6544 H         1 UNK         0.0600 
    164 H164        0.8590  -15.4414  -44.0418 H         1 UNK         0.3000 
    165 H165        2.5239  -16.8199  -41.2959 H         1 UNK         0.0600 
    166 H166        4.0980  -17.7314  -42.9517 H         1 UNK         0.0600 
    167 H167        2.6426  -18.7177  -42.9564 H         1 UNK         0.0600 
    168 H168        2.9146  -17.5416  -44.2396 H         1 UNK         0.0600 
    169 H169        3.3808  -15.2905  -43.5795 H         1 UNK         0.3000 
    170 H170        2.5783  -12.4776  -43.2354 H         1 UNK         0.0600 
    171 H171        2.6780  -11.5940  -40.9153 H         1 UNK         0.0600 
    172 H172        4.2797  -12.2913  -40.6894 H         1 UNK         0.0600 
    173 H173        4.0341  -10.9828  -41.8454 H         1 UNK         0.0600 
    174 H174        5.0050  -14.0764  -42.9559 H         1 UNK         0.3000 
    175 H175        6.7879  -12.4085  -45.4397 H         1 UNK         0.0600 
    176 H176        6.6123  -14.9746  -43.7606 H         1 UNK         0.0600 
    177 H177        8.0151  -14.3647  -44.6250 H         1 UNK         0.0600 
    178 H178        7.3935  -13.4816  -43.2433 H         1 UNK         0.0600 
    179 H179        6.2255  -13.7672  -47.0968 H         1 UNK         0.3000 
    180 H180        5.7242  -15.8368  -48.1052 H         1 UNK         0.0600 
    181 H181        3.1675  -17.1368  -47.0205 H         1 UNK         0.0600 
    182 H182        4.7880  -17.8073  -46.8885 H         1 UNK         0.0600 
    183 H183        4.0383  -17.6311  -48.4693 H         1 UNK         0.0600 
    184 H184        2.8898  -14.8863  -48.0690 H         1 UNK         0.3000 
    185 H185        3.5084  -12.2889  -50.3233 H         1 UNK         0.0600 
    186 H186        1.8240  -14.8142  -50.7828 H         1 UNK         0.0600 
    187 H187        1.5694  -13.2456  -51.5462 H         1 UNK         0.0600 
    188 H188        3.0199  -14.1701  -51.9009 H         1 UNK         0.0600 
    189 H189        1.1569  -13.2647  -48.9888 H         1 UNK         0.3000 
    190 H190       -2.8307  -22.1517  -45.2082 H         1 UNK         0.3000 
    191 H191       -4.1961  -24.4511  -46.1267 H         1 UNK         0.0600 
    192 H192       -2.4509  -24.0317  -43.6482 H         1 UNK         0.0600 
    193 H193       -3.5629  -25.3758  -43.8897 H         1 UNK         0.0600 
    194 H194       -4.1852  -23.7377  -43.7661 H         1 UNK         0.0600 
    195 H195       -0.7064  -23.8012  -45.8879 H         1 UNK         0.3000 
    196 H196        0.1030  -26.5218  -46.3859 H         1 UNK         0.0600 
    197 H197        2.3724  -25.5074  -46.5733 H         1 UNK         0.0600 
    198 H198        1.5352  -24.9557  -45.1305 H         1 UNK         0.0600 
    199 H199        1.6706  -23.8951  -46.5299 H         1 UNK         0.0600 
    200 H200        0.1036  -23.5487  -48.4451 H         1 UNK         0.3000 
    201 H201        1.0164  -25.1954  -50.7427 H         1 UNK         0.0600 
    202 H202        2.4640  -23.3737  -50.0444 H         1 UNK         0.0600 
    203 H203        1.1442  -22.2147  -50.1246 H         1 UNK         0.0600 
    204 H204        1.7588  -22.9598  -51.5990 H         1 UNK         0.0600 
    205 H205       -1.8738  -23.4199  -49.7772 H         1 UNK         0.3000 
    206 H206       -2.9557  -23.6447  -52.5685 H         1 UNK         0.0600 
    207 H207       -2.6265  -21.2810  -51.7459 H         1 UNK         0.0600 
    208 H208       -4.3084  -21.6798  -52.0384 H         1 UNK         0.0600 
    209 H209       -3.6994  -21.6197  -50.3946 H         1 UNK         0.0600 
    210 H210       -2.9551  -25.2727  -49.7945 H         1 UNK         0.3000 
    211 H211       -4.2178  -26.6845  -48.6515 H         1 UNK         0.0600 
    212 H212       -6.1008  -26.6900  -51.0688 H         1 UNK         0.0600 
    213 H213       -5.9850  -27.9346  -49.8330 H         1 UNK         0.0600 
    214 H214       -4.6370  -27.6611  -50.9222 H         1 UNK         0.0600 
    215 H215       -4.9144  -23.6995  -48.6306 H         1 UNK         0.3000 
    216 H216       -6.3561  -22.1706  -47.9703 H         1 UNK         0.0600 
    217 H217       -7.7444  -22.6183  -45.9432 H         1 UNK         0.0600 
    218 H218       -6.1208  -23.2367  -45.7567 H         1 UNK         0.0600 
    219 H219       -7.4489  -24.3437  -46.1081 H         1 UNK         0.0600 
    220 H220       -7.0806  -23.7592  -50.3193 H         1 UNK         0.3000 
    221 H221      -10.0435  -23.3243  -50.4160 H         1 UNK         0.0600 
    222 H222       -8.4821  -25.7614  -51.4258 H         1 UNK         0.0600 
    223 H223       -9.5698  -25.7364  -50.0404 H         1 UNK         0.0600 
    224 H224      -10.2038  -25.4750  -51.6590 H         1 UNK         0.0600 
    225 H225       -6.9566  -23.6134  -52.2694 H         1 UNK         0.3000 
    226 H226       -8.1811  -22.7311  -54.7518 H         1 UNK         0.0600 
    227 H227       -6.2065  -24.2504  -54.6991 H         1 UNK         0.0600 
    228 H228       -5.8366  -22.7678  -55.5671 H         1 UNK         0.0600 
    229 H229       -5.2380  -22.9945  -53.9314 H         1 UNK         0.0600 
    230 H230       -6.6490  -21.2033  -52.0198 H         1 UNK         0.3000 
    231 H231       -6.1423  -19.1610  -51.3652 H         1 UNK         0.0600 
    232 H232       -8.5659  -18.7316  -51.8336 H         1 UNK         0.0600 
    233 H233       -8.1479  -18.1417  -53.4419 H         1 UNK         0.0600 
    234 H234       -7.5911  -17.2831  -52.0128 H         1 UNK         0.0600 
    235 H235       -4.7103  -20.3341  -53.8168 H         1 UNK         0.3000 
    236 H236       -2.8802  -18.1317  -54.2465 H         1 UNK         0.0600 
    237 H237       -2.9685  -18.4024  -56.7477 H         1 UNK         0.0600 
    238 H238       -4.3437  -19.4916  -56.5918 H         1 UNK         0.0600 
    239 H239       -4.5004  -17.7963  -56.1367 H         1 UNK         0.0600 
    240 H240       -0.8393  -18.9599  -54.7978 H         1 UNK         0.3000 
    241 H241       -0.4923  -21.8115  -54.0489 H         1 UNK         0.0600 
    242 H242        0.6823  -21.2286  -57.7920 H         1 UNK         0.3800 
    243 H243       -0.5765  -20.3074  -57.0111 H         1 UNK         0.3800 
    244 H244        1.4306  -19.4499  -53.7700 H         1 UNK         0.0800 
    245 H245        1.7570  -21.0852  -53.2644 H         1 UNK         0.0800 
    246 H246       -0.8096  -18.0654  -52.6958 H         1 UNK         0.0800 
    247 H247        0.7727  -17.7506  -52.0250 H         1 UNK         0.0800 
@<TRIPOS>BOND
     1    1    2 1    
     2    1  127 1    
     3    1  128 1    
     4    1  129 1    
     5    2    3 2    
     6    2    4 am   BACKBONE|DICT|INTERRES
     7    4    5 1    
     8    4  130 1    
     9    5    6 1    
    10    5   65 1    
    11    5  131 1    
    12    6    7 1    
    13    6  132 1    
    14    6  133 1    
    15    7    8 1    
    16    8    9 1    
    17    8  134 1    
    18    8  135 1    
    19    9   10 ar   
    20    9   14 ar   
    21   10   11 ar   
    22   10  136 1    
    23   11   12 ar   
    24   11  126 1    
    25   12   13 ar   
    26   12  137 1    
    27   13   14 ar   
    28   13   15 1    
    29   14  138 1    
    30   15   16 1    
    31   15  139 1    
    32   15  140 1    
    33   16   17 1    
    34   17   18 1    
    35   17  141 1    
    36   17  142 1    
    37   18   19 1    
    38   18   67 1    
    39   18  143 1    
    40   19   20 am   BACKBONE|DICT|INTERRES
    41   19  144 1    
    42   20   21 2    
    43   20   22 1    
    44   22   23 1    
    45   22   24 1    
    46   22  145 1    
    47   23  146 1    
    48   23  147 1    
    49   23  148 1    
    50   24   25 am   BACKBONE|DICT|INTERRES
    51   24  149 1    
    52   25   26 2    
    53   25   27 1    
    54   27   28 1    
    55   27   29 1    
    56   27  150 1    
    57   28  151 1    
    58   28  152 1    
    59   28  153 1    
    60   29   30 am   BACKBONE|DICT|INTERRES
    61   29  154 1    
    62   30   31 2    
    63   30   32 1    
    64   32   33 1    
    65   32   34 1    
    66   32  155 1    
    67   33  156 1    
    68   33  157 1    
    69   33  158 1    
    70   34   35 am   BACKBONE|DICT|INTERRES
    71   34  159 1    
    72   35   36 2    
    73   35   37 1    
    74   37   38 1    
    75   37   39 1    
    76   37  160 1    
    77   38  161 1    
    78   38  162 1    
    79   38  163 1    
    80   39   40 am   BACKBONE|DICT|INTERRES
    81   39  164 1    
    82   40   41 2    
    83   40   42 1    
    84   42   43 1    
    85   42   44 1    
    86   42  165 1    
    87   43  166 1    
    88   43  167 1    
    89   43  168 1    
    90   44   45 am   BACKBONE|DICT|INTERRES
    91   44  169 1    
    92   45   46 2    
    93   45   47 1    
    94   47   48 1    
    95   47   49 1    
    96   47  170 1    
    97   48  171 1    
    98   48  172 1    
    99   48  173 1    
   100   49   50 am   BACKBONE|DICT|INTERRES
   101   49  174 1    
   102   50   51 2    
   103   50   52 1    
   104   52   53 1    
   105   52   54 1    
   106   52  175 1    
   107   53  176 1    
   108   53  177 1    
   109   53  178 1    
   110   54   55 am   BACKBONE|DICT|INTERRES
   111   54  179 1    
   112   55   56 2    
   113   55   57 1    
   114   57   58 1    
   115   57   59 1    
   116   57  180 1    
   117   58  181 1    
   118   58  182 1    
   119   58  183 1    
   120   59   60 am   BACKBONE|DICT|INTERRES
   121   59  184 1    
   122   60   61 2    
   123   60   62 1    
   124   62   63 1    
   125   62   64 1    
   126   62  185 1    
   127   63  186 1    
   128   63  187 1    
   129   63  188 1    
   130   64   65 am   BACKBONE|DICT|INTERRES
   131   64  189 1    
   132   65   66 2    
   133   67   68 2    
   134   67   69 am   BACKBONE|DICT|INTERRES
   135   69   70 1    
   136   69  190 1    
   137   70   71 1    
   138   70   72 1    
   139   70  191 1    
   140   71  192 1    
   141   71  193 1    
   142   71  194 1    
   143   72   73 2    
   144   72   74 am   BACKBONE|DICT|INTERRES
   145   74   75 1    
   146   74  195 1    
   147   75   76 1    
   148   75   77 1    
   149   75  196 1    
   150   76  197 1    
   151   76  198 1    
   152   76  199 1    
   153   77   78 2    
   154   77   79 am   BACKBONE|DICT|INTERRES
   155   79   80 1    
   156   79  200 1    
   157   80   81 1    
   158   80   82 1    
   159   80  201 1    
   160   81  202 1    
   161   81  203 1    
   162   81  204 1    
   163   82   83 2    
   164   82   84 am   BACKBONE|DICT|INTERRES
   165   84   85 1    
   166   84  205 1    
   167   85   86 1    
   168   85   87 1    
   169   85  206 1    
   170   86  207 1    
   171   86  208 1    
   172   86  209 1    
   173   87   88 2    
   174   87   89 am   BACKBONE|DICT|INTERRES
   175   89   90 1    
   176   89  210 1    
   177   90   91 1    
   178   90   92 1    
   179   90  211 1    
   180   91  212 1    
   181   91  213 1    
   182   91  214 1    
   183   92   93 2    
   184   92   94 am   BACKBONE|DICT|INTERRES
   185   94   95 1    
   186   94  215 1    
   187   95   96 1    
   188   95   97 1    
   189   95  216 1    
   190   96  217 1    
   191   96  218 1    
   192   96  219 1    
   193   97   98 2    
   194   97   99 am   BACKBONE|DICT|INTERRES
   195   99  100 1    
   196   99  220 1    
   197  100  101 1    
   198  100  102 1    
   199  100  221 1    
   200  101  222 1    
   201  101  223 1    
   202  101  224 1    
   203  102  103 2    
   204  102  104 am   BACKBONE|DICT|INTERRES
   205  104  105 1    
   206  104  225 1    
   207  105  106 1    
   208  105  107 1    
   209  105  226 1    
   210  106  227 1    
   211  106  228 1    
   212  106  229 1    
   213  107  108 2    
   214  107  109 am   BACKBONE|DICT|INTERRES
   215  109  110 1    
   216  109  230 1    
   217  110  111 1    
   218  110  112 1    
   219  110  231 1    
   220  111  232 1    
   221  111  233 1    
   222  111  234 1    
   223  112  113 2    
   224  112  114 am   BACKBONE|DICT|INTERRES
   225  114  115 1    
   226  114  235 1    
   227  115  116 1    
   228  115  117 1    
   229  115  236 1    
   230  116  237 1    
   231  116  238 1    
   232  116  239 1    
   233  117  118 2    
   234  117  119 am   BACKBONE|DICT|INTERRES
   235  119  120 1    
   236  119  240 1    
   237  120  121 1    
   238  120  124 1    
   239  120  241 1    
   240  121  122 am   BACKBONE|DICT|INTERRES
   241  121  123 2    
   242  122  242 1    
   243  122  243 1    
   244  124  125 1    
   245  124  244 1    
   246  124  245 1    
   247  125  126 1    
   248  126  246 1    
   249  126  247 1    
@<TRIPOS>SUBSTRUCTURE
     1 UNK         1 GROUP             0       ****    0 ROOT    
