@<TRIPOS>MOLECULE
3R540
247   249    1
SMALL
USER_CHARGES


@<TRIPOS>ATOM
      1 CA          0.1975  -14.4804  -50.1031 C.3       0 UNK        -0.1800 
      2 C           1.7112  -14.6013  -50.0198 C.2       0 UNK         0.5000 
      3 O           2.4270  -13.7949  -50.6138 O.2       0 UNK        -0.5000 
      4 N           2.1982  -15.6095  -49.2869 N.am      1 UNK        -0.5000 
      5 CA          3.6190  -15.8549  -49.0270 C.3       1 UNK         0.1400 
      6 C6          3.8655  -17.2465  -48.3970 C.3       23 UNK        -0.0398 
      7 S7          3.4319  -18.6290  -49.5042 S.3       23 UNK        -0.2404 
      8 C8          2.0507  -19.4059  -48.6088 C.3       23 UNK        -0.0205 
      9 C9          0.7313  -18.7032  -48.8791 C.ar      23 UNK        -0.0193 
     10 C10         0.0871  -18.8905  -50.1046 C.ar      23 UNK        -0.1150 
     11 C11        -1.1407  -18.2803  -50.3673 C.ar      23 UNK        -0.0193 
     12 C12        -1.7270  -17.4774  -49.3855 C.ar      23 UNK        -0.1150 
     13 C13        -1.0860  -17.2681  -48.1613 C.ar      23 UNK        -0.0193 
     14 C14         0.1448  -17.8837  -47.9105 C.ar      23 UNK        -0.1150 
     15 C15        -1.7320  -16.3763  -47.1142 C.3       23 UNK        -0.0205 
     16 S16        -3.0830  -17.2248  -46.2434 S.3       23 UNK        -0.2404 
     17 C17        -2.1559  -18.4728  -45.2942 C.3       23 UNK        -0.0398 
     18 CA         -2.0722  -19.8396  -46.0162 C.3       11 UNK         0.1400 
     19 N          -0.9111  -20.6136  -45.5674 N.am      11 UNK        -0.5000 
     20 C          -0.5075  -21.7905  -46.0648 C.2       10 UNK         0.5000 
     21 O          -1.0576  -22.3554  -47.0083 O.2       10 UNK        -0.5000 
     22 CA          0.6787  -22.4722  -45.3645 C.3       10 UNK         0.1400 
     23 CB          2.0150  -21.9785  -45.9357 C.3       10 UNK        -0.1800 
     24 N           0.6467  -22.2348  -43.9222 N.am      10 UNK        -0.5000 
     25 C          -0.0891  -22.9461  -43.0577 C.2       9 UNK         0.5000 
     26 O          -0.7501  -23.9351  -43.3745 O.2       9 UNK        -0.5000 
     27 CA         -0.1094  -22.4576  -41.5958 C.3       9 UNK         0.1400 
     28 CB          1.0424  -23.0900  -40.8003 C.3       9 UNK        -0.1800 
     29 N          -0.0378  -20.9997  -41.4691 N.am      9 UNK        -0.5000 
     30 C          -0.9940  -20.1544  -41.8779 C.2       8 UNK         0.5000 
     31 O          -2.0459  -20.5164  -42.4055 O.2       8 UNK        -0.5000 
     32 CA         -0.7084  -18.6482  -41.7141 C.3       8 UNK         0.1400 
     33 CB         -1.1168  -18.1791  -40.3103 C.3       8 UNK        -0.1800 
     34 N           0.6777  -18.2434  -41.9778 N.am      8 UNK        -0.5000 
     35 C           1.3879  -18.5250  -43.0814 C.2       7 UNK         0.5000 
     36 O           0.9801  -19.2657  -43.9762 O.2       7 UNK        -0.5000 
     37 CA          2.7748  -17.8703  -43.2130 C.3       7 UNK         0.1400 
     38 CB          3.1847  -17.6876  -44.6850 C.3       7 UNK        -0.1800 
     39 N           2.7896  -16.5610  -42.5674 N.am      7 UNK        -0.5000 
     40 C           3.5317  -16.2122  -41.5088 C.2       6 UNK         0.5000 
     41 O           4.2846  -16.9866  -40.9180 O.2       6 UNK        -0.5000 
     42 CA          3.4254  -14.7497  -41.0275 C.3       6 UNK         0.1400 
     43 CB          4.6902  -13.9698  -41.4185 C.3       6 UNK        -0.1800 
     44 N           2.2572  -14.0474  -41.5637 N.am      6 UNK        -0.5000 
     45 C           0.9919  -14.2554  -41.1744 C.2       5 UNK         0.5000 
     46 O           0.6768  -15.0220  -40.2647 O.2       5 UNK        -0.5000 
     47 CA         -0.1045  -13.5124  -41.9621 C.3       5 UNK         0.1400 
     48 CB         -0.4693  -12.1940  -41.2642 C.3       5 UNK        -0.1800 
     49 N           0.2689  -13.2292  -43.3510 N.am      5 UNK        -0.5000 
     50 C           0.4850  -14.1480  -44.3003 C.2       4 UNK         0.5000 
     51 O           0.4096  -15.3602  -44.1025 O.2       4 UNK        -0.5000 
     52 CA          0.9090  -13.6334  -45.6865 C.3       4 UNK         0.1400 
     53 CB         -0.2482  -12.9318  -46.4244 C.3       4 UNK        -0.1800 
     54 N           2.1197  -12.8052  -45.6513 N.am      4 UNK        -0.5000 
     55 C           2.2886  -11.5699  -45.1531 C.2       3 UNK         0.5000 
     56 O           1.3907  -10.9287  -44.6052 O.2       3 UNK        -0.5000 
     57 CA          3.6975  -10.9454  -45.2443 C.3       3 UNK         0.1400 
     58 CB          4.2903  -10.7440  -43.8404 C.3       3 UNK        -0.1800 
     59 N           4.6410  -11.7338  -46.0398 N.am      3 UNK        -0.5000 
     60 C           4.6753  -11.7763  -47.3780 C.2       2 UNK         0.5000 
     61 O           3.9328  -11.1103  -48.1006 O.2       2 UNK        -0.5000 
     62 CA          5.6931  -12.7403  -48.0257 C.3       2 UNK         0.1400 
     63 CB          6.7856  -13.2497  -47.0573 C.3       2 UNK        -0.1800 
     64 N           5.0277  -13.8711  -48.6812 N.am      2 UNK        -0.5000 
     65 C           4.1898  -14.7511  -48.1140 C.2       1 UNK         0.5000 
     66 O           3.8601  -14.7225  -46.9260 O.2       1 UNK        -0.5000 
     67 C          -3.3900  -20.6291  -45.8909 C.2       11 UNK         0.5000 
     68 O          -4.2089  -20.5956  -46.8090 O.2       11 UNK        -0.5000 
     69 N          -3.5301  -21.3940  -44.7990 N.am      12 UNK        -0.5000 
     70 CA         -4.6440  -22.3095  -44.5373 C.3       12 UNK         0.1400 
     71 CB         -4.4684  -22.9069  -43.1328 C.3       12 UNK        -0.1800 
     72 C          -4.8095  -23.4339  -45.5840 C.2       12 UNK         0.5000 
     73 O          -5.9018  -23.9911  -45.6949 O.2       12 UNK        -0.5000 
     74 N          -3.7398  -23.7386  -46.3302 N.am      13 UNK        -0.5000 
     75 CA         -3.7168  -24.7006  -47.4305 C.3       13 UNK         0.1400 
     76 CB         -2.5750  -25.6981  -47.1695 C.3       13 UNK        -0.1800 
     77 C          -3.5271  -24.0142  -48.7976 C.2       13 UNK         0.5000 
     78 O          -3.3907  -24.7238  -49.7947 O.2       13 UNK        -0.5000 
     79 N          -3.4811  -22.6701  -48.8279 N.am      14 UNK        -0.5000 
     80 CA         -3.1407  -21.8079  -49.9680 C.3       14 UNK         0.1400 
     81 CB         -4.3339  -21.7088  -50.9371 C.3       14 UNK        -0.1800 
     82 C          -1.8335  -22.2531  -50.6581 C.2       14 UNK         0.5000 
     83 O          -1.8197  -22.5014  -51.8663 O.2       14 UNK        -0.5000 
     84 N          -0.7907  -22.4513  -49.8381 N.am      15 UNK        -0.5000 
     85 CA          0.4546  -23.1767  -50.1078 C.3       15 UNK         0.1400 
     86 CB          1.2723  -22.5617  -51.2628 C.3       15 UNK        -0.1800 
     87 C           0.1909  -24.6803  -50.3082 C.2       15 UNK         0.5000 
     88 O           0.5559  -25.4819  -49.4477 O.2       15 UNK        -0.5000 
     89 N          -0.4660  -25.0227  -51.4205 N.am      16 UNK        -0.5000 
     90 CA         -0.9394  -26.3659  -51.7499 C.3       16 UNK         0.1400 
     91 CB          0.2034  -27.1690  -52.4002 C.3       16 UNK        -0.1800 
     92 C          -2.1995  -26.3413  -52.6403 C.2       16 UNK         0.5000 
     93 O          -2.6299  -27.4023  -53.0948 O.2       16 UNK        -0.5000 
     94 N          -2.7703  -25.1545  -52.8984 N.am      17 UNK        -0.5000 
     95 CA         -3.9092  -24.9591  -53.7997 C.3       17 UNK         0.1400 
     96 CB         -3.7778  -23.5706  -54.4405 C.3       17 UNK        -0.1800 
     97 C          -5.2801  -25.1089  -53.1091 C.2       17 UNK         0.5000 
     98 O          -6.3044  -24.9283  -53.7717 O.2       17 UNK        -0.5000 
     99 N          -5.2882  -25.3803  -51.7961 N.am      18 UNK        -0.5000 
    100 CA        -6.4256  -25.4881  -50.8745 C.3       18 UNK         0.1400 
    101 CB        -7.4117  -26.5943  -51.2987 C.3       18 UNK        -0.1800 
    102 C         -7.1298  -24.1399  -50.6403 C.2       18 UNK         0.5000 
    103 O         -7.1472  -23.6481  -49.5123 O.2       18 UNK        -0.5000 
    104 N         -7.6666  -23.5621  -51.7176 N.am      19 UNK        -0.5000 
    105 CA        -8.3100  -22.2511  -51.7642 C.3       19 UNK         0.1400 
    106 CB        -9.7513  -22.3623  -51.2301 C.3       19 UNK        -0.1800 
    107 C         -8.2815  -21.6356  -53.1785 C.2       19 UNK         0.5000 
    108 O         -8.8149  -20.5405  -53.3594 O.2       19 UNK        -0.5000 
    109 N         -7.6937  -22.3306  -54.1672 N.am      20 UNK        -0.5000 
    110 CA        -7.7028  -21.9188  -55.5742 C.3       20 UNK         0.1400 
    111 CB        -7.5169  -23.1631  -56.4579 C.3       20 UNK        -0.1800 
    112 C         -6.6617  -20.8356  -55.9229 C.2       20 UNK         0.5000 
    113 O         -6.7472  -20.2599  -57.0090 O.2       20 UNK        -0.5000 
    114 N         -5.7073  -20.5746  -55.0208 N.am      21 UNK        -0.5000 
    115 CA        -4.6868  -19.5373  -55.1594 C.3       21 UNK         0.1400 
    116 CB        -3.2933  -20.1671  -54.9987 C.3       21 UNK        -0.1800 
    117 C         -4.8936  -18.4525  -54.0944 C.2       21 UNK         0.5000 
    118 O         -5.4010  -18.7422  -53.0083 O.2       21 UNK        -0.5000 
    119 N         -4.4421  -17.2362  -54.4213 N.am      22 UNK        -0.5000 
    120 CA        -4.3744  -16.0553  -53.5387 C.3       22 UNK         0.1400 
    121 C         -5.7511  -15.4222  -53.1687 C.2       22 UNK         0.5000 
    122 N         -6.8434  -15.7743  -53.8354 N.am      22 UNK        -0.7600 
    123 O         -5.8297  -14.5714  -52.2865 O.2       22 UNK        -0.5000 
    124 C124       -3.4665  -16.2646  -52.2916 C.3       23 UNK        -0.0398 
    125 S125       -1.8278  -16.9672  -52.7062 S.3       23 UNK        -0.2404 
    126 C126       -1.8229  -18.4928  -51.7110 C.3       23 UNK        -0.0205 
    127 H127       -0.1991  -15.1987  -50.8198 H         1 UNK         0.0600 
    128 H128       -0.0930  -13.4799  -50.4235 H         1 UNK         0.0600 
    129 H129       -0.2608  -14.6672  -49.1330 H         1 UNK         0.0600 
    130 H130        1.5577  -16.2637  -48.8604 H         1 UNK         0.3000 
    131 H131        4.1473  -15.8227  -49.9824 H         1 UNK         0.0600 
    132 H132        3.3164  -17.3402  -47.4609 H         1 UNK         0.0800 
    133 H133        4.9196  -17.3646  -48.1387 H         1 UNK         0.0800 
    134 H134        2.2669  -19.4304  -47.5409 H         1 UNK         0.0800 
    135 H135        1.9695  -20.4467  -48.9229 H         1 UNK         0.0800 
    136 H136        0.5469  -19.5117  -50.8588 H         1 UNK         0.1150 
    137 H137       -2.6797  -17.0048  -49.5741 H         1 UNK         0.1150 
    138 H138        0.6356  -17.7388  -46.9577 H         1 UNK         0.1150 
    139 H139       -0.9928  -16.0305  -46.3916 H         1 UNK         0.0800 
    140 H140       -2.1344  -15.4855  -47.5980 H         1 UNK         0.0800 
    141 H141       -2.6232  -18.5756  -44.3143 H         1 UNK         0.0800 
    142 H142       -1.1573  -18.0778  -45.1036 H         1 UNK         0.0800 
    143 H143       -1.9159  -19.6661  -47.0819 H         1 UNK         0.0600 
    144 H144       -0.3442  -20.1907  -44.8367 H         1 UNK         0.3000 
    145 H145        0.6071  -23.5448  -45.5580 H         1 UNK         0.0600 
    146 H146        2.8518  -22.5244  -45.5000 H         1 UNK         0.0600 
    147 H147        2.1715  -20.9188  -45.7376 H         1 UNK         0.0600 
    148 H148        2.0583  -22.1267  -47.0151 H         1 UNK         0.0600 
    149 H149        1.1043  -21.3938  -43.5952 H         1 UNK         0.3000 
    150 H150       -1.0515  -22.7874  -41.1526 H         1 UNK         0.0600 
    151 H151        1.0038  -24.1787  -40.8563 H         1 UNK         0.0600 
    152 H152        0.9897  -22.8182  -39.7459 H         1 UNK         0.0600 
    153 H153        2.0152  -22.7759  -41.1808 H         1 UNK         0.0600 
    154 H154        0.7992  -20.6158  -41.0557 H         1 UNK         0.3000 
    155 H155       -1.3324  -18.1179  -42.4339 H         1 UNK         0.0600 
    156 H156       -2.1421  -18.4730  -40.0809 H         1 UNK         0.0600 
    157 H157       -1.0689  -17.0936  -40.2279 H         1 UNK         0.0600 
    158 H158       -0.4723  -18.6039  -39.5399 H         1 UNK         0.0600 
    159 H159        1.0912  -17.6148  -41.3040 H         1 UNK         0.3000 
    160 H160        3.4899  -18.5456  -42.7399 H         1 UNK         0.0600 
    161 H161        4.1600  -17.2075  -44.7674 H         1 UNK         0.0600 
    162 H162        3.2519  -18.6465  -45.1997 H         1 UNK         0.0600 
    163 H163        2.4640  -17.0702  -45.2229 H         1 UNK         0.0600 
    164 H164        2.1452  -15.8842  -42.9590 H         1 UNK         0.3000 
    165 H165        3.3524  -14.7640  -39.9380 H         1 UNK         0.0600 
    166 H166        4.6473  -12.9404  -41.0621 H         1 UNK         0.0600 
    167 H167        5.5800  -14.4255  -40.9822 H         1 UNK         0.0600 
    168 H168        4.8309  -13.9500  -42.4999 H         1 UNK         0.0600 
    169 H169        2.4221  -13.3984  -42.3182 H         1 UNK         0.3000 
    170 H170       -0.9892  -14.1523  -41.9760 H         1 UNK         0.0600 
    171 H171        0.3731  -11.5011  -41.2485 H         1 UNK         0.0600 
    172 H172       -1.3009  -11.6995  -41.7664 H         1 UNK         0.0600 
    173 H173       -0.7719  -12.3687  -40.2308 H         1 UNK         0.0600 
    174 H174        0.4102  -12.2554  -43.6059 H         1 UNK         0.3000 
    175 H175        1.1747  -14.5137  -46.2744 H         1 UNK         0.0600 
    176 H176       -0.5737  -12.0233  -45.9180 H         1 UNK         0.0600 
    177 H177        0.0422  -12.6618  -47.4397 H         1 UNK         0.0600 
    178 H178       -1.1194  -13.5814  -46.4960 H         1 UNK         0.0600 
    179 H179        2.9351  -13.2655  -46.0475 H         1 UNK         0.3000 
    180 H180        3.5845   -9.9635  -45.7083 H         1 UNK         0.0600 
    181 H181        5.2567  -10.2420  -43.8889 H         1 UNK         0.0600 
    182 H182        4.4308  -11.6927  -43.3239 H         1 UNK         0.0600 
    183 H183        3.6377  -10.1268  -43.2215 H         1 UNK         0.0600 
    184 H184        5.2739  -12.3312  -45.5279 H         1 UNK         0.3000 
    185 H185        6.1912  -12.1722  -48.8127 H         1 UNK         0.0600 
    186 H186        7.5275  -13.8439  -47.5909 H         1 UNK         0.0600 
    187 H187        7.3183  -12.4190  -46.5926 H         1 UNK         0.0600 
    188 H188        6.3799  -13.8745  -46.2608 H         1 UNK         0.0600 
    189 H189        5.1771  -13.9361  -49.6786 H         1 UNK         0.3000 
    190 H190       -2.8319  -21.3167  -44.0654 H         1 UNK         0.3000 
    191 H191       -5.5630  -21.7202  -44.5477 H         1 UNK         0.0600 
    192 H192       -4.4422  -22.1263  -42.3721 H         1 UNK         0.0600 
    193 H193       -3.5444  -23.4811  -43.0549 H         1 UNK         0.0600 
    194 H194       -5.2937  -23.5751  -42.8835 H         1 UNK         0.0600 
    195 H195       -2.8800  -23.2241  -46.1835 H         1 UNK         0.3000 
    196 H196       -4.6553  -25.2559  -47.4801 H         1 UNK         0.0600 
    197 H197       -2.7019  -26.2010  -46.2108 H         1 UNK         0.0600 
    198 H198       -1.6033  -25.2017  -47.1621 H         1 UNK         0.0600 
    199 H199       -2.5413  -26.4707  -47.9387 H         1 UNK         0.0600 
    200 H200       -3.6516  -22.1742  -47.9605 H         1 UNK         0.3000 
    201 H201       -2.9549  -20.8118  -49.5634 H         1 UNK         0.0600 
    202 H202       -5.2253  -21.3456  -50.4258 H         1 UNK         0.0600 
    203 H203       -4.5727  -22.6747  -51.3776 H         1 UNK         0.0600 
    204 H204       -4.1231  -21.0169  -51.7523 H         1 UNK         0.0600 
    205 H205       -0.9594  -22.2911  -48.8466 H         1 UNK         0.3000 
    206 H206        1.0547  -23.0818  -49.2016 H         1 UNK         0.0600 
    207 H207        0.7334  -22.5602  -52.2097 H         1 UNK         0.0600 
    208 H208        1.5582  -21.5355  -51.0416 H         1 UNK         0.0600 
    209 H209        2.1949  -23.1216  -51.4195 H         1 UNK         0.0600 
    210 H210       -0.7458  -24.2738  -52.0422 H         1 UNK         0.3000 
    211 H211       -1.2366  -26.8671  -50.8263 H         1 UNK         0.0600 
    212 H212        0.5344  -26.7076  -53.3312 H         1 UNK         0.0600 
    213 H213       -0.1092  -28.1884  -52.6296 H         1 UNK         0.0600 
    214 H214        1.0655  -27.2406  -51.7369 H         1 UNK         0.0600 
    215 H215       -2.4277  -24.3171  -52.4404 H         1 UNK         0.3000 
    216 H216       -3.8685  -25.7008  -54.5999 H         1 UNK         0.0600 
    217 H217       -4.5261  -23.4181  -55.2168 H         1 UNK         0.0600 
    218 H218       -2.8010  -23.4398  -54.9065 H         1 UNK         0.0600 
    219 H219       -3.9045  -22.7803  -53.7024 H         1 UNK         0.0600 
    220 H220       -4.3862  -25.3933  -51.3274 H         1 UNK         0.3000 
    221 H221       -6.0001  -25.7900  -49.9163 H         1 UNK         0.0600 
    222 H222       -7.8979  -26.3779  -52.2499 H         1 UNK         0.0600 
    223 H223       -6.9046  -27.5544  -51.3946 H         1 UNK         0.0600 
    224 H224       -8.1988  -26.7157  -50.5536 H         1 UNK         0.0600 
    225 H225       -7.5685  -24.0604  -52.5953 H         1 UNK         0.3000 
    226 H226       -7.7513  -21.5673  -51.1219 H         1 UNK         0.0600 
    227 H227       -9.7680  -22.7211  -50.2010 H         1 UNK         0.0600 
    228 H228      -10.2523  -21.3936  -51.2388 H         1 UNK         0.0600 
    229 H229      -10.3476  -23.0476  -51.8334 H         1 UNK         0.0600 
    230 H230       -7.2383  -23.2158  -53.9777 H         1 UNK         0.3000 
    231 H231       -8.6844  -21.4988  -55.8048 H         1 UNK         0.0600 
    232 H232       -7.5686  -22.9041  -57.5162 H         1 UNK         0.0600 
    233 H233       -8.2971  -23.9004  -56.2677 H         1 UNK         0.0600 
    234 H234       -6.5553  -23.6451  -56.2861 H         1 UNK         0.0600 
    235 H235       -5.7637  -21.0205  -54.1172 H         1 UNK         0.3000 
    236 H236       -4.7406  -19.0706  -56.1452 H         1 UNK         0.0600 
    237 H237       -3.1471  -20.5842  -54.0021 H         1 UNK         0.0600 
    238 H238       -3.1330  -20.9620  -55.7268 H         1 UNK         0.0600 
    239 H239       -2.5098  -19.4242  -55.1537 H         1 UNK         0.0600 
    240 H240       -4.0438  -17.1016  -55.3396 H         1 UNK         0.3000 
    241 H241       -3.8895  -15.2899  -54.1455 H         1 UNK         0.0600 
    242 H242       -7.7279  -15.3531  -53.5981 H         1 UNK         0.3800 
    243 H243       -6.7969  -16.4689  -54.5634 H         1 UNK         0.3800 
    244 H244       -3.9763  -16.8973  -51.5646 H         1 UNK         0.0800 
    245 H245       -3.2931  -15.3130  -51.7866 H         1 UNK         0.0800 
    246 H246       -1.3068  -19.2684  -52.2794 H         1 UNK         0.0800 
    247 H247       -2.8374  -18.8626  -51.5604 H         1 UNK         0.0800 
@<TRIPOS>BOND
     1    1    2 1    
     2    1  127 1    
     3    1  128 1    
     4    1  129 1    
     5    2    3 2    
     6    2    4 am   BACKBONE|DICT|INTERRES
     7    4    5 1    
     8    4  130 1    
     9    5    6 1    
    10    5   65 1    
    11    5  131 1    
    12    6    7 1    
    13    6  132 1    
    14    6  133 1    
    15    7    8 1    
    16    8    9 1    
    17    8  134 1    
    18    8  135 1    
    19    9   10 ar   
    20    9   14 ar   
    21   10   11 ar   
    22   10  136 1    
    23   11   12 ar   
    24   11  126 1    
    25   12   13 ar   
    26   12  137 1    
    27   13   14 ar   
    28   13   15 1    
    29   14  138 1    
    30   15   16 1    
    31   15  139 1    
    32   15  140 1    
    33   16   17 1    
    34   17   18 1    
    35   17  141 1    
    36   17  142 1    
    37   18   19 1    
    38   18   67 1    
    39   18  143 1    
    40   19   20 am   BACKBONE|DICT|INTERRES
    41   19  144 1    
    42   20   21 2    
    43   20   22 1    
    44   22   23 1    
    45   22   24 1    
    46   22  145 1    
    47   23  146 1    
    48   23  147 1    
    49   23  148 1    
    50   24   25 am   BACKBONE|DICT|INTERRES
    51   24  149 1    
    52   25   26 2    
    53   25   27 1    
    54   27   28 1    
    55   27   29 1    
    56   27  150 1    
    57   28  151 1    
    58   28  152 1    
    59   28  153 1    
    60   29   30 am   BACKBONE|DICT|INTERRES
    61   29  154 1    
    62   30   31 2    
    63   30   32 1    
    64   32   33 1    
    65   32   34 1    
    66   32  155 1    
    67   33  156 1    
    68   33  157 1    
    69   33  158 1    
    70   34   35 am   BACKBONE|DICT|INTERRES
    71   34  159 1    
    72   35   36 2    
    73   35   37 1    
    74   37   38 1    
    75   37   39 1    
    76   37  160 1    
    77   38  161 1    
    78   38  162 1    
    79   38  163 1    
    80   39   40 am   BACKBONE|DICT|INTERRES
    81   39  164 1    
    82   40   41 2    
    83   40   42 1    
    84   42   43 1    
    85   42   44 1    
    86   42  165 1    
    87   43  166 1    
    88   43  167 1    
    89   43  168 1    
    90   44   45 am   BACKBONE|DICT|INTERRES
    91   44  169 1    
    92   45   46 2    
    93   45   47 1    
    94   47   48 1    
    95   47   49 1    
    96   47  170 1    
    97   48  171 1    
    98   48  172 1    
    99   48  173 1    
   100   49   50 am   BACKBONE|DICT|INTERRES
   101   49  174 1    
   102   50   51 2    
   103   50   52 1    
   104   52   53 1    
   105   52   54 1    
   106   52  175 1    
   107   53  176 1    
   108   53  177 1    
   109   53  178 1    
   110   54   55 am   BACKBONE|DICT|INTERRES
   111   54  179 1    
   112   55   56 2    
   113   55   57 1    
   114   57   58 1    
   115   57   59 1    
   116   57  180 1    
   117   58  181 1    
   118   58  182 1    
   119   58  183 1    
   120   59   60 am   BACKBONE|DICT|INTERRES
   121   59  184 1    
   122   60   61 2    
   123   60   62 1    
   124   62   63 1    
   125   62   64 1    
   126   62  185 1    
   127   63  186 1    
   128   63  187 1    
   129   63  188 1    
   130   64   65 am   BACKBONE|DICT|INTERRES
   131   64  189 1    
   132   65   66 2    
   133   67   68 2    
   134   67   69 am   BACKBONE|DICT|INTERRES
   135   69   70 1    
   136   69  190 1    
   137   70   71 1    
   138   70   72 1    
   139   70  191 1    
   140   71  192 1    
   141   71  193 1    
   142   71  194 1    
   143   72   73 2    
   144   72   74 am   BACKBONE|DICT|INTERRES
   145   74   75 1    
   146   74  195 1    
   147   75   76 1    
   148   75   77 1    
   149   75  196 1    
   150   76  197 1    
   151   76  198 1    
   152   76  199 1    
   153   77   78 2    
   154   77   79 am   BACKBONE|DICT|INTERRES
   155   79   80 1    
   156   79  200 1    
   157   80   81 1    
   158   80   82 1    
   159   80  201 1    
   160   81  202 1    
   161   81  203 1    
   162   81  204 1    
   163   82   83 2    
   164   82   84 am   BACKBONE|DICT|INTERRES
   165   84   85 1    
   166   84  205 1    
   167   85   86 1    
   168   85   87 1    
   169   85  206 1    
   170   86  207 1    
   171   86  208 1    
   172   86  209 1    
   173   87   88 2    
   174   87   89 am   BACKBONE|DICT|INTERRES
   175   89   90 1    
   176   89  210 1    
   177   90   91 1    
   178   90   92 1    
   179   90  211 1    
   180   91  212 1    
   181   91  213 1    
   182   91  214 1    
   183   92   93 2    
   184   92   94 am   BACKBONE|DICT|INTERRES
   185   94   95 1    
   186   94  215 1    
   187   95   96 1    
   188   95   97 1    
   189   95  216 1    
   190   96  217 1    
   191   96  218 1    
   192   96  219 1    
   193   97   98 2    
   194   97   99 am   BACKBONE|DICT|INTERRES
   195   99  100 1    
   196   99  220 1    
   197  100  101 1    
   198  100  102 1    
   199  100  221 1    
   200  101  222 1    
   201  101  223 1    
   202  101  224 1    
   203  102  103 2    
   204  102  104 am   BACKBONE|DICT|INTERRES
   205  104  105 1    
   206  104  225 1    
   207  105  106 1    
   208  105  107 1    
   209  105  226 1    
   210  106  227 1    
   211  106  228 1    
   212  106  229 1    
   213  107  108 2    
   214  107  109 am   BACKBONE|DICT|INTERRES
   215  109  110 1    
   216  109  230 1    
   217  110  111 1    
   218  110  112 1    
   219  110  231 1    
   220  111  232 1    
   221  111  233 1    
   222  111  234 1    
   223  112  113 2    
   224  112  114 am   BACKBONE|DICT|INTERRES
   225  114  115 1    
   226  114  235 1    
   227  115  116 1    
   228  115  117 1    
   229  115  236 1    
   230  116  237 1    
   231  116  238 1    
   232  116  239 1    
   233  117  118 2    
   234  117  119 am   BACKBONE|DICT|INTERRES
   235  119  120 1    
   236  119  240 1    
   237  120  121 1    
   238  120  124 1    
   239  120  241 1    
   240  121  122 am   BACKBONE|DICT|INTERRES
   241  121  123 2    
   242  122  242 1    
   243  122  243 1    
   244  124  125 1    
   245  124  244 1    
   246  124  245 1    
   247  125  126 1    
   248  126  246 1    
   249  126  247 1    
@<TRIPOS>SUBSTRUCTURE
     1 UNK         1 GROUP             0       ****    0 ROOT    
