@<TRIPOS>MOLECULE
3R540
247   249    1
SMALL
USER_CHARGES


@<TRIPOS>ATOM
      1 CA          0.5039  -12.9439  -44.6442 C.3       0 UNK        -0.1800 
      2 C           1.1438  -13.7550  -45.7597 C.2       0 UNK         0.5000 
      3 O           1.7893  -13.1881  -46.6410 O.2       0 UNK        -0.5000 
      4 N           0.9686  -15.0781  -45.7138 N.am      1 UNK        -0.5000 
      5 CA          1.5082  -16.0518  -46.6637 C.3       1 UNK         0.1400 
      6 C6          0.3912  -16.7549  -47.4712 C.3       23 UNK        -0.0398 
      7 S7         -0.5868  -15.6223  -48.5152 S.3       23 UNK        -0.2404 
      8 C8          0.4722  -15.4579  -49.9901 C.3       23 UNK        -0.0205 
      9 C9          0.6584  -16.7784  -50.7237 C.ar      23 UNK        -0.0193 
     10 C10        -0.3491  -17.2693  -51.5570 C.ar      23 UNK        -0.1150 
     11 C11        -0.1849  -18.4839  -52.2290 C.ar      23 UNK        -0.0193 
     12 C12         0.9942  -19.2161  -52.0546 C.ar      23 UNK        -0.1150 
     13 C13         2.0089  -18.7359  -51.2206 C.ar      23 UNK        -0.0193 
     14 C14         1.8396  -17.5098  -50.5705 C.ar      23 UNK        -0.1150 
     15 C15         3.2943  -19.5301  -51.0212 C.3       23 UNK        -0.0205 
     16 S16         3.0512  -21.0774  -50.0839 S.3       23 UNK        -0.2404 
     17 C17         2.3377  -20.4935  -48.4989 C.3       23 UNK        -0.0398 
     18 CA          1.2992  -21.4254  -47.8102 C.3       11 UNK         0.1400 
     19 N           0.5687  -20.7121  -46.7522 N.am      11 UNK        -0.5000 
     20 C          -0.2746  -21.2859  -45.8810 C.2       10 UNK         0.5000 
     21 O          -0.4887  -22.4968  -45.8359 O.2       10 UNK        -0.5000 
     22 CA         -1.0589  -20.3485  -44.9434 C.3       10 UNK         0.1400 
     23 CB         -0.1680  -19.8142  -43.8154 C.3       10 UNK        -0.1800 
     24 N          -1.7063  -19.2273  -45.6325 N.am      10 UNK        -0.5000 
     25 C          -2.6321  -19.3538  -46.5966 C.2       9 UNK         0.5000 
     26 O          -2.9895  -20.4451  -47.0368 O.2       9 UNK        -0.5000 
     27 CA         -3.2426  -18.0718  -47.2086 C.3       9 UNK         0.1400 
     28 CB         -4.7495  -18.2279  -47.5005 C.3       9 UNK        -0.1800 
     29 N          -2.9793  -16.8358  -46.4607 N.am      9 UNK        -0.5000 
     30 C          -3.3843  -16.5253  -45.2224 C.2       8 UNK         0.5000 
     31 O          -4.0753  -17.2572  -44.5110 O.2       8 UNK        -0.5000 
     32 CA         -2.9140  -15.1617  -44.6827 C.3       8 UNK         0.1400 
     33 CB         -4.0638  -14.1443  -44.6783 C.3       8 UNK        -0.1800 
     34 N          -2.3758  -15.2849  -43.3299 N.am      8 UNK        -0.5000 
     35 C          -1.2790  -15.9768  -43.0034 C.2       7 UNK         0.5000 
     36 O          -0.5526  -16.5159  -43.8414 O.2       7 UNK        -0.5000 
     37 CA         -0.9322  -16.0495  -41.5029 C.3       7 UNK         0.1400 
     38 CB          0.3738  -16.8131  -41.2312 C.3       7 UNK        -0.1800 
     39 N          -0.8271  -14.7222  -40.8942 N.am      7 UNK        -0.5000 
     40 C          -1.8566  -13.9802  -40.4627 C.2       6 UNK         0.5000 
     41 O          -3.0336  -14.3155  -40.6031 O.2       6 UNK        -0.5000 
     42 CA         -1.5316  -12.6528  -39.7493 C.3       6 UNK         0.1400 
     43 CB         -1.7207  -12.8053  -38.2320 C.3       6 UNK        -0.1800 
     44 N          -0.1711  -12.1776  -40.0042 N.am      6 UNK        -0.5000 
     45 C           0.2174  -11.5341  -41.1130 C.2       5 UNK         0.5000 
     46 O          -0.5469  -11.2368  -42.0306 O.2       5 UNK        -0.5000 
     47 CA          1.7112  -11.1636  -41.2165 C.3       5 UNK         0.1400 
     48 CB          1.9284   -9.6967  -40.8153 C.3       5 UNK        -0.1800 
     49 N           2.5864  -12.0153  -40.4035 N.am      5 UNK        -0.5000 
     50 C           2.8350  -13.3061  -40.6570 C.2       4 UNK         0.5000 
     51 O           2.3280  -13.9284  -41.5923 O.2       4 UNK        -0.5000 
     52 CA          3.7507  -14.0372  -39.6634 C.3       4 UNK         0.1400 
     53 CB          2.9130  -14.8629  -38.6749 C.3       4 UNK        -0.1800 
     54 N           4.6590  -14.9297  -40.3783 N.am      4 UNK        -0.5000 
     55 C           5.8745  -14.5820  -40.8202 C.2       3 UNK         0.5000 
     56 O           6.3925  -13.4851  -40.6053 O.2       3 UNK        -0.5000 
     57 CA          6.6469  -15.6345  -41.6424 C.3       3 UNK         0.1400 
     58 CB          7.5508  -16.4735  -40.7259 C.3       3 UNK        -0.1800 
     59 N           5.7817  -16.5330  -42.4133 N.am      3 UNK        -0.5000 
     60 C           5.0251  -16.1501  -43.4501 C.2       2 UNK         0.5000 
     61 O           4.9956  -14.9911  -43.8752 O.2       2 UNK        -0.5000 
     62 CA          4.1628  -17.2314  -44.1285 C.3       2 UNK         0.1400 
     63 CB          3.5013  -18.1959  -43.1210 C.3       2 UNK        -0.1800 
     64 N           3.1640  -16.5430  -44.9370 N.am      2 UNK        -0.5000 
     65 C           2.3896  -17.0581  -45.8962 C.2       1 UNK         0.5000 
     66 O           2.3472  -18.2575  -46.1744 O.2       1 UNK        -0.5000 
     67 C           0.3330  -22.1228  -48.7980 C.2       11 UNK         0.5000 
     68 O           0.5640  -23.2754  -49.1625 O.2       11 UNK        -0.5000 
     69 N          -0.7521  -21.4317  -49.1731 N.am      12 UNK        -0.5000 
     70 CA         -1.7872  -21.9357  -50.0760 C.3       12 UNK         0.1400 
     71 CB         -2.7419  -20.7832  -50.4247 C.3       12 UNK        -0.1800 
     72 C          -2.5470  -23.1359  -49.4766 C.2       12 UNK         0.5000 
     73 O          -2.7537  -24.1397  -50.1596 O.2       12 UNK        -0.5000 
     74 N          -2.9092  -23.0257  -48.1918 N.am      13 UNK        -0.5000 
     75 CA         -3.5376  -24.0836  -47.4040 C.3       13 UNK         0.1400 
     76 CB         -3.9987  -23.5136  -46.0546 C.3       13 UNK        -0.1800 
     77 C          -2.6144  -25.2989  -47.2048 C.2       13 UNK         0.5000 
     78 O          -3.0728  -26.4311  -47.3555 O.2       13 UNK        -0.5000 
     79 N          -1.3272  -25.0506  -46.9206 N.am      14 UNK        -0.5000 
     80 CA         -0.2880  -26.0769  -46.7898 C.3       14 UNK         0.1400 
     81 CB          1.0028  -25.4394  -46.2547 C.3       14 UNK        -0.1800 
     82 C          -0.0190  -26.8336  -48.1053 C.2       14 UNK         0.5000 
     83 O           0.2076  -28.0436  -48.0757 O.2       14 UNK        -0.5000 
     84 N          -0.0919  -26.1183  -49.2358 N.am      15 UNK        -0.5000 
     85 CA         -0.0169  -26.6693  -50.5908 C.3       15 UNK         0.1400 
     86 CB          0.2967  -25.5275  -51.5719 C.3       15 UNK        -0.1800 
     87 C          -1.2965  -27.4153  -51.0267 C.2       15 UNK         0.5000 
     88 O          -1.2727  -28.0817  -52.0623 O.2       15 UNK        -0.5000 
     89 N          -2.3818  -27.2829  -50.2477 N.am      16 UNK        -0.5000 
     90 CA         -3.7279  -27.8150  -50.4816 C.3       16 UNK         0.1400 
     91 CB         -3.7294  -29.3573  -50.4372 C.3       16 UNK        -0.1800 
     92 C          -4.3810  -27.2382  -51.7553 C.2       16 UNK         0.5000 
     93 O          -5.0961  -27.9482  -52.4652 O.2       16 UNK        -0.5000 
     94 N          -4.1219  -25.9531  -52.0186 N.am      17 UNK        -0.5000 
     95 CA         -4.6036  -25.2107  -53.1747 C.3       17 UNK         0.1400 
     96 CB         -3.6425  -25.4153  -54.3597 C.3       17 UNK        -0.1800 
     97 C          -4.7382  -23.7469  -52.7424 C.2       17 UNK         0.5000 
     98 O          -3.8486  -22.9383  -53.0205 O.2       17 UNK        -0.5000 
     99 N          -5.8230  -23.4736  -52.0015 N.am      18 UNK        -0.5000 
    100 CA        -6.1573  -22.2080  -51.3415 C.3       18 UNK         0.1400 
    101 CB        -7.5618  -22.3293  -50.7318 C.3       18 UNK        -0.1800 
    102 C         -6.0821  -20.9713  -52.2559 C.2       18 UNK         0.5000 
    103 O         -6.2509  -21.0885  -53.4709 O.2       18 UNK        -0.5000 
    104 N         -5.8429  -19.8036  -51.6436 N.am      19 UNK        -0.5000 
    105 CA        -5.4779  -18.5344  -52.2869 C.3       19 UNK         0.1400 
    106 CB        -5.1712  -17.4972  -51.1957 C.3       19 UNK        -0.1800 
    107 C         -6.4663  -17.9700  -53.3287 C.2       19 UNK         0.5000 
    108 O         -6.0742  -17.1038  -54.1108 O.2       19 UNK        -0.5000 
    109 N         -7.7031  -18.4847  -53.3583 N.am      20 UNK        -0.5000 
    110 CA        -8.6784  -18.2423  -54.4246 C.3       20 UNK         0.1400 
    111 CB       -10.0301  -18.8461  -54.0143 C.3       20 UNK        -0.1800 
    112 C         -8.2257  -18.8043  -55.7906 C.2       20 UNK         0.5000 
    113 O         -8.5484  -18.2154  -56.8230 O.2       20 UNK        -0.5000 
    114 N         -7.4735  -19.9127  -55.7650 N.am      21 UNK        -0.5000 
    115 CA        -6.8055  -20.5123  -56.9193 C.3       21 UNK         0.1400 
    116 CB        -7.0755  -22.0259  -56.9259 C.3       21 UNK        -0.1800 
    117 C         -5.2919  -20.2379  -56.8699 C.2       21 UNK         0.5000 
    118 O         -4.7040  -19.9090  -57.9000 O.2       21 UNK        -0.5000 
    119 N         -4.7081  -20.3579  -55.6694 N.am      22 UNK        -0.5000 
    120 CA        -3.2860  -20.2131  -55.3383 C.3       22 UNK         0.1400 
    121 C         -2.4135  -21.3143  -56.0009 C.2       22 UNK         0.5000 
    122 N         -2.2986  -22.4707  -55.3646 N.am      22 UNK        -0.7600 
    123 O         -1.8369  -21.1326  -57.0703 O.2       22 UNK        -0.5000 
    124 C124       -2.7597  -18.7679  -55.5658 C.3       23 UNK        -0.0398 
    125 S125       -1.1273  -18.3898  -54.8265 S.3       23 UNK        -0.2404 
    126 C126       -1.2944  -19.0077  -53.1242 C.3       23 UNK        -0.0205 
    127 H127        0.3921  -13.5350  -43.7350 H         1 UNK         0.0600 
    128 H128       -0.4810  -12.5906  -44.9490 H         1 UNK         0.0600 
    129 H129        1.1192  -12.0770  -44.4054 H         1 UNK         0.0600 
    130 H130        0.4498  -15.4959  -44.9426 H         1 UNK         0.3000 
    131 H131        2.1770  -15.5608  -47.3727 H         1 UNK         0.0600 
    132 H132       -0.2891  -17.2483  -46.7820 H         1 UNK         0.0800 
    133 H133        0.7929  -17.5470  -48.0986 H         1 UNK         0.0800 
    134 H134        1.4362  -15.0385  -49.6986 H         1 UNK         0.0800 
    135 H135        0.0201  -14.7309  -50.6662 H         1 UNK         0.0800 
    136 H136       -1.2628  -16.7046  -51.6809 H         1 UNK         0.1150 
    137 H137        1.1222  -20.1613  -52.5635 H         1 UNK         0.1150 
    138 H138        2.6224  -17.1312  -49.9282 H         1 UNK         0.1150 
    139 H139        3.7140  -19.7746  -51.9979 H         1 UNK         0.0800 
    140 H140        4.0464  -18.9260  -50.5114 H         1 UNK         0.0800 
    141 H141        1.8756  -19.5248  -48.6723 H         1 UNK         0.0800 
    142 H142        3.1624  -20.3010  -47.8116 H         1 UNK         0.0800 
    143 H143        1.8623  -22.2235  -47.3222 H         1 UNK         0.0600 
    144 H144        0.7665  -19.7245  -46.6571 H         1 UNK         0.3000 
    145 H145       -1.8498  -20.9461  -44.4852 H         1 UNK         0.0600 
    146 H146       -0.7706  -19.3234  -43.0520 H         1 UNK         0.0600 
    147 H147        0.3821  -20.6197  -43.3273 H         1 UNK         0.0600 
    148 H148        0.5588  -19.0910  -44.1846 H         1 UNK         0.0600 
    149 H149       -1.4836  -18.3028  -45.2908 H         1 UNK         0.3000 
    150 H150       -2.7426  -17.9459  -48.1700 H         1 UNK         0.0600 
    151 H151       -4.9346  -19.0513  -48.1908 H         1 UNK         0.0600 
    152 H152       -5.1580  -17.3266  -47.9575 H         1 UNK         0.0600 
    153 H153       -5.3188  -18.4320  -46.5934 H         1 UNK         0.0600 
    154 H154       -2.4131  -16.1597  -46.9576 H         1 UNK         0.3000 
    155 H155       -2.1195  -14.7775  -45.3262 H         1 UNK         0.0600 
    156 H156       -4.8791  -14.4618  -44.0269 H         1 UNK         0.0600 
    157 H157       -4.4742  -14.0149  -45.6805 H         1 UNK         0.0600 
    158 H158       -3.7230  -13.1664  -44.3373 H         1 UNK         0.0600 
    159 H159       -2.9226  -14.8847  -42.5757 H         1 UNK         0.3000 
    160 H160       -1.7403  -16.6007  -41.0177 H         1 UNK         0.0600 
    161 H161        1.2281  -16.2997  -41.6699 H         1 UNK         0.0600 
    162 H162        0.3436  -17.8185  -41.6493 H         1 UNK         0.0600 
    163 H163        0.5529  -16.9171  -40.1616 H         1 UNK         0.0600 
    164 H164        0.1068  -14.3435  -40.8168 H         1 UNK         0.3000 
    165 H165       -2.2419  -11.9044  -40.1074 H         1 UNK         0.0600 
    166 H166       -1.5551  -11.8589  -37.7167 H         1 UNK         0.0600 
    167 H167       -2.7350  -13.1291  -37.9944 H         1 UNK         0.0600 
    168 H168       -1.0343  -13.5418  -37.8122 H         1 UNK         0.0600 
    169 H169        0.5184  -12.3652  -39.2916 H         1 UNK         0.3000 
    170 H170        2.0053  -11.2770  -42.2617 H         1 UNK         0.0600 
    171 H171        1.3136   -9.0304  -41.4220 H         1 UNK         0.0600 
    172 H172        1.6687   -9.5220  -39.7704 H         1 UNK         0.0600 
    173 H173        2.9669   -9.3977  -40.9589 H         1 UNK         0.0600 
    174 H174        3.0317  -11.5743  -39.6113 H         1 UNK         0.3000 
    175 H175        4.3239  -13.3023  -39.0939 H         1 UNK         0.0600 
    176 H176        2.3266  -15.6281  -39.1833 H         1 UNK         0.0600 
    177 H177        3.5486  -15.3618  -37.9432 H         1 UNK         0.0600 
    178 H178        2.2185  -14.2289  -38.1223 H         1 UNK         0.0600 
    179 H179        4.2864  -15.8264  -40.6519 H         1 UNK         0.3000 
    180 H180        7.2848  -15.0955  -42.3461 H         1 UNK         0.0600 
    181 H181        6.9693  -17.0573  -40.0112 H         1 UNK         0.0600 
    182 H182        8.2277  -15.8362  -40.1552 H         1 UNK         0.0600 
    183 H183        8.1666  -17.1638  -41.3028 H         1 UNK         0.0600 
    184 H184        5.7634  -17.5001  -42.1238 H         1 UNK         0.3000 
    185 H185        4.8127  -17.8004  -44.7957 H         1 UNK         0.0600 
    186 H186        2.8539  -18.9156  -43.6197 H         1 UNK         0.0600 
    187 H187        4.2466  -18.7771  -42.5779 H         1 UNK         0.0600 
    188 H188        2.9031  -17.6598  -42.3870 H         1 UNK         0.0600 
    189 H189        3.1577  -15.5401  -44.7915 H         1 UNK         0.3000 
    190 H190       -0.8958  -20.5125  -48.7861 H         1 UNK         0.3000 
    191 H191       -1.2944  -22.2642  -50.9937 H         1 UNK         0.0600 
    192 H192       -2.2061  -19.8460  -50.5666 H         1 UNK         0.0600 
    193 H193       -3.4891  -20.6156  -49.6495 H         1 UNK         0.0600 
    194 H194       -3.2678  -20.9961  -51.3530 H         1 UNK         0.0600 
    195 H195       -2.7455  -22.1421  -47.7137 H         1 UNK         0.3000 
    196 H196       -4.4211  -24.4230  -47.9487 H         1 UNK         0.0600 
    197 H197       -4.4923  -24.2789  -45.4546 H         1 UNK         0.0600 
    198 H198       -4.7099  -22.6992  -46.1946 H         1 UNK         0.0600 
    199 H199       -3.1614  -23.1271  -45.4728 H         1 UNK         0.0600 
    200 H200       -1.0381  -24.0889  -46.7614 H         1 UNK         0.3000 
    201 H201       -0.6343  -26.8067  -46.0551 H         1 UNK         0.0600 
    202 H202        0.8366  -24.9651  -45.2874 H         1 UNK         0.0600 
    203 H203        1.3903  -24.6822  -46.9363 H         1 UNK         0.0600 
    204 H204        1.7826  -26.1899  -46.1197 H         1 UNK         0.0600 
    205 H205       -0.2009  -25.1106  -49.1665 H         1 UNK         0.3000 
    206 H206        0.8065  -27.3853  -50.6267 H         1 UNK         0.0600 
    207 H207        1.2296  -25.0276  -51.3108 H         1 UNK         0.0600 
    208 H208        0.4035  -25.9020  -52.5906 H         1 UNK         0.0600 
    209 H209       -0.4938  -24.7764  -51.5805 H         1 UNK         0.0600 
    210 H210       -2.2910  -26.7076  -49.4200 H         1 UNK         0.3000 
    211 H211       -4.3384  -27.4647  -49.6485 H         1 UNK         0.0600 
    212 H212       -3.1937  -29.7897  -51.2826 H         1 UNK         0.0600 
    213 H213       -4.7474  -29.7473  -50.4626 H         1 UNK         0.0600 
    214 H214       -3.2652  -29.7245  -49.5218 H         1 UNK         0.0600 
    215 H215       -3.5541  -25.4165  -51.3646 H         1 UNK         0.3000 
    216 H216       -5.5943  -25.5667  -53.4656 H         1 UNK         0.0600 
    217 H217       -3.9582  -24.8289  -55.2232 H         1 UNK         0.0600 
    218 H218       -3.6177  -26.4602  -54.6690 H         1 UNK         0.0600 
    219 H219       -2.6231  -25.1217  -54.1064 H         1 UNK         0.0600 
    220 H220       -6.4742  -24.2272  -51.8396 H         1 UNK         0.3000 
    221 H221       -5.4387  -22.0755  -50.5312 H         1 UNK         0.0600 
    222 H222       -8.3178  -22.5022  -51.4992 H         1 UNK         0.0600 
    223 H223       -7.6132  -23.1522  -50.0185 H         1 UNK         0.0600 
    224 H224       -7.8412  -21.4219  -50.1947 H         1 UNK         0.0600 
    225 H225       -5.7934  -19.8002  -50.6357 H         1 UNK         0.3000 
    226 H226       -4.5540  -18.7215  -52.8339 H         1 UNK         0.0600 
    227 H227       -4.3507  -17.8267  -50.5579 H         1 UNK         0.0600 
    228 H228       -4.8732  -16.5423  -51.6309 H         1 UNK         0.0600 
    229 H229       -6.0397  -17.3128  -50.5625 H         1 UNK         0.0600 
    230 H230       -7.9384  -19.1927  -52.6789 H         1 UNK         0.3000 
    231 H231       -8.8022  -17.1628  -54.5329 H         1 UNK         0.0600 
    232 H232      -10.3942  -18.4048  -53.0864 H         1 UNK         0.0600 
    233 H233       -9.9618  -19.9252  -53.8701 H         1 UNK         0.0600 
    234 H234      -10.7867  -18.6641  -54.7787 H         1 UNK         0.0600 
    235 H235       -7.2358  -20.3118  -54.8613 H         1 UNK         0.3000 
    236 H236       -7.1949  -20.0926  -57.8491 H         1 UNK         0.0600 
    237 H237       -6.5828  -22.5066  -57.7719 H         1 UNK         0.0600 
    238 H238       -6.7121  -22.5065  -56.0164 H         1 UNK         0.0600 
    239 H239       -8.1424  -22.2332  -57.0093 H         1 UNK         0.0600 
    240 H240       -5.2867  -20.6800  -54.8965 H         1 UNK         0.3000 
    241 H241       -3.2652  -20.4025  -54.2660 H         1 UNK         0.0600 
    242 H242       -1.7339  -23.2000  -55.7683 H         1 UNK         0.3800 
    243 H243       -2.7961  -22.6390  -54.4916 H         1 UNK         0.3800 
    244 H244       -3.4732  -18.0526  -55.1548 H         1 UNK         0.0800 
    245 H245       -2.7053  -18.5477  -56.6329 H         1 UNK         0.0800 
    246 H246       -1.2819  -20.0987  -53.1239 H         1 UNK         0.0800 
    247 H247       -2.2586  -18.7000  -52.7212 H         1 UNK         0.0800 
@<TRIPOS>BOND
     1    1    2 1    
     2    1  127 1    
     3    1  128 1    
     4    1  129 1    
     5    2    3 2    
     6    2    4 am   BACKBONE|DICT|INTERRES
     7    4    5 1    
     8    4  130 1    
     9    5    6 1    
    10    5   65 1    
    11    5  131 1    
    12    6    7 1    
    13    6  132 1    
    14    6  133 1    
    15    7    8 1    
    16    8    9 1    
    17    8  134 1    
    18    8  135 1    
    19    9   10 ar   
    20    9   14 ar   
    21   10   11 ar   
    22   10  136 1    
    23   11   12 ar   
    24   11  126 1    
    25   12   13 ar   
    26   12  137 1    
    27   13   14 ar   
    28   13   15 1    
    29   14  138 1    
    30   15   16 1    
    31   15  139 1    
    32   15  140 1    
    33   16   17 1    
    34   17   18 1    
    35   17  141 1    
    36   17  142 1    
    37   18   19 1    
    38   18   67 1    
    39   18  143 1    
    40   19   20 am   BACKBONE|DICT|INTERRES
    41   19  144 1    
    42   20   21 2    
    43   20   22 1    
    44   22   23 1    
    45   22   24 1    
    46   22  145 1    
    47   23  146 1    
    48   23  147 1    
    49   23  148 1    
    50   24   25 am   BACKBONE|DICT|INTERRES
    51   24  149 1    
    52   25   26 2    
    53   25   27 1    
    54   27   28 1    
    55   27   29 1    
    56   27  150 1    
    57   28  151 1    
    58   28  152 1    
    59   28  153 1    
    60   29   30 am   BACKBONE|DICT|INTERRES
    61   29  154 1    
    62   30   31 2    
    63   30   32 1    
    64   32   33 1    
    65   32   34 1    
    66   32  155 1    
    67   33  156 1    
    68   33  157 1    
    69   33  158 1    
    70   34   35 am   BACKBONE|DICT|INTERRES
    71   34  159 1    
    72   35   36 2    
    73   35   37 1    
    74   37   38 1    
    75   37   39 1    
    76   37  160 1    
    77   38  161 1    
    78   38  162 1    
    79   38  163 1    
    80   39   40 am   BACKBONE|DICT|INTERRES
    81   39  164 1    
    82   40   41 2    
    83   40   42 1    
    84   42   43 1    
    85   42   44 1    
    86   42  165 1    
    87   43  166 1    
    88   43  167 1    
    89   43  168 1    
    90   44   45 am   BACKBONE|DICT|INTERRES
    91   44  169 1    
    92   45   46 2    
    93   45   47 1    
    94   47   48 1    
    95   47   49 1    
    96   47  170 1    
    97   48  171 1    
    98   48  172 1    
    99   48  173 1    
   100   49   50 am   BACKBONE|DICT|INTERRES
   101   49  174 1    
   102   50   51 2    
   103   50   52 1    
   104   52   53 1    
   105   52   54 1    
   106   52  175 1    
   107   53  176 1    
   108   53  177 1    
   109   53  178 1    
   110   54   55 am   BACKBONE|DICT|INTERRES
   111   54  179 1    
   112   55   56 2    
   113   55   57 1    
   114   57   58 1    
   115   57   59 1    
   116   57  180 1    
   117   58  181 1    
   118   58  182 1    
   119   58  183 1    
   120   59   60 am   BACKBONE|DICT|INTERRES
   121   59  184 1    
   122   60   61 2    
   123   60   62 1    
   124   62   63 1    
   125   62   64 1    
   126   62  185 1    
   127   63  186 1    
   128   63  187 1    
   129   63  188 1    
   130   64   65 am   BACKBONE|DICT|INTERRES
   131   64  189 1    
   132   65   66 2    
   133   67   68 2    
   134   67   69 am   BACKBONE|DICT|INTERRES
   135   69   70 1    
   136   69  190 1    
   137   70   71 1    
   138   70   72 1    
   139   70  191 1    
   140   71  192 1    
   141   71  193 1    
   142   71  194 1    
   143   72   73 2    
   144   72   74 am   BACKBONE|DICT|INTERRES
   145   74   75 1    
   146   74  195 1    
   147   75   76 1    
   148   75   77 1    
   149   75  196 1    
   150   76  197 1    
   151   76  198 1    
   152   76  199 1    
   153   77   78 2    
   154   77   79 am   BACKBONE|DICT|INTERRES
   155   79   80 1    
   156   79  200 1    
   157   80   81 1    
   158   80   82 1    
   159   80  201 1    
   160   81  202 1    
   161   81  203 1    
   162   81  204 1    
   163   82   83 2    
   164   82   84 am   BACKBONE|DICT|INTERRES
   165   84   85 1    
   166   84  205 1    
   167   85   86 1    
   168   85   87 1    
   169   85  206 1    
   170   86  207 1    
   171   86  208 1    
   172   86  209 1    
   173   87   88 2    
   174   87   89 am   BACKBONE|DICT|INTERRES
   175   89   90 1    
   176   89  210 1    
   177   90   91 1    
   178   90   92 1    
   179   90  211 1    
   180   91  212 1    
   181   91  213 1    
   182   91  214 1    
   183   92   93 2    
   184   92   94 am   BACKBONE|DICT|INTERRES
   185   94   95 1    
   186   94  215 1    
   187   95   96 1    
   188   95   97 1    
   189   95  216 1    
   190   96  217 1    
   191   96  218 1    
   192   96  219 1    
   193   97   98 2    
   194   97   99 am   BACKBONE|DICT|INTERRES
   195   99  100 1    
   196   99  220 1    
   197  100  101 1    
   198  100  102 1    
   199  100  221 1    
   200  101  222 1    
   201  101  223 1    
   202  101  224 1    
   203  102  103 2    
   204  102  104 am   BACKBONE|DICT|INTERRES
   205  104  105 1    
   206  104  225 1    
   207  105  106 1    
   208  105  107 1    
   209  105  226 1    
   210  106  227 1    
   211  106  228 1    
   212  106  229 1    
   213  107  108 2    
   214  107  109 am   BACKBONE|DICT|INTERRES
   215  109  110 1    
   216  109  230 1    
   217  110  111 1    
   218  110  112 1    
   219  110  231 1    
   220  111  232 1    
   221  111  233 1    
   222  111  234 1    
   223  112  113 2    
   224  112  114 am   BACKBONE|DICT|INTERRES
   225  114  115 1    
   226  114  235 1    
   227  115  116 1    
   228  115  117 1    
   229  115  236 1    
   230  116  237 1    
   231  116  238 1    
   232  116  239 1    
   233  117  118 2    
   234  117  119 am   BACKBONE|DICT|INTERRES
   235  119  120 1    
   236  119  240 1    
   237  120  121 1    
   238  120  124 1    
   239  120  241 1    
   240  121  122 am   BACKBONE|DICT|INTERRES
   241  121  123 2    
   242  122  242 1    
   243  122  243 1    
   244  124  125 1    
   245  124  244 1    
   246  124  245 1    
   247  125  126 1    
   248  126  246 1    
   249  126  247 1    
@<TRIPOS>SUBSTRUCTURE
     1 UNK         1 GROUP             0       ****    0 ROOT    
