@<TRIPOS>MOLECULE
3R540
247   249    1
SMALL
USER_CHARGES


@<TRIPOS>ATOM
      1 CA         -0.8429  -12.9816  -46.6470 C.3       0 UNK        -0.1800 
      2 C           0.2747  -12.2641  -47.3880 C.2       0 UNK         0.5000 
      3 O           0.2531  -11.0376  -47.4862 O.2       0 UNK        -0.5000 
      4 N           1.2518  -13.0192  -47.9025 N.am      1 UNK        -0.5000 
      5 CA          2.3856  -12.5018  -48.6777 C.3       1 UNK         0.1400 
      6 C6          3.0029  -13.5856  -49.5930 C.3       23 UNK        -0.0398 
      7 S7          1.9489  -13.9017  -51.0460 S.3       23 UNK        -0.2404 
      8 C8          2.1821  -15.6940  -51.2950 C.3       23 UNK        -0.0205 
      9 C9          1.2925  -16.6070  -50.4503 C.ar      23 UNK        -0.0193 
     10 C10         0.0813  -16.1790  -49.8903 C.ar      23 UNK        -0.1150 
     11 C11        -0.7422  -17.0714  -49.1970 C.ar      23 UNK        -0.0193 
     12 C12        -0.3457  -18.4031  -49.0558 C.ar      23 UNK        -0.1150 
     13 C13         0.8636  -18.8447  -49.6003 C.ar      23 UNK        -0.0193 
     14 C14         1.6745  -17.9422  -50.2925 C.ar      23 UNK        -0.1150 
     15 C15         1.2761  -20.3052  -49.4907 C.3       23 UNK        -0.0205 
     16 S16         2.4652  -20.6099  -48.1405 S.3       23 UNK        -0.2404 
     17 C17         1.4621  -20.3193  -46.6446 C.3       23 UNK        -0.0398 
     18 CA          0.7970  -21.5965  -46.0786 C.3       11 UNK         0.1400 
     19 N           0.4019  -21.4345  -44.6777 N.am      11 UNK        -0.5000 
     20 C          -0.1151  -22.4024  -43.9074 C.2       10 UNK         0.5000 
     21 O          -0.2266  -23.5765  -44.2585 O.2       10 UNK        -0.5000 
     22 CA         -0.6564  -21.9726  -42.5349 C.3       10 UNK         0.1400 
     23 CB          0.4404  -22.0390  -41.4615 C.3       10 UNK        -0.1800 
     24 N          -1.2559  -20.6353  -42.5788 N.am      10 UNK        -0.5000 
     25 C          -2.4366  -20.3776  -43.1589 C.2       9 UNK         0.5000 
     26 O          -3.1254  -21.2380  -43.7086 O.2       9 UNK        -0.5000 
     27 CA         -2.9275  -18.9172  -43.1409 C.3       9 UNK         0.1400 
     28 CB         -3.4692  -18.5508  -41.7506 C.3       9 UNK        -0.1800 
     29 N          -1.9369  -17.9157  -43.5480 N.am      9 UNK        -0.5000 
     30 C          -1.2748  -17.8989  -44.7128 C.2       8 UNK         0.5000 
     31 O          -1.3268  -18.8105  -45.5363 O.2       8 UNK        -0.5000 
     32 CA         -0.4273  -16.6584  -45.0375 C.3       8 UNK         0.1400 
     33 CB         -0.5841  -15.4848  -44.0476 C.3       8 UNK        -0.1800 
     34 N           0.9720  -17.0493  -45.1438 N.am      8 UNK        -0.5000 
     35 C           1.8667  -16.4879  -45.9687 C.2       7 UNK         0.5000 
     36 O           1.5856  -15.5888  -46.7631 O.2       7 UNK        -0.5000 
     37 CA          3.3245  -16.9800  -45.8683 C.3       7 UNK         0.1400 
     38 CB          4.3288  -15.8423  -46.1118 C.3       7 UNK        -0.1800 
     39 N           3.5812  -17.5539  -44.5492 N.am      7 UNK        -0.5000 
     40 C           4.1726  -18.7300  -44.3069 C.2       6 UNK         0.5000 
     41 O           4.6746  -19.4329  -45.1837 O.2       6 UNK        -0.5000 
     42 CA          4.1958  -19.2311  -42.8459 C.3       6 UNK         0.1400 
     43 CB          5.6118  -19.1123  -42.2612 C.3       6 UNK        -0.1800 
     44 N           3.2617  -18.5494  -41.9457 N.am      6 UNK        -0.5000 
     45 C           1.9276  -18.5254  -42.0626 C.2       5 UNK         0.5000 
     46 O           1.3015  -19.0930  -42.9600 O.2       5 UNK        -0.5000 
     47 CA          1.1649  -17.6545  -41.0481 C.3       5 UNK         0.1400 
     48 CB          0.8140  -18.4708  -39.7965 C.3       5 UNK        -0.1800 
     49 N           1.8547  -16.4213  -40.6466 N.am      5 UNK        -0.5000 
     50 C           2.3577  -15.4895  -41.4703 C.2       4 UNK         0.5000 
     51 O           2.4315  -15.6153  -42.6945 O.2       4 UNK        -0.5000 
     52 CA          2.9067  -14.2150  -40.8078 C.3       4 UNK         0.1400 
     53 CB          4.4129  -14.3605  -40.5444 C.3       4 UNK        -0.1800 
     54 N           2.6871  -13.0382  -41.6461 N.am      4 UNK        -0.5000 
     55 C           1.4995  -12.5182  -41.9758 C.2       3 UNK         0.5000 
     56 O           0.4298  -12.9296  -41.5247 O.2       3 UNK        -0.5000 
     57 CA          1.4896  -11.3415  -42.9755 C.3       3 UNK         0.1400 
     58 CB          1.6909  -10.0000  -42.2459 C.3       3 UNK        -0.1800 
     59 N           2.4095  -11.4666  -44.1185 N.am      3 UNK        -0.5000 
     60 C           3.7518  -11.4995  -44.1344 C.2       2 UNK         0.5000 
     61 O           4.4497  -11.4520  -43.1206 O.2       2 UNK        -0.5000 
     62 CA          4.4254  -11.6141  -45.5139 C.3       2 UNK         0.1400 
     63 CB          5.7641  -12.3758  -45.4652 C.3       2 UNK        -0.1800 
     64 N           3.5293  -12.2191  -46.5050 N.am      2 UNK        -0.5000 
     65 C           3.4605  -11.8416  -47.7887 C.2       1 UNK         0.5000 
     66 O           4.1948  -10.9844  -48.2828 O.2       1 UNK        -0.5000 
     67 C          -0.4022  -22.0341  -46.9399 C.2       11 UNK         0.5000 
     68 O          -0.3091  -23.0392  -47.6414 O.2       11 UNK        -0.5000 
     69 N          -1.5139  -21.2924  -46.8418 N.am      12 UNK        -0.5000 
     70 CA         -2.7612  -21.5541  -47.5574 C.3       12 UNK         0.1400 
     71 CB         -3.7525  -20.4123  -47.2897 C.3       12 UNK        -0.1800 
     72 C          -3.3793  -22.9163  -47.1990 C.2       12 UNK         0.5000 
     73 O          -3.8258  -23.6303  -48.0964 O.2       12 UNK        -0.5000 
     74 N          -3.3538  -23.2712  -45.9063 N.am      13 UNK        -0.5000 
     75 CA         -3.8054  -24.5664  -45.3968 C.3       13 UNK         0.1400 
     76 CB         -3.8125  -24.5406  -43.8610 C.3       13 UNK        -0.1800 
     77 C          -2.9634  -25.7467  -45.9185 C.2       13 UNK         0.5000 
     78 O          -3.5290  -26.7853  -46.2620 O.2       13 UNK        -0.5000 
     79 N          -1.6369  -25.5654  -45.9793 N.am      14 UNK        -0.5000 
     80 CA         -0.6930  -26.5547  -46.4976 C.3       14 UNK         0.1400 
     81 CB          0.7322  -26.1832  -46.0591 C.3       14 UNK        -0.1800 
     82 C          -0.7707  -26.7048  -48.0276 C.2       14 UNK         0.5000 
     83 O          -0.7618  -27.8309  -48.5268 O.2       14 UNK        -0.5000 
     84 N          -0.8343  -25.5731  -48.7417 N.am      15 UNK        -0.5000 
     85 CA         -0.8794  -25.5127  -50.2024 C.3       15 UNK         0.1400 
     86 CB         -0.5795  -24.0771  -50.6635 C.3       15 UNK        -0.1800 
     87 C          -2.2174  -25.9928  -50.7894 C.2       15 UNK         0.5000 
     88 O          -2.2130  -26.6358  -51.8404 O.2       15 UNK        -0.5000 
     89 N          -3.3262  -25.6660  -50.1077 N.am      16 UNK        -0.5000 
     90 CA         -4.7124  -25.8784  -50.5301 C.3       16 UNK         0.1400 
     91 CB         -5.0620  -27.3839  -50.5307 C.3       16 UNK        -0.1800 
     92 C          -5.0050  -25.1438  -51.8580 C.2       16 UNK         0.5000 
     93 O          -4.6422  -23.9712  -51.9778 O.2       16 UNK        -0.5000 
     94 N          -5.6435  -25.8320  -52.8187 N.am      17 UNK        -0.5000 
     95 CA         -5.9555  -25.3713  -54.1785 C.3       17 UNK         0.1400 
     96 CB         -4.6638  -25.2610  -55.0158 C.3       17 UNK        -0.1800 
     97 C          -6.7840  -24.0708  -54.1896 C.2       17 UNK         0.5000 
     98 O          -6.4211  -23.1071  -54.8659 O.2       17 UNK        -0.5000 
     99 N          -7.8792  -24.0666  -53.4161 N.am      18 UNK        -0.5000 
    100 CA        -8.7299  -22.9082  -53.1108 C.3       18 UNK         0.1400 
    101 CB        -9.8268  -23.3497  -52.1298 C.3       18 UNK        -0.1800 
    102 C         -9.3518  -22.1829  -54.3234 C.2       18 UNK         0.5000 
    103 O         -9.7607  -21.0297  -54.1858 O.2       18 UNK        -0.5000 
    104 N         -9.3960  -22.8466  -55.4868 N.am      19 UNK        -0.5000 
    105 CA        -9.7764  -22.2528  -56.7705 C.3       19 UNK         0.1400 
    106 CB        -9.9416  -23.3720  -57.8098 C.3       19 UNK        -0.1800 
    107 C         -8.7685  -21.1953  -57.2703 C.2       19 UNK         0.5000 
    108 O         -9.1725  -20.2589  -57.9610 O.2       19 UNK        -0.5000 
    109 N         -7.4892  -21.3576  -56.9065 N.am      20 UNK        -0.5000 
    110 CA        -6.4103  -20.4065  -57.1698 C.3       20 UNK         0.1400 
    111 CB        -5.1836  -21.1672  -57.6991 C.3       20 UNK        -0.1800 
    112 C         -6.0575  -19.6270  -55.8918 C.2       20 UNK         0.5000 
    113 O         -5.9215  -18.4044  -55.9482 O.2       20 UNK        -0.5000 
    114 N         -5.9468  -20.3508  -54.7676 N.am      21 UNK        -0.5000 
    115 CA        -5.6129  -19.8778  -53.4229 C.3       21 UNK         0.1400 
    116 CB        -6.7772  -19.0416  -52.8442 C.3       21 UNK        -0.1800 
    117 C         -4.2339  -19.1797  -53.3583 C.2       21 UNK         0.5000 
    118 O         -3.2905  -19.6317  -54.0115 O.2       21 UNK        -0.5000 
    119 N         -4.1328  -18.1261  -52.5407 N.am      22 UNK        -0.5000 
    120 CA        -2.9363  -17.3011  -52.3187 C.3       22 UNK         0.1400 
    121 C         -2.4483  -16.5766  -53.6035 C.2       22 UNK         0.5000 
    122 N         -1.1475  -16.5673  -53.8617 N.am      22 UNK        -0.7600 
    123 O         -3.2325  -15.9805  -54.3381 O.2       22 UNK        -0.5000 
    124 C124       -3.1927  -16.2720  -51.1900 C.3       23 UNK        -0.0398 
    125 S125       -3.5064  -17.0923  -49.5896 S.3       23 UNK        -0.2404 
    126 C126       -2.0606  -16.5959  -48.6016 C.3       23 UNK        -0.0205 
    127 H127       -0.8273  -12.7145  -45.5906 H         1 UNK         0.0600 
    128 H128       -0.7488  -14.0630  -46.7332 H         1 UNK         0.0600 
    129 H129       -1.8105  -12.6949  -47.0585 H         1 UNK         0.0600 
    130 H130        1.2561  -14.0221  -47.7224 H         1 UNK         0.3000 
    131 H131        2.0115  -11.7018  -49.3210 H         1 UNK         0.0600 
    132 H132        3.1633  -14.5114  -49.0390 H         1 UNK         0.0800 
    133 H133        3.9798  -13.2783  -49.9713 H         1 UNK         0.0800 
    134 H134        1.9801  -15.9133  -52.3440 H         1 UNK         0.0800 
    135 H135        3.2328  -15.9384  -51.1304 H         1 UNK         0.0800 
    136 H136       -0.2388  -15.1542  -50.0054 H         1 UNK         0.1150 
    137 H137       -0.9867  -19.0949  -48.5286 H         1 UNK         0.1150 
    138 H138        2.5999  -18.2899  -50.7303 H         1 UNK         0.1150 
    139 H139        0.3985  -20.9410  -49.3784 H         1 UNK         0.0800 
    140 H140        1.7392  -20.6156  -50.4285 H         1 UNK         0.0800 
    141 H141        0.7404  -19.5256  -46.8252 H         1 UNK         0.0800 
    142 H142        2.1417  -19.9190  -45.8962 H         1 UNK         0.0800 
    143 H143        1.5328  -22.4034  -46.1022 H         1 UNK         0.0600 
    144 H144        0.4617  -20.5018  -44.2867 H         1 UNK         0.3000 
    145 H145       -1.4350  -22.6836  -42.2504 H         1 UNK         0.0600 
    146 H146        0.0534  -21.7574  -40.4826 H         1 UNK         0.0600 
    147 H147        0.8296  -23.0540  -41.3735 H         1 UNK         0.0600 
    148 H148        1.2846  -21.3916  -41.6940 H         1 UNK         0.0600 
    149 H149       -0.6975  -19.8688  -42.2332 H         1 UNK         0.3000 
    150 H150       -3.7549  -18.8515  -43.8505 H         1 UNK         0.0600 
    151 H151       -4.2198  -19.2705  -41.4205 H         1 UNK         0.0600 
    152 H152       -3.9449  -17.5699  -41.7580 H         1 UNK         0.0600 
    153 H153       -2.6776  -18.5345  -41.0003 H         1 UNK         0.0600 
    154 H154       -1.8413  -17.1167  -42.9394 H         1 UNK         0.3000 
    155 H155       -0.7653  -16.3134  -46.0134 H         1 UNK         0.0600 
    156 H156        0.0509  -14.6464  -44.3331 H         1 UNK         0.0600 
    157 H157       -0.3064  -15.7568  -43.0316 H         1 UNK         0.0600 
    158 H158       -1.6111  -15.1185  -44.0290 H         1 UNK         0.0600 
    159 H159        1.2650  -17.7995  -44.5285 H         1 UNK         0.3000 
    160 H160        3.4525  -17.7350  -46.6466 H         1 UNK         0.0600 
    161 H161        5.3564  -16.1889  -46.0023 H         1 UNK         0.0600 
    162 H162        4.1679  -15.0315  -45.4022 H         1 UNK         0.0600 
    163 H163        4.2307  -15.4316  -47.1164 H         1 UNK         0.0600 
    164 H164        3.2079  -17.0151  -43.7707 H         1 UNK         0.3000 
    165 H165        3.9192  -20.2872  -42.8667 H         1 UNK         0.0600 
    166 H166        5.6653  -19.5474  -41.2630 H         1 UNK         0.0600 
    167 H167        6.3384  -19.6385  -42.8818 H         1 UNK         0.0600 
    168 H168        5.9309  -18.0714  -42.1930 H         1 UNK         0.0600 
    169 H169        3.6756  -18.0228  -41.1907 H         1 UNK         0.3000 
    170 H170        0.2279  -17.3597  -41.5197 H         1 UNK         0.0600 
    171 H171        0.2491  -19.3659  -40.0566 H         1 UNK         0.0600 
    172 H172        1.7081  -18.7898  -39.2593 H         1 UNK         0.0600 
    173 H173        0.1969  -17.8931  -39.1081 H         1 UNK         0.0600 
    174 H174        1.8688  -16.2344  -39.6542 H         1 UNK         0.3000 
    175 H175        2.3925  -14.0565  -39.8577 H         1 UNK         0.0600 
    176 H176        4.9697  -14.5057  -41.4714 H         1 UNK         0.0600 
    177 H177        4.8136  -13.4758  -40.0490 H         1 UNK         0.0600 
    178 H178        4.6187  -15.2154  -39.8990 H         1 UNK         0.0600 
    179 H179        3.5075  -12.6191  -42.0760 H         1 UNK         0.3000 
    180 H180        0.4900  -11.3234  -43.4129 H         1 UNK         0.0600 
    181 H181        1.5977   -9.1594  -42.9335 H         1 UNK         0.0600 
    182 H182        2.6696   -9.9370  -41.7694 H         1 UNK         0.0600 
    183 H183        0.9409   -9.8657  -41.4654 H         1 UNK         0.0600 
    184 H184        1.9516  -11.4879  -45.0181 H         1 UNK         0.3000 
    185 H185        4.6403  -10.5850  -45.8093 H         1 UNK         0.0600 
    186 H186        6.1960  -12.4870  -46.4598 H         1 UNK         0.0600 
    187 H187        6.4931  -11.8400  -44.8563 H         1 UNK         0.0600 
    188 H188        5.6519  -13.3687  -45.0327 H         1 UNK         0.0600 
    189 H189        2.9108  -12.9489  -46.1787 H         1 UNK         0.3000 
    190 H190       -1.4978  -20.4638  -46.2490 H         1 UNK         0.3000 
    191 H191       -2.5327  -21.5635  -48.6252 H         1 UNK         0.0600 
    192 H192       -4.6812  -20.5627  -47.8412 H         1 UNK         0.0600 
    193 H193       -3.3406  -19.4528  -47.6011 H         1 UNK         0.0600 
    194 H194       -4.0042  -20.3372  -46.2313 H         1 UNK         0.0600 
    195 H195       -3.0146  -22.6032  -45.2217 H         1 UNK         0.3000 
    196 H196       -4.8320  -24.7164  -45.7372 H         1 UNK         0.0600 
    197 H197       -2.8141  -24.3724  -43.4572 H         1 UNK         0.0600 
    198 H198       -4.4639  -23.7526  -43.4827 H         1 UNK         0.0600 
    199 H199       -4.1759  -25.4858  -43.4562 H         1 UNK         0.0600 
    200 H200       -1.2407  -24.6966  -45.6355 H         1 UNK         0.3000 
    201 H201       -0.9370  -27.5231  -46.0555 H         1 UNK         0.0600 
    202 H202        1.0274  -25.2026  -46.4342 H         1 UNK         0.0600 
    203 H203        1.4574  -26.9095  -46.4280 H         1 UNK         0.0600 
    204 H204        0.8160  -26.1626  -44.9724 H         1 UNK         0.0600 
    205 H205       -0.7840  -24.6801  -48.2541 H         1 UNK         0.3000 
    206 H206       -0.0931  -26.1629  -50.5918 H         1 UNK         0.0600 
    207 H207        0.4013  -23.7482  -50.3192 H         1 UNK         0.0600 
    208 H208       -0.5837  -24.0064  -51.7519 H         1 UNK         0.0600 
    209 H209       -1.3207  -23.3714  -50.2857 H         1 UNK         0.0600 
    210 H210       -3.2260  -25.0755  -49.2873 H         1 UNK         0.3000 
    211 H211       -5.3351  -25.3966  -49.7752 H         1 UNK         0.0600 
    212 H212       -6.1279  -27.5429  -50.6975 H         1 UNK         0.0600 
    213 H213       -4.8212  -27.8362  -49.5683 H         1 UNK         0.0600 
    214 H214       -4.5163  -27.9346  -51.2976 H         1 UNK         0.0600 
    215 H215       -5.9018  -26.7870  -52.6137 H         1 UNK         0.3000 
    216 H216       -6.5807  -26.1395  -54.6359 H         1 UNK         0.0600 
    217 H217       -4.8898  -25.0156  -56.0542 H         1 UNK         0.0600 
    218 H218       -3.9983  -24.4858  -54.6340 H         1 UNK         0.0600 
    219 H219       -4.1136  -26.2019  -55.0167 H         1 UNK         0.0600 
    220 H220       -8.0934  -24.9118  -52.9072 H         1 UNK         0.3000 
    221 H221       -8.0974  -22.1772  -52.6031 H         1 UNK         0.0600 
    222 H222       -9.3981  -23.7531  -51.2122 H         1 UNK         0.0600 
    223 H223      -10.4703  -24.1146  -52.5663 H         1 UNK         0.0600 
    224 H224      -10.4619  -22.5094  -51.8457 H         1 UNK         0.0600 
    225 H225       -9.0505  -23.7944  -55.5074 H         1 UNK         0.3000 
    226 H226      -10.7413  -21.7575  -56.6436 H         1 UNK         0.0600 
    227 H227       -9.0099  -23.9172  -57.9659 H         1 UNK         0.0600 
    228 H228      -10.7034  -24.0882  -57.5013 H         1 UNK         0.0600 
    229 H229      -10.2501  -22.9663  -58.7743 H         1 UNK         0.0600 
    230 H230       -7.2540  -22.1354  -56.2978 H         1 UNK         0.3000 
    231 H231       -6.7131  -19.6850  -57.9315 H         1 UNK         0.0600 
    232 H232       -4.8326  -21.9166  -56.9882 H         1 UNK         0.0600 
    233 H233       -4.3554  -20.4845  -57.8930 H         1 UNK         0.0600 
    234 H234       -5.4122  -21.6768  -58.6351 H         1 UNK         0.0600 
    235 H235       -6.0463  -21.3609  -54.8458 H         1 UNK         0.3000 
    236 H236       -5.5200  -20.7763  -52.8108 H         1 UNK         0.0600 
    237 H237       -6.6366  -18.8425  -51.7812 H         1 UNK         0.0600 
    238 H238       -6.8831  -18.0838  -53.3550 H         1 UNK         0.0600 
    239 H239       -7.7244  -19.5716  -52.9415 H         1 UNK         0.0600 
    240 H240       -4.9596  -17.8280  -52.0457 H         1 UNK         0.3000 
    241 H241       -2.1407  -17.9738  -51.9910 H         1 UNK         0.0600 
    242 H242       -0.8153  -16.0855  -54.6825 H         1 UNK         0.3800 
    243 H243       -0.4884  -17.0423  -53.2654 H         1 UNK         0.3800 
    244 H244       -4.0549  -15.6480  -51.4314 H         1 UNK         0.0800 
    245 H245       -2.3529  -15.5844  -51.0890 H         1 UNK         0.0800 
    246 H246       -2.1823  -17.0242  -47.6075 H         1 UNK         0.0800 
    247 H247       -2.0603  -15.5124  -48.4742 H         1 UNK         0.0800 
@<TRIPOS>BOND
     1    1    2 1    
     2    1  127 1    
     3    1  128 1    
     4    1  129 1    
     5    2    3 2    
     6    2    4 am   BACKBONE|DICT|INTERRES
     7    4    5 1    
     8    4  130 1    
     9    5    6 1    
    10    5   65 1    
    11    5  131 1    
    12    6    7 1    
    13    6  132 1    
    14    6  133 1    
    15    7    8 1    
    16    8    9 1    
    17    8  134 1    
    18    8  135 1    
    19    9   10 ar   
    20    9   14 ar   
    21   10   11 ar   
    22   10  136 1    
    23   11   12 ar   
    24   11  126 1    
    25   12   13 ar   
    26   12  137 1    
    27   13   14 ar   
    28   13   15 1    
    29   14  138 1    
    30   15   16 1    
    31   15  139 1    
    32   15  140 1    
    33   16   17 1    
    34   17   18 1    
    35   17  141 1    
    36   17  142 1    
    37   18   19 1    
    38   18   67 1    
    39   18  143 1    
    40   19   20 am   BACKBONE|DICT|INTERRES
    41   19  144 1    
    42   20   21 2    
    43   20   22 1    
    44   22   23 1    
    45   22   24 1    
    46   22  145 1    
    47   23  146 1    
    48   23  147 1    
    49   23  148 1    
    50   24   25 am   BACKBONE|DICT|INTERRES
    51   24  149 1    
    52   25   26 2    
    53   25   27 1    
    54   27   28 1    
    55   27   29 1    
    56   27  150 1    
    57   28  151 1    
    58   28  152 1    
    59   28  153 1    
    60   29   30 am   BACKBONE|DICT|INTERRES
    61   29  154 1    
    62   30   31 2    
    63   30   32 1    
    64   32   33 1    
    65   32   34 1    
    66   32  155 1    
    67   33  156 1    
    68   33  157 1    
    69   33  158 1    
    70   34   35 am   BACKBONE|DICT|INTERRES
    71   34  159 1    
    72   35   36 2    
    73   35   37 1    
    74   37   38 1    
    75   37   39 1    
    76   37  160 1    
    77   38  161 1    
    78   38  162 1    
    79   38  163 1    
    80   39   40 am   BACKBONE|DICT|INTERRES
    81   39  164 1    
    82   40   41 2    
    83   40   42 1    
    84   42   43 1    
    85   42   44 1    
    86   42  165 1    
    87   43  166 1    
    88   43  167 1    
    89   43  168 1    
    90   44   45 am   BACKBONE|DICT|INTERRES
    91   44  169 1    
    92   45   46 2    
    93   45   47 1    
    94   47   48 1    
    95   47   49 1    
    96   47  170 1    
    97   48  171 1    
    98   48  172 1    
    99   48  173 1    
   100   49   50 am   BACKBONE|DICT|INTERRES
   101   49  174 1    
   102   50   51 2    
   103   50   52 1    
   104   52   53 1    
   105   52   54 1    
   106   52  175 1    
   107   53  176 1    
   108   53  177 1    
   109   53  178 1    
   110   54   55 am   BACKBONE|DICT|INTERRES
   111   54  179 1    
   112   55   56 2    
   113   55   57 1    
   114   57   58 1    
   115   57   59 1    
   116   57  180 1    
   117   58  181 1    
   118   58  182 1    
   119   58  183 1    
   120   59   60 am   BACKBONE|DICT|INTERRES
   121   59  184 1    
   122   60   61 2    
   123   60   62 1    
   124   62   63 1    
   125   62   64 1    
   126   62  185 1    
   127   63  186 1    
   128   63  187 1    
   129   63  188 1    
   130   64   65 am   BACKBONE|DICT|INTERRES
   131   64  189 1    
   132   65   66 2    
   133   67   68 2    
   134   67   69 am   BACKBONE|DICT|INTERRES
   135   69   70 1    
   136   69  190 1    
   137   70   71 1    
   138   70   72 1    
   139   70  191 1    
   140   71  192 1    
   141   71  193 1    
   142   71  194 1    
   143   72   73 2    
   144   72   74 am   BACKBONE|DICT|INTERRES
   145   74   75 1    
   146   74  195 1    
   147   75   76 1    
   148   75   77 1    
   149   75  196 1    
   150   76  197 1    
   151   76  198 1    
   152   76  199 1    
   153   77   78 2    
   154   77   79 am   BACKBONE|DICT|INTERRES
   155   79   80 1    
   156   79  200 1    
   157   80   81 1    
   158   80   82 1    
   159   80  201 1    
   160   81  202 1    
   161   81  203 1    
   162   81  204 1    
   163   82   83 2    
   164   82   84 am   BACKBONE|DICT|INTERRES
   165   84   85 1    
   166   84  205 1    
   167   85   86 1    
   168   85   87 1    
   169   85  206 1    
   170   86  207 1    
   171   86  208 1    
   172   86  209 1    
   173   87   88 2    
   174   87   89 am   BACKBONE|DICT|INTERRES
   175   89   90 1    
   176   89  210 1    
   177   90   91 1    
   178   90   92 1    
   179   90  211 1    
   180   91  212 1    
   181   91  213 1    
   182   91  214 1    
   183   92   93 2    
   184   92   94 am   BACKBONE|DICT|INTERRES
   185   94   95 1    
   186   94  215 1    
   187   95   96 1    
   188   95   97 1    
   189   95  216 1    
   190   96  217 1    
   191   96  218 1    
   192   96  219 1    
   193   97   98 2    
   194   97   99 am   BACKBONE|DICT|INTERRES
   195   99  100 1    
   196   99  220 1    
   197  100  101 1    
   198  100  102 1    
   199  100  221 1    
   200  101  222 1    
   201  101  223 1    
   202  101  224 1    
   203  102  103 2    
   204  102  104 am   BACKBONE|DICT|INTERRES
   205  104  105 1    
   206  104  225 1    
   207  105  106 1    
   208  105  107 1    
   209  105  226 1    
   210  106  227 1    
   211  106  228 1    
   212  106  229 1    
   213  107  108 2    
   214  107  109 am   BACKBONE|DICT|INTERRES
   215  109  110 1    
   216  109  230 1    
   217  110  111 1    
   218  110  112 1    
   219  110  231 1    
   220  111  232 1    
   221  111  233 1    
   222  111  234 1    
   223  112  113 2    
   224  112  114 am   BACKBONE|DICT|INTERRES
   225  114  115 1    
   226  114  235 1    
   227  115  116 1    
   228  115  117 1    
   229  115  236 1    
   230  116  237 1    
   231  116  238 1    
   232  116  239 1    
   233  117  118 2    
   234  117  119 am   BACKBONE|DICT|INTERRES
   235  119  120 1    
   236  119  240 1    
   237  120  121 1    
   238  120  124 1    
   239  120  241 1    
   240  121  122 am   BACKBONE|DICT|INTERRES
   241  121  123 2    
   242  122  242 1    
   243  122  243 1    
   244  124  125 1    
   245  124  244 1    
   246  124  245 1    
   247  125  126 1    
   248  126  246 1    
   249  126  247 1    
@<TRIPOS>SUBSTRUCTURE
     1 UNK         1 GROUP             0       ****    0 ROOT    
