@<TRIPOS>MOLECULE
3R540
247   249    1
SMALL
USER_CHARGES


@<TRIPOS>ATOM
      1 CA          6.2933  -13.3945  -44.3352 C.3       0 UNK        -0.1800 
      2 C           4.8240  -13.5077  -44.7113 C.2       0 UNK         0.5000 
      3 O           3.9763  -12.9113  -44.0496 O.2       0 UNK        -0.5000 
      4 N           4.5178  -14.2513  -45.7828 N.am      1 UNK        -0.5000 
      5 CA          3.1596  -14.5277  -46.2749 C.3       1 UNK         0.1400 
      6 C6          3.1969  -15.5580  -47.4313 C.3       23 UNK        -0.0398 
      7 S7          1.6296  -16.4589  -47.6773 S.3       23 UNK        -0.2404 
      8 C8          0.9816  -15.6133  -49.1540 C.3       23 UNK        -0.0205 
      9 C9         -0.2157  -16.3451  -49.7381 C.ar      23 UNK        -0.0193 
     10 C10        -0.1007  -17.0436  -50.9423 C.ar      23 UNK        -0.1150 
     11 C11        -1.2016  -17.7134  -51.4878 C.ar      23 UNK        -0.0193 
     12 C12        -2.4279  -17.6764  -50.8143 C.ar      23 UNK        -0.1150 
     13 C13        -2.5570  -16.9736  -49.6118 C.ar      23 UNK        -0.0193 
     14 C14        -1.4484  -16.3057  -49.0853 C.ar      23 UNK        -0.1150 
     15 C15        -3.8950  -16.9060  -48.8874 C.3       23 UNK        -0.0205 
     16 S16        -4.4275  -18.5130  -48.2145 S.3       23 UNK        -0.2404 
     17 C17        -3.0223  -18.9948  -47.1470 C.3       23 UNK        -0.0398 
     18 CA         -2.3337  -20.2768  -47.6723 C.3       11 UNK         0.1400 
     19 N          -0.9393  -20.3906  -47.2442 N.am      11 UNK        -0.5000 
     20 C          -0.0850  -21.3138  -47.7107 C.2       10 UNK         0.5000 
     21 O          -0.3771  -22.1463  -48.5722 O.2       10 UNK        -0.5000 
     22 CA          1.3089  -21.3562  -47.0608 C.3       10 UNK         0.1400 
     23 CB          2.2899  -20.4683  -47.8386 C.3       10 UNK        -0.1800 
     24 N           1.3124  -20.9628  -45.6483 N.am      10 UNK        -0.5000 
     25 C           0.6358  -21.5753  -44.6657 C.2       9 UNK         0.5000 
     26 O          -0.1294  -22.5193  -44.8643 O.2       9 UNK        -0.5000 
     27 CA          0.7802  -21.0292  -43.2327 C.3       9 UNK         0.1400 
     28 CB          1.2049  -22.1296  -42.2410 C.3       9 UNK        -0.1800 
     29 N           1.6262  -19.8380  -43.1064 N.am      9 UNK        -0.5000 
     30 C           2.9569  -19.7240  -43.2266 C.2       8 UNK         0.5000 
     31 O           3.7078  -20.6457  -43.5436 O.2       8 UNK        -0.5000 
     32 CA          3.5418  -18.3272  -42.9414 C.3       8 UNK         0.1400 
     33 CB          3.5269  -17.4683  -44.2129 C.3       8 UNK        -0.1800 
     34 N           2.8180  -17.6245  -41.8798 N.am      8 UNK        -0.5000 
     35 C           2.8079  -18.0017  -40.5924 C.2       7 UNK         0.5000 
     36 O           3.4911  -18.9208  -40.1394 O.2       7 UNK        -0.5000 
     37 CA          1.8460  -17.2444  -39.6632 C.3       7 UNK         0.1400 
     38 CB          2.4783  -15.9328  -39.1749 C.3       7 UNK        -0.1800 
     39 N           0.5714  -16.9674  -40.3286 N.am      7 UNK        -0.5000 
     40 C          -0.4079  -17.8714  -40.4814 C.2       6 UNK         0.5000 
     41 O          -0.3546  -19.0176  -40.0357 O.2       6 UNK        -0.5000 
     42 CA         -1.6562  -17.4314  -41.2706 C.3       6 UNK         0.1400 
     43 CB         -2.7195  -16.8625  -40.3190 C.3       6 UNK        -0.1800 
     44 N          -1.3627  -16.4398  -42.3054 N.am      6 UNK        -0.5000 
     45 C          -0.7054  -16.6995  -43.4437 C.2       5 UNK         0.5000 
     46 O          -0.3029  -17.8180  -43.7612 O.2       5 UNK        -0.5000 
     47 CA         -0.4172  -15.4989  -44.3641 C.3       5 UNK         0.1400 
     48 CB         -1.5795  -15.2921  -45.3441 C.3       5 UNK        -0.1800 
     49 N          -0.1673  -14.2459  -43.6443 N.am      5 UNK        -0.5000 
     50 C           0.8011  -14.0545  -42.7402 C.2       4 UNK         0.5000 
     51 O           1.6161  -14.9229  -42.4200 O.2       4 UNK        -0.5000 
     52 CA          0.8427  -12.6687  -42.0837 C.3       4 UNK         0.1400 
     53 CB          1.3941  -12.7112  -40.6467 C.3       4 UNK        -0.1800 
     54 N           1.6588  -11.7788  -42.8979 N.am      4 UNK        -0.5000 
     55 C           1.5095  -10.4507  -42.9674 C.2       3 UNK         0.5000 
     56 O           0.6152   -9.8312  -42.3895 O.2       3 UNK        -0.5000 
     57 CA          2.5276   -9.6809  -43.8234 C.3       3 UNK         0.1400 
     58 CB          3.8538   -9.5089  -43.0651 C.3       3 UNK        -0.1800 
     59 N           2.7818  -10.3607  -45.0920 N.am      3 UNK        -0.5000 
     60 C           2.1486  -10.0875  -46.2411 C.2       2 UNK         0.5000 
     61 O           1.2888   -9.2130  -46.3561 O.2       2 UNK        -0.5000 
     62 CA          2.5453  -10.9156  -47.4808 C.3       2 UNK         0.1400 
     63 CB          3.5677  -10.1482  -48.3330 C.3       2 UNK        -0.1800 
     64 N           3.0983  -12.2292  -47.1489 N.am      2 UNK        -0.5000 
     65 C           2.3792  -13.2525  -46.6678 C.2       1 UNK         0.5000 
     66 O           1.1614  -13.2037  -46.4986 O.2       1 UNK        -0.5000 
     67 C          -3.1529  -21.5386  -47.3231 C.2       11 UNK         0.5000 
     68 O          -3.9833  -21.9627  -48.1233 O.2       11 UNK        -0.5000 
     69 N          -2.8897  -22.1377  -46.1559 N.am      12 UNK        -0.5000 
     70 CA         -3.5274  -23.3786  -45.7262 C.3       12 UNK         0.1400 
     71 CB         -3.5469  -23.4356  -44.1904 C.3       12 UNK        -0.1800 
     72 C          -2.8097  -24.6051  -46.3114 C.2       12 UNK         0.5000 
     73 O          -3.4685  -25.5039  -46.8343 O.2       12 UNK        -0.5000 
     74 N          -1.4756  -24.6205  -46.1958 N.am      13 UNK        -0.5000 
     75 CA         -0.6283  -25.7702  -46.5014 C.3       13 UNK         0.1400 
     76 CB          0.7623  -25.5476  -45.8864 C.3       13 UNK        -0.1800 
     77 C          -0.5066  -26.0868  -48.0008 C.2       13 UNK         0.5000 
     78 O          -0.5087  -27.2654  -48.3600 O.2       13 UNK        -0.5000 
     79 N          -0.3759  -25.0503  -48.8389 N.am      14 UNK        -0.5000 
     80 CA         -0.1111  -25.1917  -50.2709 C.3       14 UNK         0.1400 
     81 CB          1.1817  -24.4401  -50.6261 C.3       14 UNK        -0.1800 
     82 C          -1.2837  -24.6866  -51.1206 C.2       14 UNK         0.5000 
     83 O          -1.6665  -25.3621  -52.0762 O.2       14 UNK        -0.5000 
     84 N          -1.8318  -23.5132  -50.7756 N.am      15 UNK        -0.5000 
     85 CA         -2.8826  -22.8613  -51.5627 C.3       15 UNK         0.1400 
     86 CB         -2.8500  -21.3482  -51.3017 C.3       15 UNK        -0.1800 
     87 C          -4.2908  -23.4310  -51.3159 C.2       15 UNK         0.5000 
     88 O          -5.1788  -23.1883  -52.1333 O.2       15 UNK        -0.5000 
     89 N          -4.4785  -24.1450  -50.1956 N.am      16 UNK        -0.5000 
     90 CA         -5.7336  -24.7454  -49.7273 C.3       16 UNK         0.1400 
     91 CB         -6.1207  -25.9407  -50.6221 C.3       16 UNK        -0.1800 
     92 C          -6.8690  -23.7085  -49.5720 C.2       16 UNK         0.5000 
     93 O          -7.9804  -23.9251  -50.0557 O.2       16 UNK        -0.5000 
     94 N          -6.5411  -22.5862  -48.9165 N.am      17 UNK        -0.5000 
     95 CA         -7.3515  -21.3772  -48.7381 C.3       17 UNK         0.1400 
     96 CB         -8.6609  -21.6708  -47.9757 C.3       17 UNK        -0.1800 
     97 C          -7.5606  -20.6167  -50.0643 C.2       17 UNK         0.5000 
     98 O          -8.6486  -20.0963  -50.3173 O.2       17 UNK        -0.5000 
     99 N          -6.4927  -20.5659  -50.8756 N.am      18 UNK        -0.5000 
    100 CA        -6.3913  -19.9158  -52.1868 C.3       18 UNK         0.1400 
    101 CB        -6.4920  -18.3832  -52.0450 C.3       18 UNK        -0.1800 
    102 C         -7.3730  -20.5001  -53.2228 C.2       18 UNK         0.5000 
    103 O         -8.0239  -19.7561  -53.9597 O.2       18 UNK        -0.5000 
    104 N         -7.4494  -21.8351  -53.2789 N.am      19 UNK        -0.5000 
    105 CA        -8.3262  -22.6055  -54.1624 C.3       19 UNK         0.1400 
    106 CB        -8.6100  -23.9675  -53.5053 C.3       19 UNK        -0.1800 
    107 C         -7.7415  -22.7411  -55.5848 C.2       19 UNK         0.5000 
    108 O         -7.5995  -23.8558  -56.0909 O.2       19 UNK        -0.5000 
    109 N         -7.3999  -21.5959  -56.1954 N.am      20 UNK        -0.5000 
    110 CA        -6.7890  -21.4374  -57.5225 C.3       20 UNK         0.1400 
    111 CB        -7.7944  -21.8166  -58.6300 C.3       20 UNK        -0.1800 
    112 C         -5.4357  -22.1720  -57.6576 C.2       20 UNK         0.5000 
    113 O         -5.1379  -22.7474  -58.7064 O.2       20 UNK        -0.5000 
    114 N         -4.6446  -22.1442  -56.5807 N.am      21 UNK        -0.5000 
    115 CA        -3.3545  -22.8077  -56.4436 C.3       21 UNK         0.1400 
    116 CB        -3.5782  -24.2651  -55.9984 C.3       21 UNK        -0.1800 
    117 C         -2.5130  -22.0436  -55.4130 C.2       21 UNK         0.5000 
    118 O         -3.0492  -21.2050  -54.6843 O.2       21 UNK        -0.5000 
    119 N         -1.2191  -22.3672  -55.3537 N.am      22 UNK        -0.5000 
    120 CA        -0.2553  -21.8890  -54.3566 C.3       22 UNK         0.1400 
    121 C          1.0052  -22.7986  -54.3230 C.2       22 UNK         0.5000 
    122 N          1.9858  -22.4846  -53.4884 N.am      22 UNK        -0.7600 
    123 O          1.1061  -23.7886  -55.0458 O.2       22 UNK        -0.5000 
    124 C124        0.0816  -20.3765  -54.5010 C.3       23 UNK        -0.0398 
    125 S125        0.3298  -19.5902  -52.8725 S.3       23 UNK        -0.2404 
    126 C126       -1.0808  -18.4375  -52.8233 C.3       23 UNK        -0.0205 
    127 H127        6.6047  -12.3502  -44.3527 H         1 UNK         0.0600 
    128 H128        6.9320  -13.9534  -45.0194 H         1 UNK         0.0600 
    129 H129        6.4508  -13.7815  -43.3285 H         1 UNK         0.0600 
    130 H130        5.2672  -14.6987  -46.2915 H         1 UNK         0.3000 
    131 H131        2.6228  -14.9713  -45.4355 H         1 UNK         0.0600 
    132 H132        3.5255  -15.0945  -48.3631 H         1 UNK         0.0800 
    133 H133        3.9423  -16.3239  -47.2124 H         1 UNK         0.0800 
    134 H134        1.7707  -15.5300  -49.9029 H         1 UNK         0.0800 
    135 H135        0.6916  -14.5945  -48.8933 H         1 UNK         0.0800 
    136 H136        0.8473  -17.0641  -51.4612 H         1 UNK         0.1150 
    137 H137       -3.2869  -18.1856  -51.2275 H         1 UNK         0.1150 
    138 H138       -1.5393  -15.7495  -48.1649 H         1 UNK         0.1150 
    139 H139       -3.8577  -16.1809  -48.0727 H         1 UNK         0.0800 
    140 H140       -4.6562  -16.5442  -49.5795 H         1 UNK         0.0800 
    141 H141       -3.3730  -19.1169  -46.1205 H         1 UNK         0.0800 
    142 H142       -2.3059  -18.1750  -47.1151 H         1 UNK         0.0800 
    143 H143       -2.2874  -20.2004  -48.7583 H         1 UNK         0.0600 
    144 H144       -0.6183  -19.7522  -46.5310 H         1 UNK         0.3000 
    145 H145        1.6637  -22.3868  -47.1174 H         1 UNK         0.0600 
    146 H146        3.3008  -20.5504  -47.4388 H         1 UNK         0.0600 
    147 H147        2.3311  -20.7590  -48.8894 H         1 UNK         0.0600 
    148 H148        1.9975  -19.4190  -47.8010 H         1 UNK         0.0600 
    149 H149        1.9147  -20.1952  -45.3925 H         1 UNK         0.3000 
    150 H150       -0.2193  -20.7018  -42.9426 H         1 UNK         0.0600 
    151 H151        0.4814  -22.9458  -42.2306 H         1 UNK         0.0600 
    152 H152        1.2677  -21.7394  -41.2249 H         1 UNK         0.0600 
    153 H153        2.1732  -22.5591  -42.4983 H         1 UNK         0.0600 
    154 H154        1.1031  -18.9817  -42.9556 H         1 UNK         0.3000 
    155 H155        4.5786  -18.4547  -42.6233 H         1 UNK         0.0600 
    156 H156        2.5109  -17.2953  -44.5697 H         1 UNK         0.0600 
    157 H157        4.0826  -17.9486  -45.0193 H         1 UNK         0.0600 
    158 H158        3.9897  -16.4992  -44.0295 H         1 UNK         0.0600 
    159 H159        2.2780  -16.8086  -42.1504 H         1 UNK         0.3000 
    160 H160        1.6567  -17.8702  -38.7882 H         1 UNK         0.0600 
    161 H161        2.7652  -15.2891  -40.0058 H         1 UNK         0.0600 
    162 H162        3.3795  -16.1316  -38.5937 H         1 UNK         0.0600 
    163 H163        1.7943  -15.3762  -38.5343 H         1 UNK         0.0600 
    164 H164        0.4815  -16.0664  -40.7759 H         1 UNK         0.3000 
    165 H165       -2.0711  -18.3185  -41.7543 H         1 UNK         0.0600 
    166 H166       -3.6364  -16.6153  -40.8545 H         1 UNK         0.0600 
    167 H167       -2.9811  -17.5879  -39.5474 H         1 UNK         0.0600 
    168 H168       -2.3695  -15.9601  -39.8160 H         1 UNK         0.0600 
    169 H169       -1.6655  -15.4932  -42.1296 H         1 UNK         0.3000 
    170 H170        0.4770  -15.7391  -44.9395 H         1 UNK         0.0600 
    171 H171       -1.7990  -16.2121  -45.8849 H         1 UNK         0.0600 
    172 H172       -2.4927  -14.9885  -44.8309 H         1 UNK         0.0600 
    173 H173       -1.3378  -14.5274  -46.0825 H         1 UNK         0.0600 
    174 H174       -0.7679  -13.4697  -43.8818 H         1 UNK         0.3000 
    175 H175       -0.1822  -12.2937  -42.0422 H         1 UNK         0.0600 
    176 H176        2.4469  -12.9949  -40.6302 H         1 UNK         0.0600 
    177 H177        1.3058  -11.7389  -40.1621 H         1 UNK         0.0600 
    178 H178        0.8443  -13.4282  -40.0362 H         1 UNK         0.0600 
    179 H179        2.4369  -12.2207  -43.3865 H         1 UNK         0.3000 
    180 H180        2.1229   -8.6838  -44.0103 H         1 UNK         0.0600 
    181 H181        4.3212  -10.4678  -42.8387 H         1 UNK         0.0600 
    182 H182        3.6965   -8.9898  -42.1187 H         1 UNK         0.0600 
    183 H183        4.5642   -8.9195  -43.6448 H         1 UNK         0.0600 
    184 H184        3.4250  -11.1414  -45.0603 H         1 UNK         0.3000 
    185 H185        1.6443  -11.0634  -48.0802 H         1 UNK         0.0600 
    186 H186        3.1781   -9.1722  -48.6258 H         1 UNK         0.0600 
    187 H187        4.4990   -9.9804  -47.7907 H         1 UNK         0.0600 
    188 H188        3.8041  -10.6898  -49.2491 H         1 UNK         0.0600 
    189 H189        4.0967  -12.3429  -47.2483 H         1 UNK         0.3000 
    190 H190       -2.1337  -21.7921  -45.5805 H         1 UNK         0.3000 
    191 H191       -4.5636  -23.3961  -46.0720 H         1 UNK         0.0600 
    192 H192       -2.5417  -23.4060  -43.7680 H         1 UNK         0.0600 
    193 H193       -4.0230  -24.3525  -43.8406 H         1 UNK         0.0600 
    194 H194       -4.1084  -22.5991  -43.7740 H         1 UNK         0.0600 
    195 H195       -1.0157  -23.8334  -45.7422 H         1 UNK         0.3000 
    196 H196       -1.0697  -26.6443  -46.0176 H         1 UNK         0.0600 
    197 H197        1.4109  -26.4067  -46.0624 H         1 UNK         0.0600 
    198 H198        0.6980  -25.4041  -44.8075 H         1 UNK         0.0600 
    199 H199        1.2543  -24.6718  -46.3101 H         1 UNK         0.0600 
    200 H200       -0.4087  -24.1029  -48.4766 H         1 UNK         0.3000 
    201 H201        0.0451  -26.2403  -50.5325 H         1 UNK         0.0600 
    202 H202        1.4409  -24.5967  -51.6734 H         1 UNK         0.0600 
    203 H203        1.0900  -23.3653  -50.4670 H         1 UNK         0.0600 
    204 H204        2.0211  -24.7961  -50.0288 H         1 UNK         0.0600 
    205 H205       -1.4450  -22.9946  -49.9926 H         1 UNK         0.3000 
    206 H206       -2.6624  -23.0222  -52.6183 H         1 UNK         0.0600 
    207 H207       -1.8347  -20.9795  -51.1556 H         1 UNK         0.0600 
    208 H208       -3.2668  -20.8080  -52.1481 H         1 UNK         0.0600 
    209 H209       -3.4429  -21.0680  -50.4350 H         1 UNK         0.0600 
    210 H210       -3.6894  -24.2407  -49.5724 H         1 UNK         0.3000 
    211 H211       -5.5367  -25.1329  -48.7269 H         1 UNK         0.0600 
    212 H212       -6.3485  -25.6274  -51.6409 H         1 UNK         0.0600 
    213 H213       -7.0006  -26.4533  -50.2320 H         1 UNK         0.0600 
    214 H214       -5.3140  -26.6720  -50.6703 H         1 UNK         0.0600 
    215 H215       -5.5776  -22.4955  -48.5913 H         1 UNK         0.3000 
    216 H216       -6.7561  -20.7151  -48.1077 H         1 UNK         0.0600 
    217 H217       -9.1664  -20.7437  -47.7034 H         1 UNK         0.0600 
    218 H218       -8.4660  -22.2167  -47.0527 H         1 UNK         0.0600 
    219 H219       -9.3599  -22.2566  -48.5728 H         1 UNK         0.0600 
    220 H220       -5.6701  -21.0672  -50.5755 H         1 UNK         0.3000 
    221 H221       -5.3958  -20.1402  -52.5679 H         1 UNK         0.0600 
    222 H222       -7.4864  -18.0693  -51.7265 H         1 UNK         0.0600 
    223 H223       -5.7739  -18.0075  -51.3168 H         1 UNK         0.0600 
    224 H224       -6.2810  -17.8886  -52.9937 H         1 UNK         0.0600 
    225 H225       -6.8059  -22.3768  -52.7062 H         1 UNK         0.3000 
    226 H226       -9.2798  -22.0823  -54.2577 H         1 UNK         0.0600 
    227 H227       -9.0839  -23.8418  -52.5321 H         1 UNK         0.0600 
    228 H228       -9.2845  -24.5685  -54.1162 H         1 UNK         0.0600 
    229 H229       -7.6935  -24.5403  -53.3607 H         1 UNK         0.0600 
    230 H230       -7.5633  -20.7389  -55.6763 H         1 UNK         0.3000 
    231 H231       -6.5670  -20.3750  -57.6314 H         1 UNK         0.0600 
    232 H232       -8.7295  -21.2679  -58.5181 H         1 UNK         0.0600 
    233 H233       -8.0272  -22.8819  -58.6186 H         1 UNK         0.0600 
    234 H234       -7.3971  -21.5794  -59.6176 H         1 UNK         0.0600 
    235 H235       -4.9186  -21.6049  -55.7696 H         1 UNK         0.3000 
    236 H236       -2.8262  -22.7871  -57.3992 H         1 UNK         0.0600 
    237 H237       -2.6326  -24.7977  -55.8914 H         1 UNK         0.0600 
    238 H238       -4.0939  -24.3139  -55.0378 H         1 UNK         0.0600 
    239 H239       -4.1775  -24.8135  -56.7254 H         1 UNK         0.0600 
    240 H240       -0.8499  -23.0897  -55.9592 H         1 UNK         0.3000 
    241 H241       -0.7357  -22.0499  -53.3916 H         1 UNK         0.0600 
    242 H242        2.8130  -23.0596  -53.4611 H         1 UNK         0.3800 
    243 H243        1.9258  -21.6655  -52.9022 H         1 UNK         0.3800 
    244 H244        0.9713  -20.2225  -55.1140 H         1 UNK         0.0800 
    245 H245       -0.7158  -19.8461  -55.0219 H         1 UNK         0.0800 
    246 H246       -0.9643  -17.6957  -53.6143 H         1 UNK         0.0800 
    247 H247       -1.9958  -18.9879  -53.0461 H         1 UNK         0.0800 
@<TRIPOS>BOND
     1    1    2 1    
     2    1  127 1    
     3    1  128 1    
     4    1  129 1    
     5    2    3 2    
     6    2    4 am   BACKBONE|DICT|INTERRES
     7    4    5 1    
     8    4  130 1    
     9    5    6 1    
    10    5   65 1    
    11    5  131 1    
    12    6    7 1    
    13    6  132 1    
    14    6  133 1    
    15    7    8 1    
    16    8    9 1    
    17    8  134 1    
    18    8  135 1    
    19    9   10 ar   
    20    9   14 ar   
    21   10   11 ar   
    22   10  136 1    
    23   11   12 ar   
    24   11  126 1    
    25   12   13 ar   
    26   12  137 1    
    27   13   14 ar   
    28   13   15 1    
    29   14  138 1    
    30   15   16 1    
    31   15  139 1    
    32   15  140 1    
    33   16   17 1    
    34   17   18 1    
    35   17  141 1    
    36   17  142 1    
    37   18   19 1    
    38   18   67 1    
    39   18  143 1    
    40   19   20 am   BACKBONE|DICT|INTERRES
    41   19  144 1    
    42   20   21 2    
    43   20   22 1    
    44   22   23 1    
    45   22   24 1    
    46   22  145 1    
    47   23  146 1    
    48   23  147 1    
    49   23  148 1    
    50   24   25 am   BACKBONE|DICT|INTERRES
    51   24  149 1    
    52   25   26 2    
    53   25   27 1    
    54   27   28 1    
    55   27   29 1    
    56   27  150 1    
    57   28  151 1    
    58   28  152 1    
    59   28  153 1    
    60   29   30 am   BACKBONE|DICT|INTERRES
    61   29  154 1    
    62   30   31 2    
    63   30   32 1    
    64   32   33 1    
    65   32   34 1    
    66   32  155 1    
    67   33  156 1    
    68   33  157 1    
    69   33  158 1    
    70   34   35 am   BACKBONE|DICT|INTERRES
    71   34  159 1    
    72   35   36 2    
    73   35   37 1    
    74   37   38 1    
    75   37   39 1    
    76   37  160 1    
    77   38  161 1    
    78   38  162 1    
    79   38  163 1    
    80   39   40 am   BACKBONE|DICT|INTERRES
    81   39  164 1    
    82   40   41 2    
    83   40   42 1    
    84   42   43 1    
    85   42   44 1    
    86   42  165 1    
    87   43  166 1    
    88   43  167 1    
    89   43  168 1    
    90   44   45 am   BACKBONE|DICT|INTERRES
    91   44  169 1    
    92   45   46 2    
    93   45   47 1    
    94   47   48 1    
    95   47   49 1    
    96   47  170 1    
    97   48  171 1    
    98   48  172 1    
    99   48  173 1    
   100   49   50 am   BACKBONE|DICT|INTERRES
   101   49  174 1    
   102   50   51 2    
   103   50   52 1    
   104   52   53 1    
   105   52   54 1    
   106   52  175 1    
   107   53  176 1    
   108   53  177 1    
   109   53  178 1    
   110   54   55 am   BACKBONE|DICT|INTERRES
   111   54  179 1    
   112   55   56 2    
   113   55   57 1    
   114   57   58 1    
   115   57   59 1    
   116   57  180 1    
   117   58  181 1    
   118   58  182 1    
   119   58  183 1    
   120   59   60 am   BACKBONE|DICT|INTERRES
   121   59  184 1    
   122   60   61 2    
   123   60   62 1    
   124   62   63 1    
   125   62   64 1    
   126   62  185 1    
   127   63  186 1    
   128   63  187 1    
   129   63  188 1    
   130   64   65 am   BACKBONE|DICT|INTERRES
   131   64  189 1    
   132   65   66 2    
   133   67   68 2    
   134   67   69 am   BACKBONE|DICT|INTERRES
   135   69   70 1    
   136   69  190 1    
   137   70   71 1    
   138   70   72 1    
   139   70  191 1    
   140   71  192 1    
   141   71  193 1    
   142   71  194 1    
   143   72   73 2    
   144   72   74 am   BACKBONE|DICT|INTERRES
   145   74   75 1    
   146   74  195 1    
   147   75   76 1    
   148   75   77 1    
   149   75  196 1    
   150   76  197 1    
   151   76  198 1    
   152   76  199 1    
   153   77   78 2    
   154   77   79 am   BACKBONE|DICT|INTERRES
   155   79   80 1    
   156   79  200 1    
   157   80   81 1    
   158   80   82 1    
   159   80  201 1    
   160   81  202 1    
   161   81  203 1    
   162   81  204 1    
   163   82   83 2    
   164   82   84 am   BACKBONE|DICT|INTERRES
   165   84   85 1    
   166   84  205 1    
   167   85   86 1    
   168   85   87 1    
   169   85  206 1    
   170   86  207 1    
   171   86  208 1    
   172   86  209 1    
   173   87   88 2    
   174   87   89 am   BACKBONE|DICT|INTERRES
   175   89   90 1    
   176   89  210 1    
   177   90   91 1    
   178   90   92 1    
   179   90  211 1    
   180   91  212 1    
   181   91  213 1    
   182   91  214 1    
   183   92   93 2    
   184   92   94 am   BACKBONE|DICT|INTERRES
   185   94   95 1    
   186   94  215 1    
   187   95   96 1    
   188   95   97 1    
   189   95  216 1    
   190   96  217 1    
   191   96  218 1    
   192   96  219 1    
   193   97   98 2    
   194   97   99 am   BACKBONE|DICT|INTERRES
   195   99  100 1    
   196   99  220 1    
   197  100  101 1    
   198  100  102 1    
   199  100  221 1    
   200  101  222 1    
   201  101  223 1    
   202  101  224 1    
   203  102  103 2    
   204  102  104 am   BACKBONE|DICT|INTERRES
   205  104  105 1    
   206  104  225 1    
   207  105  106 1    
   208  105  107 1    
   209  105  226 1    
   210  106  227 1    
   211  106  228 1    
   212  106  229 1    
   213  107  108 2    
   214  107  109 am   BACKBONE|DICT|INTERRES
   215  109  110 1    
   216  109  230 1    
   217  110  111 1    
   218  110  112 1    
   219  110  231 1    
   220  111  232 1    
   221  111  233 1    
   222  111  234 1    
   223  112  113 2    
   224  112  114 am   BACKBONE|DICT|INTERRES
   225  114  115 1    
   226  114  235 1    
   227  115  116 1    
   228  115  117 1    
   229  115  236 1    
   230  116  237 1    
   231  116  238 1    
   232  116  239 1    
   233  117  118 2    
   234  117  119 am   BACKBONE|DICT|INTERRES
   235  119  120 1    
   236  119  240 1    
   237  120  121 1    
   238  120  124 1    
   239  120  241 1    
   240  121  122 am   BACKBONE|DICT|INTERRES
   241  121  123 2    
   242  122  242 1    
   243  122  243 1    
   244  124  125 1    
   245  124  244 1    
   246  124  245 1    
   247  125  126 1    
   248  126  246 1    
   249  126  247 1    
@<TRIPOS>SUBSTRUCTURE
     1 UNK         1 GROUP             0       ****    0 ROOT    
