@<TRIPOS>MOLECULE
3R540
247   249    1
SMALL
USER_CHARGES


@<TRIPOS>ATOM
      1 CA          1.4884  -17.3156  -48.9930 C.3       0 UNK        -0.1800 
      2 C           0.9649  -16.1659  -48.1467 C.2       0 UNK         0.5000 
      3 O           1.2930  -16.0710  -46.9647 O.2       0 UNK        -0.5000 
      4 N           0.1692  -15.2814  -48.7597 N.am      1 UNK        -0.5000 
      5 CA         -0.4825  -14.1130  -48.1467 C.3       1 UNK         0.1400 
      6 C6         -1.4744  -13.4351  -49.1270 C.3       23 UNK        -0.0398 
      7 S7         -0.7221  -12.9911  -50.7364 S.3       23 UNK        -0.2404 
      8 C8         -1.7876  -13.8708  -51.9236 C.3       23 UNK        -0.0205 
      9 C9         -1.7140  -15.3849  -51.7817 C.ar      23 UNK        -0.0193 
     10 C10        -0.5885  -16.0820  -52.2271 C.ar      23 UNK        -0.1150 
     11 C11        -0.5464  -17.4766  -52.1579 C.ar      23 UNK        -0.0193 
     12 C12        -1.6357  -18.1735  -51.6256 C.ar      23 UNK        -0.1150 
     13 C13        -2.7624  -17.4881  -51.1508 C.ar      23 UNK        -0.0193 
     14 C14        -2.7904  -16.0937  -51.2419 C.ar      23 UNK        -0.1150 
     15 C15        -3.9843  -18.1943  -50.5578 C.3       23 UNK        -0.0205 
     16 S16        -3.7399  -19.9196  -50.0107 S.3       23 UNK        -0.2404 
     17 C17        -2.5695  -19.6937  -48.6317 C.3       23 UNK        -0.0398 
     18 CA         -1.8352  -21.0137  -48.2804 C.3       11 UNK         0.1400 
     19 N          -0.4123  -20.8000  -48.0164 N.am      11 UNK        -0.5000 
     20 C           0.5079  -21.7731  -47.9451 C.2       10 UNK         0.5000 
     21 O           0.2615  -22.9617  -48.1337 O.2       10 UNK        -0.5000 
     22 CA          1.9281  -21.3465  -47.5292 C.3       10 UNK         0.1400 
     23 CB          2.7679  -20.9942  -48.7658 C.3       10 UNK        -0.1800 
     24 N           1.9153  -20.2112  -46.6027 N.am      10 UNK        -0.5000 
     25 C           1.3533  -20.2421  -45.3871 C.2       9 UNK         0.5000 
     26 O           0.8494  -21.2523  -44.8897 O.2       9 UNK        -0.5000 
     27 CA          1.2325  -18.8890  -44.6713 C.3       9 UNK         0.1400 
     28 CB         -0.1213  -18.2494  -45.0196 C.3       9 UNK        -0.1800 
     29 N           1.3475  -19.0000  -43.2183 N.am      9 UNK        -0.5000 
     30 C           2.4541  -19.3888  -42.5674 C.2       8 UNK         0.5000 
     31 O           3.5039  -19.6879  -43.1386 O.2       8 UNK        -0.5000 
     32 CA          2.4142  -19.4137  -41.0247 C.3       8 UNK         0.1400 
     33 CB          3.4423  -18.4291  -40.4427 C.3       8 UNK        -0.1800 
     34 N           1.1005  -19.0832  -40.4720 N.am      8 UNK        -0.5000 
     35 C           0.0955  -19.9492  -40.2886 C.2       7 UNK         0.5000 
     36 O           0.1698  -21.1502  -40.5470 O.2       7 UNK        -0.5000 
     37 CA         -1.2190  -19.3683  -39.7294 C.3       7 UNK         0.1400 
     38 CB         -1.3045  -19.5947  -38.2126 C.3       7 UNK        -0.1800 
     39 N          -1.3847  -17.9379  -40.0042 N.am      7 UNK        -0.5000 
     40 C          -1.5818  -17.4059  -41.2157 C.2       6 UNK         0.5000 
     41 O          -1.6450  -18.0807  -42.2407 O.2       6 UNK        -0.5000 
     42 CA         -1.6839  -15.8726  -41.3143 C.3       6 UNK         0.1400 
     43 CB         -3.0743  -15.3724  -40.8801 C.3       6 UNK        -0.1800 
     44 N          -0.6063  -15.1463  -40.6289 N.am      6 UNK        -0.5000 
     45 C          -0.3479  -15.0478  -39.3144 C.2       5 UNK         0.5000 
     46 O          -1.0073  -15.6183  -38.4445 O.2       5 UNK        -0.5000 
     47 CA          0.8669  -14.1959  -38.8877 C.3       5 UNK         0.1400 
     48 CB          2.0152  -15.1042  -38.4205 C.3       5 UNK        -0.1800 
     49 N           1.3686  -13.3137  -39.9431 N.am      5 UNK        -0.5000 
     50 C           0.7473  -12.2136  -40.3911 C.2       4 UNK         0.5000 
     51 O          -0.2875  -11.7661  -39.8959 O.2       4 UNK        -0.5000 
     52 CA          1.3706  -11.5075  -41.6140 C.3       4 UNK         0.1400 
     53 CB          2.1732  -10.2749  -41.1702 C.3       4 UNK        -0.1800 
     54 N           2.2322  -12.3609  -42.4423 N.am      4 UNK        -0.5000 
     55 C           1.8419  -13.4655  -43.0919 C.2       3 UNK         0.5000 
     56 O           0.7014  -13.9284  -43.0277 O.2       3 UNK        -0.5000 
     57 CA          2.9097  -14.1707  -43.9475 C.3       3 UNK         0.1400 
     58 CB          2.7993  -15.6979  -43.8322 C.3       3 UNK        -0.1800 
     59 N           2.7778  -13.7845  -45.3501 N.am      3 UNK        -0.5000 
     60 C           3.1547  -12.5978  -45.8496 C.2       2 UNK         0.5000 
     61 O           3.7306  -11.7357  -45.1838 O.2       2 UNK        -0.5000 
     62 CA          2.8498  -12.3145  -47.3359 C.3       2 UNK         0.1400 
     63 CB          4.1109  -12.5145  -48.1903 C.3       2 UNK        -0.1800 
     64 N           1.7744  -13.1394  -47.8867 N.am      2 UNK        -0.5000 
     65 C           0.4846  -13.0744  -47.5278 C.2       1 UNK         0.5000 
     66 O           0.0459  -12.2445  -46.7302 O.2       1 UNK        -0.5000 
     67 C          -2.5325  -21.7653  -47.1295 C.2       11 UNK         0.5000 
     68 O          -3.3601  -22.6358  -47.3933 O.2       11 UNK        -0.5000 
     69 N          -2.1603  -21.4531  -45.8790 N.am      12 UNK        -0.5000 
     70 CA         -2.6557  -22.1398  -44.6852 C.3       12 UNK         0.1400 
     71 CB         -2.3038  -21.3336  -43.4249 C.3       12 UNK        -0.1800 
     72 C          -2.1205  -23.5788  -44.5990 C.2       12 UNK         0.5000 
     73 O          -2.8941  -24.4954  -44.3218 O.2       12 UNK        -0.5000 
     74 N          -0.8266  -23.7583  -44.9036 N.am      13 UNK        -0.5000 
     75 CA         -0.1632  -25.0623  -44.9901 C.3       13 UNK         0.1400 
     76 CB          1.3448  -24.8533  -45.1931 C.3       13 UNK        -0.1800 
     77 C          -0.7469  -25.9645  -46.0971 C.2       13 UNK         0.5000 
     78 O          -0.8956  -27.1685  -45.8868 O.2       13 UNK        -0.5000 
     79 N          -1.1021  -25.3594  -47.2384 N.am      14 UNK        -0.5000 
     80 CA         -1.7564  -26.0092  -48.3757 C.3       14 UNK         0.1400 
     81 CB         -1.5178  -25.1569  -49.6334 C.3       14 UNK        -0.1800 
     82 C          -3.2677  -26.2463  -48.1773 C.2       14 UNK         0.5000 
     83 O          -3.8894  -26.8468  -49.0532 O.2       14 UNK        -0.5000 
     84 N          -3.8462  -25.7500  -47.0727 N.am      15 UNK        -0.5000 
     85 CA         -5.2744  -25.7858  -46.7344 C.3       15 UNK         0.1400 
     86 CB         -5.7293  -27.2285  -46.4315 C.3       15 UNK        -0.1800 
     87 C          -6.1474  -25.0798  -47.7956 C.2       15 UNK         0.5000 
     88 O          -7.1736  -25.6129  -48.2201 O.2       15 UNK        -0.5000 
     89 N          -5.6862  -23.8944  -48.2170 N.am      16 UNK        -0.5000 
     90 CA         -6.2520  -22.9822  -49.2149 C.3       16 UNK         0.1400 
     91 CB         -7.6988  -22.5790  -48.8652 C.3       16 UNK        -0.1800 
     92 C          -6.1164  -23.4513  -50.6774 C.2       16 UNK         0.5000 
     93 O          -6.5449  -22.7228  -51.5720 O.2       16 UNK        -0.5000 
     94 N          -5.4953  -24.6144  -50.9296 N.am      17 UNK        -0.5000 
     95 CA         -5.3026  -25.1640  -52.2779 C.3       17 UNK         0.1400 
     96 CB         -4.7993  -26.6108  -52.1796 C.3       17 UNK        -0.1800 
     97 C          -4.3559  -24.3232  -53.1577 C.2       17 UNK         0.5000 
     98 O          -4.4981  -24.3281  -54.3811 O.2       17 UNK        -0.5000 
     99 N          -3.4310  -23.5892  -52.5219 N.am      18 UNK        -0.5000 
    100 CA        -2.4885  -22.6830  -53.1808 C.3       18 UNK         0.1400 
    101 CB        -1.3754  -22.2977  -52.1968 C.3       18 UNK        -0.1800 
    102 C         -3.1510  -21.4232  -53.7715 C.2       18 UNK         0.5000 
    103 O         -2.5399  -20.7750  -54.6195 O.2       18 UNK        -0.5000 
    104 N         -4.3937  -21.1091  -53.3715 N.am      19 UNK        -0.5000 
    105 CA        -5.1650  -19.9696  -53.8783 C.3       19 UNK         0.1400 
    106 CB        -6.5036  -19.8826  -53.1312 C.3       19 UNK        -0.1800 
    107 C         -5.4044  -20.0195  -55.4007 C.2       19 UNK         0.5000 
    108 O         -5.4727  -18.9693  -56.0382 O.2       19 UNK        -0.5000 
    109 N         -5.4714  -21.2333  -55.9638 N.am      20 UNK        -0.5000 
    110 CA        -5.5636  -21.4758  -57.4030 C.3       20 UNK         0.1400 
    111 CB        -6.0201  -22.9258  -57.6266 C.3       20 UNK        -0.1800 
    112 C         -4.2453  -21.2055  -58.1592 C.2       20 UNK         0.5000 
    113 O         -4.2876  -20.9881  -59.3709 O.2       20 UNK        -0.5000 
    114 N         -3.1071  -21.2412  -57.4524 N.am      21 UNK        -0.5000 
    115 CA        -1.7696  -21.0649  -58.0162 C.3       21 UNK         0.1400 
    116 CB        -0.8099  -22.0686  -57.3559 C.3       21 UNK        -0.1800 
    117 C         -1.2483  -19.6298  -57.8354 C.2       21 UNK         0.5000 
    118 O         -0.6100  -19.1064  -58.7501 O.2       21 UNK        -0.5000 
    119 N         -1.5114  -19.0259  -56.6704 N.am      22 UNK        -0.5000 
    120 CA        -0.9535  -17.7268  -56.2555 C.3       22 UNK         0.1400 
    121 C         -1.9690  -16.7608  -55.5853 C.2       22 UNK         0.5000 
    122 N         -3.2455  -17.0983  -55.4623 N.am      22 UNK        -0.7600 
    123 O         -1.6071  -15.6435  -55.2288 O.2       22 UNK        -0.5000 
    124 C124        0.3805  -17.8786  -55.4650 C.3       23 UNK        -0.0398 
    125 S125        0.3716  -19.1692  -54.1665 S.3       23 UNK        -0.2404 
    126 C126        0.6830  -18.2324  -52.6382 C.3       23 UNK        -0.0205 
    127 H127        0.7908  -18.1515  -48.9666 H         1 UNK         0.0600 
    128 H128        2.4548  -17.6545  -48.6204 H         1 UNK         0.0600 
    129 H129        1.6193  -17.0096  -50.0307 H         1 UNK         0.0600 
    130 H130       -0.0434  -15.4106  -49.7397 H         1 UNK         0.3000 
    131 H131       -1.0689  -14.4970  -47.3093 H         1 UNK         0.0600 
    132 H132       -2.3212  -14.1004  -49.2921 H         1 UNK         0.0800 
    133 H133       -1.9072  -12.5350  -48.6865 H         1 UNK         0.0800 
    134 H134       -1.4857  -13.5975  -52.9360 H         1 UNK         0.0800 
    135 H135       -2.8148  -13.5205  -51.8114 H         1 UNK         0.0800 
    136 H136        0.2428  -15.5362  -52.6507 H         1 UNK         0.1150 
    137 H137       -1.5951  -19.2518  -51.5911 H         1 UNK         0.1150 
    138 H138       -3.6644  -15.5564  -50.9011 H         1 UNK         0.1150 
    139 H139       -4.3566  -17.6216  -49.7069 H         1 UNK         0.0800 
    140 H140       -4.7774  -18.1795  -51.3046 H         1 UNK         0.0800 
    141 H141       -3.0987  -19.2692  -47.7761 H         1 UNK         0.0800 
    142 H142       -1.8498  -18.9313  -48.9301 H         1 UNK         0.0800 
    143 H143       -1.8768  -21.6808  -49.1416 H         1 UNK         0.0600 
    144 H144       -0.1180  -19.8536  -47.8370 H         1 UNK         0.3000 
    145 H145        2.3980  -22.1914  -47.0219 H         1 UNK         0.0600 
    146 H146        3.7859  -20.7205  -48.4880 H         1 UNK         0.0600 
    147 H147        2.8357  -21.8465  -49.4433 H         1 UNK         0.0600 
    148 H148        2.3374  -20.1655  -49.3284 H         1 UNK         0.0600 
    149 H149        2.3215  -19.3492  -46.9357 H         1 UNK         0.3000 
    150 H150        2.0329  -18.2386  -45.0280 H         1 UNK         0.0600 
    151 H151       -0.2411  -18.1332  -46.0965 H         1 UNK         0.0600 
    152 H152       -0.2182  -17.2579  -44.5772 H         1 UNK         0.0600 
    153 H153       -0.9555  -18.8552  -44.6663 H         1 UNK         0.0600 
    154 H154        0.5092  -18.8082  -42.6867 H         1 UNK         0.3000 
    155 H155        2.6920  -20.4213  -40.7085 H         1 UNK         0.0600 
    156 H156        3.2455  -17.4062  -40.7637 H         1 UNK         0.0600 
    157 H157        4.4536  -18.6828  -40.7630 H         1 UNK         0.0600 
    158 H158        3.4357  -18.4476  -39.3527 H         1 UNK         0.0600 
    159 H159        0.9400  -18.1166  -40.2324 H         1 UNK         0.3000 
    160 H160       -2.0432  -19.9039  -40.2053 H         1 UNK         0.0600 
    161 H161       -0.5156  -19.0603  -37.6817 H         1 UNK         0.0600 
    162 H162       -1.2077  -20.6534  -37.9683 H         1 UNK         0.0600 
    163 H163       -2.2628  -19.2570  -37.8173 H         1 UNK         0.0600 
    164 H164       -1.3292  -17.2977  -39.2159 H         1 UNK         0.3000 
    165 H165       -1.5689  -15.6244  -42.3709 H         1 UNK         0.0600 
    166 H166       -3.2850  -15.5983  -39.8346 H         1 UNK         0.0600 
    167 H167       -3.1633  -14.2943  -41.0148 H         1 UNK         0.0600 
    168 H168       -3.8579  -15.8406  -41.4770 H         1 UNK         0.0600 
    169 H169        0.0074  -14.6445  -41.2631 H         1 UNK         0.3000 
    170 H170        0.5518  -13.5793  -38.0434 H         1 UNK         0.0600 
    171 H171        1.6916  -15.7650  -37.6151 H         1 UNK         0.0600 
    172 H172        2.3865  -15.7317  -39.2306 H         1 UNK         0.0600 
    173 H173        2.8517  -14.5179  -38.0396 H         1 UNK         0.0600 
    174 H174        2.2235  -13.5937  -40.4003 H         1 UNK         0.3000 
    175 H175        0.5450  -11.1687  -42.2432 H         1 UNK         0.0600 
    176 H176        3.0330  -10.5539  -40.5598 H         1 UNK         0.0600 
    177 H177        2.5386   -9.7114  -42.0291 H         1 UNK         0.0600 
    178 H178        1.5561   -9.5974  -40.5784 H         1 UNK         0.0600 
    179 H179        3.1769  -12.0315  -42.5857 H         1 UNK         0.3000 
    180 H180        3.9001  -13.8812  -43.5898 H         1 UNK         0.0600 
    181 H181        3.5736  -16.1977  -44.4142 H         1 UNK         0.0600 
    182 H182        1.8319  -16.0502  -44.1881 H         1 UNK         0.0600 
    183 H183        2.9062  -16.0223  -42.7970 H         1 UNK         0.0600 
    184 H184        2.2835  -14.4348  -45.9509 H         1 UNK         0.3000 
    185 H185        2.5457  -11.2686  -47.4129 H         1 UNK         0.0600 
    186 H186        3.9304  -12.2430  -49.2306 H         1 UNK         0.0600 
    187 H187        4.9302  -11.8905  -47.8307 H         1 UNK         0.0600 
    188 H188        4.4521  -13.5503  -48.1666 H         1 UNK         0.0600 
    189 H189        2.0428  -13.8532  -48.5477 H         1 UNK         0.3000 
    190 H190       -1.4252  -20.7778  -45.7367 H         1 UNK         0.3000 
    191 H191       -3.7445  -22.1942  -44.7528 H         1 UNK         0.0600 
    192 H192       -2.6929  -21.8207  -42.5301 H         1 UNK         0.0600 
    193 H193       -2.7382  -20.3347  -43.4631 H         1 UNK         0.0600 
    194 H194       -1.2276  -21.2250  -43.2913 H         1 UNK         0.0600 
    195 H195       -0.2524  -22.9393  -45.0780 H         1 UNK         0.3000 
    196 H196       -0.3103  -25.5715  -44.0354 H         1 UNK         0.0600 
    197 H197        1.5587  -24.3574  -46.1398 H         1 UNK         0.0600 
    198 H198        1.7709  -24.2465  -44.3938 H         1 UNK         0.0600 
    199 H199        1.8733  -25.8073  -45.1963 H         1 UNK         0.0600 
    200 H200       -0.8635  -24.3802  -47.3620 H         1 UNK         0.3000 
    201 H201       -1.2932  -26.9852  -48.5334 H         1 UNK         0.0600 
    202 H202       -1.9703  -24.1694  -49.5382 H         1 UNK         0.0600 
    203 H203       -1.9400  -25.6299  -50.5204 H         1 UNK         0.0600 
    204 H204       -0.4526  -25.0209  -49.8208 H         1 UNK         0.0600 
    205 H205       -3.2583  -25.2555  -46.4138 H         1 UNK         0.3000 
    206 H206       -5.3841  -25.2072  -45.8161 H         1 UNK         0.0600 
    207 H207       -5.1028  -27.6852  -45.6653 H         1 UNK         0.0600 
    208 H208       -6.7556  -27.2443  -46.0629 H         1 UNK         0.0600 
    209 H209       -5.6911  -27.8625  -47.3178 H         1 UNK         0.0600 
    210 H210       -4.8075  -23.5643  -47.8165 H         1 UNK         0.3000 
    211 H211       -5.6461  -22.0788  -49.1441 H         1 UNK         0.0600 
    212 H212       -8.0424  -21.7676  -49.5080 H         1 UNK         0.0600 
    213 H213       -7.7735  -22.2287  -47.8358 H         1 UNK         0.0600 
    214 H214       -8.3956  -23.4077  -48.9920 H         1 UNK         0.0600 
    215 H215       -5.1753  -25.1804  -50.1542 H         1 UNK         0.3000 
    216 H216       -6.2769  -25.1799  -52.7708 H         1 UNK         0.0600 
    217 H217       -3.8033  -26.6623  -51.7398 H         1 UNK         0.0600 
    218 H218       -4.7435  -27.0711  -53.1668 H         1 UNK         0.0600 
    219 H219       -5.4669  -27.2226  -51.5725 H         1 UNK         0.0600 
    220 H220       -3.3971  -23.6321  -51.5149 H         1 UNK         0.3000 
    221 H221       -2.0290  -23.2228  -54.0115 H         1 UNK         0.0600 
    222 H222       -0.8760  -23.1775  -51.7916 H         1 UNK         0.0600 
    223 H223       -1.7648  -21.7136  -51.3666 H         1 UNK         0.0600 
    224 H224       -0.6136  -21.6922  -52.6891 H         1 UNK         0.0600 
    225 H225       -4.8562  -21.6974  -52.6901 H         1 UNK         0.3000 
    226 H226       -4.5905  -19.0668  -53.6615 H         1 UNK         0.0600 
    227 H227       -7.1438  -20.7365  -53.3559 H         1 UNK         0.0600 
    228 H228       -6.3577  -19.8527  -52.0514 H         1 UNK         0.0600 
    229 H229       -7.0486  -18.9809  -53.4126 H         1 UNK         0.0600 
    230 H230       -5.3868  -22.0472  -55.3700 H         1 UNK         0.3000 
    231 H231       -6.3237  -20.8106  -57.8181 H         1 UNK         0.0600 
    232 H232       -5.3056  -23.6397  -57.2142 H         1 UNK         0.0600 
    233 H233       -6.1267  -23.1439  -58.6901 H         1 UNK         0.0600 
    234 H234       -6.9873  -23.1116  -57.1593 H         1 UNK         0.0600 
    235 H235       -3.1546  -21.3530  -56.4467 H         1 UNK         0.3000 
    236 H236       -1.7858  -21.2808  -59.0866 H         1 UNK         0.0600 
    237 H237       -1.1470  -23.0941  -57.5074 H         1 UNK         0.0600 
    238 H238        0.1905  -21.9884  -57.7828 H         1 UNK         0.0600 
    239 H239       -0.7203  -21.9004  -56.2821 H         1 UNK         0.0600 
    240 H240       -1.9748  -19.5548  -55.9357 H         1 UNK         0.3000 
    241 H241       -0.6988  -17.1777  -57.1637 H         1 UNK         0.0600 
    242 H242       -3.8773  -16.4341  -55.0464 H         1 UNK         0.3800 
    243 H243       -3.6143  -17.9611  -55.8357 H         1 UNK         0.3800 
    244 H244        0.7012  -16.9256  -55.0417 H         1 UNK         0.0800 
    245 H245        1.1675  -18.1544  -56.1677 H         1 UNK         0.0800 
    246 H246        0.9885  -18.9335  -51.8602 H         1 UNK         0.0800 
    247 H247        1.5277  -17.5583  -52.7871 H         1 UNK         0.0800 
@<TRIPOS>BOND
     1    1    2 1    
     2    1  127 1    
     3    1  128 1    
     4    1  129 1    
     5    2    3 2    
     6    2    4 am   BACKBONE|DICT|INTERRES
     7    4    5 1    
     8    4  130 1    
     9    5    6 1    
    10    5   65 1    
    11    5  131 1    
    12    6    7 1    
    13    6  132 1    
    14    6  133 1    
    15    7    8 1    
    16    8    9 1    
    17    8  134 1    
    18    8  135 1    
    19    9   10 ar   
    20    9   14 ar   
    21   10   11 ar   
    22   10  136 1    
    23   11   12 ar   
    24   11  126 1    
    25   12   13 ar   
    26   12  137 1    
    27   13   14 ar   
    28   13   15 1    
    29   14  138 1    
    30   15   16 1    
    31   15  139 1    
    32   15  140 1    
    33   16   17 1    
    34   17   18 1    
    35   17  141 1    
    36   17  142 1    
    37   18   19 1    
    38   18   67 1    
    39   18  143 1    
    40   19   20 am   BACKBONE|DICT|INTERRES
    41   19  144 1    
    42   20   21 2    
    43   20   22 1    
    44   22   23 1    
    45   22   24 1    
    46   22  145 1    
    47   23  146 1    
    48   23  147 1    
    49   23  148 1    
    50   24   25 am   BACKBONE|DICT|INTERRES
    51   24  149 1    
    52   25   26 2    
    53   25   27 1    
    54   27   28 1    
    55   27   29 1    
    56   27  150 1    
    57   28  151 1    
    58   28  152 1    
    59   28  153 1    
    60   29   30 am   BACKBONE|DICT|INTERRES
    61   29  154 1    
    62   30   31 2    
    63   30   32 1    
    64   32   33 1    
    65   32   34 1    
    66   32  155 1    
    67   33  156 1    
    68   33  157 1    
    69   33  158 1    
    70   34   35 am   BACKBONE|DICT|INTERRES
    71   34  159 1    
    72   35   36 2    
    73   35   37 1    
    74   37   38 1    
    75   37   39 1    
    76   37  160 1    
    77   38  161 1    
    78   38  162 1    
    79   38  163 1    
    80   39   40 am   BACKBONE|DICT|INTERRES
    81   39  164 1    
    82   40   41 2    
    83   40   42 1    
    84   42   43 1    
    85   42   44 1    
    86   42  165 1    
    87   43  166 1    
    88   43  167 1    
    89   43  168 1    
    90   44   45 am   BACKBONE|DICT|INTERRES
    91   44  169 1    
    92   45   46 2    
    93   45   47 1    
    94   47   48 1    
    95   47   49 1    
    96   47  170 1    
    97   48  171 1    
    98   48  172 1    
    99   48  173 1    
   100   49   50 am   BACKBONE|DICT|INTERRES
   101   49  174 1    
   102   50   51 2    
   103   50   52 1    
   104   52   53 1    
   105   52   54 1    
   106   52  175 1    
   107   53  176 1    
   108   53  177 1    
   109   53  178 1    
   110   54   55 am   BACKBONE|DICT|INTERRES
   111   54  179 1    
   112   55   56 2    
   113   55   57 1    
   114   57   58 1    
   115   57   59 1    
   116   57  180 1    
   117   58  181 1    
   118   58  182 1    
   119   58  183 1    
   120   59   60 am   BACKBONE|DICT|INTERRES
   121   59  184 1    
   122   60   61 2    
   123   60   62 1    
   124   62   63 1    
   125   62   64 1    
   126   62  185 1    
   127   63  186 1    
   128   63  187 1    
   129   63  188 1    
   130   64   65 am   BACKBONE|DICT|INTERRES
   131   64  189 1    
   132   65   66 2    
   133   67   68 2    
   134   67   69 am   BACKBONE|DICT|INTERRES
   135   69   70 1    
   136   69  190 1    
   137   70   71 1    
   138   70   72 1    
   139   70  191 1    
   140   71  192 1    
   141   71  193 1    
   142   71  194 1    
   143   72   73 2    
   144   72   74 am   BACKBONE|DICT|INTERRES
   145   74   75 1    
   146   74  195 1    
   147   75   76 1    
   148   75   77 1    
   149   75  196 1    
   150   76  197 1    
   151   76  198 1    
   152   76  199 1    
   153   77   78 2    
   154   77   79 am   BACKBONE|DICT|INTERRES
   155   79   80 1    
   156   79  200 1    
   157   80   81 1    
   158   80   82 1    
   159   80  201 1    
   160   81  202 1    
   161   81  203 1    
   162   81  204 1    
   163   82   83 2    
   164   82   84 am   BACKBONE|DICT|INTERRES
   165   84   85 1    
   166   84  205 1    
   167   85   86 1    
   168   85   87 1    
   169   85  206 1    
   170   86  207 1    
   171   86  208 1    
   172   86  209 1    
   173   87   88 2    
   174   87   89 am   BACKBONE|DICT|INTERRES
   175   89   90 1    
   176   89  210 1    
   177   90   91 1    
   178   90   92 1    
   179   90  211 1    
   180   91  212 1    
   181   91  213 1    
   182   91  214 1    
   183   92   93 2    
   184   92   94 am   BACKBONE|DICT|INTERRES
   185   94   95 1    
   186   94  215 1    
   187   95   96 1    
   188   95   97 1    
   189   95  216 1    
   190   96  217 1    
   191   96  218 1    
   192   96  219 1    
   193   97   98 2    
   194   97   99 am   BACKBONE|DICT|INTERRES
   195   99  100 1    
   196   99  220 1    
   197  100  101 1    
   198  100  102 1    
   199  100  221 1    
   200  101  222 1    
   201  101  223 1    
   202  101  224 1    
   203  102  103 2    
   204  102  104 am   BACKBONE|DICT|INTERRES
   205  104  105 1    
   206  104  225 1    
   207  105  106 1    
   208  105  107 1    
   209  105  226 1    
   210  106  227 1    
   211  106  228 1    
   212  106  229 1    
   213  107  108 2    
   214  107  109 am   BACKBONE|DICT|INTERRES
   215  109  110 1    
   216  109  230 1    
   217  110  111 1    
   218  110  112 1    
   219  110  231 1    
   220  111  232 1    
   221  111  233 1    
   222  111  234 1    
   223  112  113 2    
   224  112  114 am   BACKBONE|DICT|INTERRES
   225  114  115 1    
   226  114  235 1    
   227  115  116 1    
   228  115  117 1    
   229  115  236 1    
   230  116  237 1    
   231  116  238 1    
   232  116  239 1    
   233  117  118 2    
   234  117  119 am   BACKBONE|DICT|INTERRES
   235  119  120 1    
   236  119  240 1    
   237  120  121 1    
   238  120  124 1    
   239  120  241 1    
   240  121  122 am   BACKBONE|DICT|INTERRES
   241  121  123 2    
   242  122  242 1    
   243  122  243 1    
   244  124  125 1    
   245  124  244 1    
   246  124  245 1    
   247  125  126 1    
   248  126  246 1    
   249  126  247 1    
@<TRIPOS>SUBSTRUCTURE
     1 UNK         1 GROUP             0       ****    0 ROOT    
