@<TRIPOS>MOLECULE
3R540
247   249    1
SMALL
USER_CHARGES


@<TRIPOS>ATOM
      1 CA         -3.5743  -11.4731  -49.7150 C.3       0 UNK        -0.1800 
      2 C          -2.5629  -12.4814  -49.1901 C.2       0 UNK         0.5000 
      3 O          -1.3618  -12.2158  -49.2187 O.2       0 UNK        -0.5000 
      4 N          -3.0455  -13.6303  -48.6987 N.am      1 UNK        -0.5000 
      5 CA         -2.2528  -14.7707  -48.2125 C.3       1 UNK         0.1400 
      6 C6         -3.1566  -15.9352  -47.7533 C.3       23 UNK        -0.0398 
      7 S7         -4.2199  -16.5638  -49.0874 S.3       23 UNK        -0.2404 
      8 C8         -5.1306  -17.8729  -48.2129 C.3       23 UNK        -0.0205 
      9 C9         -5.6114  -18.9208  -49.1987 C.ar      23 UNK        -0.0193 
     10 C10        -6.7558  -18.6974  -49.9673 C.ar      23 UNK        -0.1150 
     11 C11        -7.1403  -19.6177  -50.9462 C.ar      23 UNK        -0.0193 
     12 C12        -6.3856  -20.7810  -51.1333 C.ar      23 UNK        -0.1150 
     13 C13        -5.2527  -21.0250  -50.3510 C.ar      23 UNK        -0.0193 
     14 C14        -4.8772  -20.0945  -49.3791 C.ar      23 UNK        -0.1150 
     15 C15        -4.4002  -22.2639  -50.5855 C.3       23 UNK        -0.0205 
     16 S16        -5.1830  -23.8044  -50.0034 S.3       23 UNK        -0.2404 
     17 C17        -5.5848  -23.4411  -48.2585 C.3       23 UNK        -0.0398 
     18 CA         -4.3642  -23.2724  -47.3196 C.3       11 UNK         0.1400 
     19 N          -4.7683  -22.6353  -46.0594 N.am      11 UNK        -0.5000 
     20 C          -3.9321  -22.2134  -45.1032 C.2       10 UNK         0.5000 
     21 O          -2.7093  -22.3651  -45.1486 O.2       10 UNK        -0.5000 
     22 CA         -4.5709  -21.5282  -43.8850 C.3       10 UNK         0.1400 
     23 CB         -4.2790  -22.3043  -42.5918 C.3       10 UNK        -0.1800 
     24 N          -4.0265  -20.1812  -43.7768 N.am      10 UNK        -0.5000 
     25 C          -4.5642  -19.1038  -44.3670 C.2       9 UNK         0.5000 
     26 O          -5.6796  -19.0961  -44.8882 O.2       9 UNK        -0.5000 
     27 CA         -3.6998  -17.8267  -44.4269 C.3       9 UNK         0.1400 
     28 CB         -4.0180  -16.8931  -43.2508 C.3       9 UNK        -0.1800 
     29 N          -2.2644  -18.1057  -44.4411 N.am      9 UNK        -0.5000 
     30 C          -1.6256  -18.8286  -45.3735 C.2       8 UNK         0.5000 
     31 O          -2.1440  -19.1741  -46.4343 O.2       8 UNK        -0.5000 
     32 CA         -0.1878  -19.2851  -45.0538 C.3       8 UNK         0.1400 
     33 CB          0.8178  -18.6953  -46.0564 C.3       8 UNK        -0.1800 
     34 N           0.2489  -18.9953  -43.6826 N.am      8 UNK        -0.5000 
     35 C          -0.2380  -19.5813  -42.5771 C.2       7 UNK         0.5000 
     36 O          -1.1703  -20.3833  -42.5882 O.2       7 UNK        -0.5000 
     37 CA          0.3888  -19.1733  -41.2316 C.3       7 UNK         0.1400 
     38 CB          1.5796  -20.0853  -40.9006 C.3       7 UNK        -0.1800 
     39 N           0.8290  -17.7780  -41.2100 N.am      7 UNK        -0.5000 
     40 C           0.0055  -16.7194  -41.1961 C.2       6 UNK         0.5000 
     41 O          -1.2213  -16.8075  -41.1526 O.2       6 UNK        -0.5000 
     42 CA          0.6699  -15.3309  -41.2901 C.3       6 UNK         0.1400 
     43 CB          1.0274  -14.8045  -39.8922 C.3       6 UNK        -0.1800 
     44 N           1.8707  -15.3299  -42.1333 N.am      6 UNK        -0.5000 
     45 C           1.8560  -15.5916  -43.4459 C.2       5 UNK         0.5000 
     46 O           0.8267  -15.8379  -44.0768 O.2       5 UNK        -0.5000 
     47 CA          3.2109  -15.6566  -44.1588 C.3       5 UNK         0.1400 
     48 CB          3.8583  -17.0385  -43.9337 C.3       5 UNK        -0.1800 
     49 N           2.9787  -15.4086  -45.5773 N.am      5 UNK        -0.5000 
     50 C           3.9069  -15.2391  -46.5249 C.2       4 UNK         0.5000 
     51 O           5.1202  -15.3211  -46.3307 O.2       4 UNK        -0.5000 
     52 CA          3.3811  -14.8587  -47.9182 C.3       4 UNK         0.1400 
     53 CB          2.6597  -16.0394  -48.5882 C.3       4 UNK        -0.1800 
     54 N           2.4847  -13.7058  -47.8260 N.am      4 UNK        -0.5000 
     55 C           2.9111  -12.4416  -47.6759 C.2       3 UNK         0.5000 
     56 O           4.0986  -12.1162  -47.7108 O.2       3 UNK        -0.5000 
     57 CA          1.8491  -11.3495  -47.4406 C.3       3 UNK         0.1400 
     58 CB          1.5211  -10.6262  -48.7553 C.3       3 UNK        -0.1800 
     59 N           0.6156  -11.8671  -46.8483 N.am      3 UNK        -0.5000 
     60 C           0.5023  -12.2760  -45.5747 C.2       2 UNK         0.5000 
     61 O           1.4141  -12.1929  -44.7514 O.2       2 UNK        -0.5000 
     62 CA         -0.8434  -12.8958  -45.1425 C.3       2 UNK         0.1400 
     63 CB         -1.6849  -11.8688  -44.3705 C.3       2 UNK        -0.1800 
     64 N          -1.6444  -13.4289  -46.2463 N.am      2 UNK        -0.5000 
     65 C          -1.2670  -14.4076  -47.0819 C.2       1 UNK         0.5000 
     66 O          -0.1794  -14.9807  -47.0165 O.2       1 UNK        -0.5000 
     67 C          -3.6002  -24.5995  -47.1036 C.2       11 UNK         0.5000 
     68 O          -2.6707  -24.8993  -47.8551 O.2       11 UNK        -0.5000 
     69 N          -3.9690  -25.3404  -46.0480 N.am      12 UNK        -0.5000 
     70 CA         -3.3056  -26.5734  -45.6237 C.3       12 UNK         0.1400 
     71 CB         -4.1741  -27.2807  -44.5728 C.3       12 UNK        -0.1800 
     72 C          -1.8848  -26.3330  -45.0797 C.2       12 UNK         0.5000 
     73 O          -0.9891  -27.1277  -45.3631 O.2       12 UNK        -0.5000 
     74 N          -1.6919  -25.2301  -44.3412 N.am      13 UNK        -0.5000 
     75 CA         -0.3919  -24.8120  -43.8075 C.3       13 UNK         0.1400 
     76 CB         -0.6005  -23.7981  -42.6765 C.3       13 UNK        -0.1800 
     77 C           0.5187  -24.2277  -44.9017 C.2       13 UNK         0.5000 
     78 O           1.7319  -24.4309  -44.8561 O.2       13 UNK        -0.5000 
     79 N          -0.0895  -23.5619  -45.8940 N.am      14 UNK        -0.5000 
     80 CA          0.5620  -23.1176  -47.1282 C.3       14 UNK         0.1400 
     81 CB         -0.3767  -22.1459  -47.8626 C.3       14 UNK        -0.1800 
     82 C           0.9403  -24.2779  -48.0736 C.2       14 UNK         0.5000 
     83 O           1.6854  -24.0541  -49.0294 O.2       14 UNK        -0.5000 
     84 N           0.3737  -25.4713  -47.8265 N.am      15 UNK        -0.5000 
     85 CA          0.4406  -26.6881  -48.6437 C.3       15 UNK         0.1400 
     86 CB          1.8587  -27.2917  -48.5942 C.3       15 UNK        -0.1800 
     87 C          -0.0597  -26.4449  -50.0828 C.2       15 UNK         0.5000 
     88 O           0.4942  -26.9979  -51.0350 O.2       15 UNK        -0.5000 
     89 N          -1.0529  -25.5518  -50.2092 N.am      16 UNK        -0.5000 
     90 CA         -1.5658  -24.8939  -51.4148 C.3       16 UNK         0.1400 
     91 CB         -2.2135  -25.9040  -52.3786 C.3       16 UNK        -0.1800 
     92 C          -0.5385  -24.0004  -52.1437 C.2       16 UNK         0.5000 
     93 O          -0.8767  -22.8790  -52.5139 O.2       16 UNK        -0.5000 
     94 N           0.6861  -24.5018  -52.3400 N.am      17 UNK        -0.5000 
     95 CA          1.7586  -23.9077  -53.1369 C.3       17 UNK         0.1400 
     96 CB          2.9499  -24.8769  -53.1639 C.3       17 UNK        -0.1800 
     97 C           2.2167  -22.5089  -52.6861 C.2       17 UNK         0.5000 
     98 O           2.4915  -21.6683  -53.5435 O.2       17 UNK        -0.5000 
     99 N           2.2925  -22.2692  -51.3684 N.am      18 UNK        -0.5000 
    100 CA         2.7509  -20.9904  -50.8100 C.3       18 UNK         0.1400 
    101 CB         3.2569  -21.2019  -49.3747 C.3       18 UNK        -0.1800 
    102 C          1.6861  -19.8755  -50.8577 C.2       18 UNK         0.5000 
    103 O          2.0182  -18.7206  -50.5920 O.2       18 UNK        -0.5000 
    104 N          0.4399  -20.2256  -51.1939 N.am      19 UNK        -0.5000 
    105 CA        -0.6925  -19.3133  -51.3102 C.3       19 UNK         0.1400 
    106 CB        -1.4797  -19.3019  -49.9892 C.3       19 UNK        -0.1800 
    107 C         -1.5297  -19.7298  -52.5288 C.2       19 UNK         0.5000 
    108 O         -2.7284  -19.9811  -52.4119 O.2       19 UNK        -0.5000 
    109 N         -0.8554  -19.8369  -53.6838 N.am      20 UNK        -0.5000 
    110 CA        -1.4237  -20.3150  -54.9481 C.3       20 UNK         0.1400 
    111 CB        -0.2844  -20.5264  -55.9567 C.3       20 UNK        -0.1800 
    112 C         -2.5124  -19.3946  -55.5373 C.2       20 UNK         0.5000 
    113 O         -3.3545  -19.8673  -56.3022 O.2       20 UNK        -0.5000 
    114 N         -2.4847  -18.1124  -55.1581 N.am      21 UNK        -0.5000 
    115 CA        -3.5506  -17.1426  -55.3759 C.3       21 UNK         0.1400 
    116 CB        -2.9788  -15.9153  -56.1027 C.3       21 UNK        -0.1800 
    117 C         -4.1089  -16.7516  -54.0000 C.2       21 UNK         0.5000 
    118 O         -3.3327  -16.5819  -53.0564 O.2       21 UNK        -0.5000 
    119 N         -5.4351  -16.6060  -53.9179 N.am      22 UNK        -0.5000 
    120 CA        -6.1759  -16.3320  -52.6732 C.3       22 UNK         0.1400 
    121 C         -6.0657  -14.8680  -52.1460 C.2       22 UNK         0.5000 
    122 N         -5.4285  -13.9452  -52.8565 N.am      22 UNK        -0.7600 
    123 O         -6.5775  -14.5583  -51.0739 O.2       22 UNK        -0.5000 
    124 C124       -7.6652  -16.7597  -52.7872 C.3       23 UNK        -0.0398 
    125 S125       -7.9071  -18.4824  -53.3550 S.3       23 UNK        -0.2404 
    126 C126       -8.3577  -19.3469  -51.8157 C.3       23 UNK        -0.0205 
    127 H127       -3.5164  -10.5495  -49.1393 H         1 UNK         0.0600 
    128 H128       -4.5947  -11.8523  -49.6520 H         1 UNK         0.0600 
    129 H129       -3.3626  -11.2400  -50.7585 H         1 UNK         0.0600 
    130 H130       -4.0429  -13.7899  -48.7284 H         1 UNK         0.3000 
    131 H131       -1.6496  -15.1193  -49.0536 H         1 UNK         0.0600 
    132 H132       -2.5465  -16.7665  -47.3983 H         1 UNK         0.0800 
    133 H133       -3.7893  -15.6220  -46.9215 H         1 UNK         0.0800 
    134 H134       -5.9735  -17.4414  -47.6714 H         1 UNK         0.0800 
    135 H135       -4.4860  -18.3406  -47.4686 H         1 UNK         0.0800 
    136 H136       -7.3208  -17.7864  -49.8294 H         1 UNK         0.1150 
    137 H137       -6.6700  -21.4907  -51.8973 H         1 UNK         0.1150 
    138 H138       -3.9920  -20.2635  -48.7826 H         1 UNK         0.1150 
    139 H139       -3.4238  -22.1537  -50.1125 H         1 UNK         0.0800 
    140 H140       -4.1984  -22.3554  -51.6539 H         1 UNK         0.0800 
    141 H141       -6.2397  -24.2328  -47.8907 H         1 UNK         0.0800 
    142 H142       -6.1938  -22.5363  -48.2456 H         1 UNK         0.0800 
    143 H143       -3.6653  -22.5809  -47.7919 H         1 UNK         0.0600 
    144 H144       -5.7575  -22.4679  -45.9436 H         1 UNK         0.3000 
    145 H145       -5.6545  -21.4904  -44.0152 H         1 UNK         0.0600 
    146 H146       -4.7912  -21.8525  -41.7423 H         1 UNK         0.0600 
    147 H147       -4.6208  -23.3373  -42.6669 H         1 UNK         0.0600 
    148 H148       -3.2145  -22.3236  -42.3612 H         1 UNK         0.0600 
    149 H149       -3.0775  -20.1225  -43.4214 H         1 UNK         0.3000 
    150 H150       -3.9508  -17.3075  -45.3502 H         1 UNK         0.0600 
    151 H151       -3.7793  -17.3586  -42.2936 H         1 UNK         0.0600 
    152 H152       -5.0767  -16.6313  -43.2348 H         1 UNK         0.0600 
    153 H153       -3.4532  -15.9630  -43.3208 H         1 UNK         0.0600 
    154 H154       -1.7493  -17.8511  -43.6102 H         1 UNK         0.3000 
    155 H155       -0.1760  -20.3708  -45.1672 H         1 UNK         0.0600 
    156 H156        0.8485  -17.6075  -46.0040 H         1 UNK         0.0600 
    157 H157        0.5513  -18.9610  -47.0802 H         1 UNK         0.0600 
    158 H158        1.8239  -19.0745  -45.8805 H         1 UNK         0.0600 
    159 H159        0.9511  -18.2781  -43.5803 H         1 UNK         0.3000 
    160 H160       -0.3699  -19.3070  -40.4574 H         1 UNK         0.0600 
    161 H161        2.3829  -19.9821  -41.6312 H         1 UNK         0.0600 
    162 H162        1.2770  -21.1335  -40.8915 H         1 UNK         0.0600 
    163 H163        1.9888  -19.8580  -39.9161 H         1 UNK         0.0600 
    164 H164        1.8240  -17.6125  -41.2335 H         1 UNK         0.3000 
    165 H165       -0.0559  -14.6479  -41.7371 H         1 UNK         0.0600 
    166 H166        1.4242  -13.7903  -39.9424 H         1 UNK         0.0600 
    167 H167        1.7715  -15.4333  -39.4018 H         1 UNK         0.0600 
    168 H168        0.1465  -14.7758  -39.2493 H         1 UNK         0.0600 
    169 H169        2.7494  -15.1386  -41.6734 H         1 UNK         0.3000 
    170 H170        3.8571  -14.8700  -43.7647 H         1 UNK         0.0600 
    171 H171        3.9746  -17.2507  -42.8704 H         1 UNK         0.0600 
    172 H172        3.2571  -17.8392  -44.3640 H         1 UNK         0.0600 
    173 H173        4.8523  -17.0955  -44.3762 H         1 UNK         0.0600 
    174 H174        1.9964  -15.3212  -45.8183 H         1 UNK         0.3000 
    175 H175        4.2359  -14.5945  -48.5447 H         1 UNK         0.0600 
    176 H176        1.8010  -16.3814  -48.0114 H         1 UNK         0.0600 
    177 H177        2.3059  -15.7728  -49.5842 H         1 UNK         0.0600 
    178 H178        3.3318  -16.8909  -48.7012 H         1 UNK         0.0600 
    179 H179        1.4953  -13.9070  -47.7380 H         1 UNK         0.3000 
    180 H180        2.2755  -10.6175  -46.7515 H         1 UNK         0.0600 
    181 H181        1.1426  -11.3160  -49.5103 H         1 UNK         0.0600 
    182 H182        2.4100  -10.1475  -49.1680 H         1 UNK         0.0600 
    183 H183        0.7725   -9.8483  -48.6045 H         1 UNK         0.0600 
    184 H184       -0.1709  -11.9846  -47.4781 H         1 UNK         0.3000 
    185 H185       -0.6207  -13.7235  -44.4683 H         1 UNK         0.0600 
    186 H186       -2.5978  -12.3193  -43.9803 H         1 UNK         0.0600 
    187 H187       -1.1316  -11.4712  -43.5186 H         1 UNK         0.0600 
    188 H188       -1.9676  -11.0253  -45.0016 H         1 UNK         0.0600 
    189 H189       -2.5428  -12.9951  -46.4000 H         1 UNK         0.3000 
    190 H190       -4.7394  -25.0202  -45.4802 H         1 UNK         0.3000 
    191 H191       -3.2214  -27.2288  -46.4934 H         1 UNK         0.0600 
    192 H192       -3.7132  -28.2156  -44.2511 H         1 UNK         0.0600 
    193 H193       -5.1573  -27.5264  -44.9746 H         1 UNK         0.0600 
    194 H194       -4.3182  -26.6633  -43.6852 H         1 UNK         0.0600 
    195 H195       -2.4626  -24.5933  -44.2014 H         1 UNK         0.3000 
    196 H196        0.1079  -25.6877  -43.3877 H         1 UNK         0.0600 
    197 H197       -1.0703  -22.8903  -43.0492 H         1 UNK         0.0600 
    198 H198       -1.2297  -24.2056  -41.8854 H         1 UNK         0.0600 
    199 H199        0.3505  -23.5118  -42.2257 H         1 UNK         0.0600 
    200 H200       -1.0813  -23.3639  -45.8039 H         1 UNK         0.3000 
    201 H201        1.4776  -22.5883  -46.8589 H         1 UNK         0.0600 
    202 H202       -1.2850  -22.6417  -48.2020 H         1 UNK         0.0600 
    203 H203        0.1043  -21.7239  -48.7441 H         1 UNK         0.0600 
    204 H204       -0.6739  -21.3140  -47.2279 H         1 UNK         0.0600 
    205 H205       -0.2453  -25.5278  -47.0298 H         1 UNK         0.3000 
    206 H206       -0.2474  -27.4046  -48.1932 H         1 UNK         0.0600 
    207 H207        2.1825  -27.4492  -47.5654 H         1 UNK         0.0600 
    208 H208        1.8901  -28.2595  -49.0958 H         1 UNK         0.0600 
    209 H209        2.5904  -26.6461  -49.0811 H         1 UNK         0.0600 
    210 H210       -1.4580  -25.2050  -49.3429 H         1 UNK         0.3000 
    211 H211       -2.3546  -24.2300  -51.0630 H         1 UNK         0.0600 
    212 H212       -2.6788  -25.3908  -53.2210 H         1 UNK         0.0600 
    213 H213       -2.9928  -26.4789  -51.8782 H         1 UNK         0.0600 
    214 H214       -1.4864  -26.6063  -52.7867 H         1 UNK         0.0600 
    215 H215        0.8577  -25.4342  -51.9727 H         1 UNK         0.3000 
    216 H216        1.3801  -23.8085  -54.1562 H         1 UNK         0.0600 
    217 H217        3.3391  -25.0601  -52.1614 H         1 UNK         0.0600 
    218 H218        3.7667  -24.4792  -53.7677 H         1 UNK         0.0600 
    219 H219        2.6669  -25.8381  -53.5936 H         1 UNK         0.0600 
    220 H220        2.0496  -23.0012  -50.7062 H         1 UNK         0.3000 
    221 H221        3.5997  -20.6437  -51.4033 H         1 UNK         0.0600 
    222 H222        3.9918  -22.0055  -49.3259 H         1 UNK         0.0600 
    223 H223        2.4451  -21.4456  -48.6932 H         1 UNK         0.0600 
    224 H224        3.7360  -20.2988  -48.9947 H         1 UNK         0.0600 
    225 H225        0.2548  -21.1859  -51.4603 H         1 UNK         0.3000 
    226 H226       -0.3434  -18.2977  -51.5080 H         1 UNK         0.0600 
    227 H227       -1.8265  -20.3000  -49.7244 H         1 UNK         0.0600 
    228 H228       -0.8700  -18.9300  -49.1659 H         1 UNK         0.0600 
    229 H229       -2.3533  -18.6548  -50.0634 H         1 UNK         0.0600 
    230 H230        0.1366  -19.6481  -53.6809 H         1 UNK         0.3000 
    231 H231       -1.8894  -21.2835  -54.7536 H         1 UNK         0.0600 
    232 H232        0.2436  -19.5958  -56.1678 H         1 UNK         0.0600 
    233 H233       -0.6661  -20.9105  -56.9035 H         1 UNK         0.0600 
    234 H234        0.4420  -21.2491  -55.5838 H         1 UNK         0.0600 
    235 H235       -1.7972  -17.8418  -54.4690 H         1 UNK         0.3000 
    236 H236       -4.3524  -17.5712  -55.9810 H         1 UNK         0.0600 
    237 H237       -2.5625  -16.1920  -57.0715 H         1 UNK         0.0600 
    238 H238       -3.7557  -15.1714  -56.2827 H         1 UNK         0.0600 
    239 H239       -2.1889  -15.4343  -55.5243 H         1 UNK         0.0600 
    240 H240       -6.0016  -16.7564  -54.7398 H         1 UNK         0.3000 
    241 H241       -5.7214  -16.9496  -51.8969 H         1 UNK         0.0600 
    242 H242       -5.3719  -13.0021  -52.5074 H         1 UNK         0.3800 
    243 H243       -4.9962  -14.1838  -53.7339 H         1 UNK         0.3800 
    244 H244       -8.1841  -16.1078  -53.4920 H         1 UNK         0.0800 
    245 H245       -8.1758  -16.6261  -51.8324 H         1 UNK         0.0800 
    246 H246       -8.8369  -20.2922  -52.0744 H         1 UNK         0.0800 
    247 H247       -9.1047  -18.7720  -51.2663 H         1 UNK         0.0800 
@<TRIPOS>BOND
     1    1    2 1    
     2    1  127 1    
     3    1  128 1    
     4    1  129 1    
     5    2    3 2    
     6    2    4 am   BACKBONE|DICT|INTERRES
     7    4    5 1    
     8    4  130 1    
     9    5    6 1    
    10    5   65 1    
    11    5  131 1    
    12    6    7 1    
    13    6  132 1    
    14    6  133 1    
    15    7    8 1    
    16    8    9 1    
    17    8  134 1    
    18    8  135 1    
    19    9   10 ar   
    20    9   14 ar   
    21   10   11 ar   
    22   10  136 1    
    23   11   12 ar   
    24   11  126 1    
    25   12   13 ar   
    26   12  137 1    
    27   13   14 ar   
    28   13   15 1    
    29   14  138 1    
    30   15   16 1    
    31   15  139 1    
    32   15  140 1    
    33   16   17 1    
    34   17   18 1    
    35   17  141 1    
    36   17  142 1    
    37   18   19 1    
    38   18   67 1    
    39   18  143 1    
    40   19   20 am   BACKBONE|DICT|INTERRES
    41   19  144 1    
    42   20   21 2    
    43   20   22 1    
    44   22   23 1    
    45   22   24 1    
    46   22  145 1    
    47   23  146 1    
    48   23  147 1    
    49   23  148 1    
    50   24   25 am   BACKBONE|DICT|INTERRES
    51   24  149 1    
    52   25   26 2    
    53   25   27 1    
    54   27   28 1    
    55   27   29 1    
    56   27  150 1    
    57   28  151 1    
    58   28  152 1    
    59   28  153 1    
    60   29   30 am   BACKBONE|DICT|INTERRES
    61   29  154 1    
    62   30   31 2    
    63   30   32 1    
    64   32   33 1    
    65   32   34 1    
    66   32  155 1    
    67   33  156 1    
    68   33  157 1    
    69   33  158 1    
    70   34   35 am   BACKBONE|DICT|INTERRES
    71   34  159 1    
    72   35   36 2    
    73   35   37 1    
    74   37   38 1    
    75   37   39 1    
    76   37  160 1    
    77   38  161 1    
    78   38  162 1    
    79   38  163 1    
    80   39   40 am   BACKBONE|DICT|INTERRES
    81   39  164 1    
    82   40   41 2    
    83   40   42 1    
    84   42   43 1    
    85   42   44 1    
    86   42  165 1    
    87   43  166 1    
    88   43  167 1    
    89   43  168 1    
    90   44   45 am   BACKBONE|DICT|INTERRES
    91   44  169 1    
    92   45   46 2    
    93   45   47 1    
    94   47   48 1    
    95   47   49 1    
    96   47  170 1    
    97   48  171 1    
    98   48  172 1    
    99   48  173 1    
   100   49   50 am   BACKBONE|DICT|INTERRES
   101   49  174 1    
   102   50   51 2    
   103   50   52 1    
   104   52   53 1    
   105   52   54 1    
   106   52  175 1    
   107   53  176 1    
   108   53  177 1    
   109   53  178 1    
   110   54   55 am   BACKBONE|DICT|INTERRES
   111   54  179 1    
   112   55   56 2    
   113   55   57 1    
   114   57   58 1    
   115   57   59 1    
   116   57  180 1    
   117   58  181 1    
   118   58  182 1    
   119   58  183 1    
   120   59   60 am   BACKBONE|DICT|INTERRES
   121   59  184 1    
   122   60   61 2    
   123   60   62 1    
   124   62   63 1    
   125   62   64 1    
   126   62  185 1    
   127   63  186 1    
   128   63  187 1    
   129   63  188 1    
   130   64   65 am   BACKBONE|DICT|INTERRES
   131   64  189 1    
   132   65   66 2    
   133   67   68 2    
   134   67   69 am   BACKBONE|DICT|INTERRES
   135   69   70 1    
   136   69  190 1    
   137   70   71 1    
   138   70   72 1    
   139   70  191 1    
   140   71  192 1    
   141   71  193 1    
   142   71  194 1    
   143   72   73 2    
   144   72   74 am   BACKBONE|DICT|INTERRES
   145   74   75 1    
   146   74  195 1    
   147   75   76 1    
   148   75   77 1    
   149   75  196 1    
   150   76  197 1    
   151   76  198 1    
   152   76  199 1    
   153   77   78 2    
   154   77   79 am   BACKBONE|DICT|INTERRES
   155   79   80 1    
   156   79  200 1    
   157   80   81 1    
   158   80   82 1    
   159   80  201 1    
   160   81  202 1    
   161   81  203 1    
   162   81  204 1    
   163   82   83 2    
   164   82   84 am   BACKBONE|DICT|INTERRES
   165   84   85 1    
   166   84  205 1    
   167   85   86 1    
   168   85   87 1    
   169   85  206 1    
   170   86  207 1    
   171   86  208 1    
   172   86  209 1    
   173   87   88 2    
   174   87   89 am   BACKBONE|DICT|INTERRES
   175   89   90 1    
   176   89  210 1    
   177   90   91 1    
   178   90   92 1    
   179   90  211 1    
   180   91  212 1    
   181   91  213 1    
   182   91  214 1    
   183   92   93 2    
   184   92   94 am   BACKBONE|DICT|INTERRES
   185   94   95 1    
   186   94  215 1    
   187   95   96 1    
   188   95   97 1    
   189   95  216 1    
   190   96  217 1    
   191   96  218 1    
   192   96  219 1    
   193   97   98 2    
   194   97   99 am   BACKBONE|DICT|INTERRES
   195   99  100 1    
   196   99  220 1    
   197  100  101 1    
   198  100  102 1    
   199  100  221 1    
   200  101  222 1    
   201  101  223 1    
   202  101  224 1    
   203  102  103 2    
   204  102  104 am   BACKBONE|DICT|INTERRES
   205  104  105 1    
   206  104  225 1    
   207  105  106 1    
   208  105  107 1    
   209  105  226 1    
   210  106  227 1    
   211  106  228 1    
   212  106  229 1    
   213  107  108 2    
   214  107  109 am   BACKBONE|DICT|INTERRES
   215  109  110 1    
   216  109  230 1    
   217  110  111 1    
   218  110  112 1    
   219  110  231 1    
   220  111  232 1    
   221  111  233 1    
   222  111  234 1    
   223  112  113 2    
   224  112  114 am   BACKBONE|DICT|INTERRES
   225  114  115 1    
   226  114  235 1    
   227  115  116 1    
   228  115  117 1    
   229  115  236 1    
   230  116  237 1    
   231  116  238 1    
   232  116  239 1    
   233  117  118 2    
   234  117  119 am   BACKBONE|DICT|INTERRES
   235  119  120 1    
   236  119  240 1    
   237  120  121 1    
   238  120  124 1    
   239  120  241 1    
   240  121  122 am   BACKBONE|DICT|INTERRES
   241  121  123 2    
   242  122  242 1    
   243  122  243 1    
   244  124  125 1    
   245  124  244 1    
   246  124  245 1    
   247  125  126 1    
   248  126  246 1    
   249  126  247 1    
@<TRIPOS>SUBSTRUCTURE
     1 UNK         1 GROUP             0       ****    0 ROOT    
