@<TRIPOS>MOLECULE
3R540
247   249    1
SMALL
USER_CHARGES


@<TRIPOS>ATOM
      1 CA         -2.3452  -11.7661  -50.3547 C.3       0 UNK        -0.1800 
      2 C          -1.9798  -13.0935  -49.7067 C.2       0 UNK         0.5000 
      3 O          -2.7198  -14.0636  -49.8611 O.2       0 UNK        -0.5000 
      4 N          -0.8529  -13.1248  -48.9773 N.am      1 UNK        -0.5000 
      5 CA         -0.2394  -14.2790  -48.2925 C.3       1 UNK         0.1400 
      6 C6          0.6477  -15.1712  -49.2133 C.3       23 UNK        -0.0398 
      7 S7         -0.2022  -15.9608  -50.6243 S.3       23 UNK        -0.2404 
      8 C8          1.1980  -16.5600  -51.6159 C.3       23 UNK        -0.0205 
      9 C9          1.6386  -17.9453  -51.1731 C.ar      23 UNK        -0.0193 
     10 C10         1.0498  -19.0761  -51.7431 C.ar      23 UNK        -0.1150 
     11 C11         1.4463  -20.3579  -51.3570 C.ar      23 UNK        -0.0193 
     12 C12         2.4473  -20.5039  -50.3932 C.ar      23 UNK        -0.1150 
     13 C13         3.0236  -19.3809  -49.7912 C.ar      23 UNK        -0.0193 
     14 C14         2.6241  -18.1028  -50.1952 C.ar      23 UNK        -0.1150 
     15 C15         4.0616  -19.5437  -48.6885 C.3       23 UNK        -0.0205 
     16 S16         3.4581  -20.5428  -47.2850 S.3       23 UNK        -0.2404 
     17 C17         1.9124  -19.6861  -46.8228 C.3       23 UNK        -0.0398 
     18 CA          0.6594  -20.5538  -47.0852 C.3       11 UNK         0.1400 
     19 N           0.6833  -21.7890  -46.2995 N.am      11 UNK        -0.5000 
     20 C          -0.1937  -22.7960  -46.4021 C.2       10 UNK         0.5000 
     21 O          -1.1106  -22.8333  -47.2220 O.2       10 UNK        -0.5000 
     22 CA         -0.0527  -23.9145  -45.3542 C.3       10 UNK         0.1400 
     23 CB          1.0131  -24.9330  -45.7838 C.3       10 UNK        -0.1800 
     24 N           0.2844  -23.3858  -44.0295 N.am      10 UNK        -0.5000 
     25 C          -0.5017  -22.5788  -43.3068 C.2       9 UNK         0.5000 
     26 O          -1.6259  -22.2330  -43.6684 O.2       9 UNK        -0.5000 
     27 CA          0.0681  -22.0194  -41.9911 C.3       9 UNK         0.1400 
     28 CB         -0.0137  -23.0578  -40.8573 C.3       9 UNK        -0.1800 
     29 N           1.4155  -21.4447  -42.1039 N.am      9 UNK        -0.5000 
     30 C           2.5889  -22.0578  -42.3229 C.2       8 UNK         0.5000 
     31 O           2.7045  -23.2577  -42.5745 O.2       8 UNK        -0.5000 
     32 CA          3.8494  -21.1778  -42.2372 C.3       8 UNK         0.1400 
     33 CB          4.2208  -20.6226  -43.6195 C.3       8 UNK        -0.1800 
     34 N           3.6677  -20.0662  -41.3013 N.am      8 UNK        -0.5000 
     35 C           3.8652  -20.1533  -39.9773 C.2       7 UNK         0.5000 
     36 O           4.3189  -21.1525  -39.4182 O.2       7 UNK        -0.5000 
     37 CA          3.4775  -18.9248  -39.1285 C.3       7 UNK         0.1400 
     38 CB          4.6672  -17.9615  -38.9997 C.3       7 UNK        -0.1800 
     39 N           2.3282  -18.1968  -39.6691 N.am      7 UNK        -0.5000 
     40 C           1.0755  -18.6723  -39.7170 C.2       6 UNK         0.5000 
     41 O           0.7339  -19.7442  -39.2183 O.2       6 UNK        -0.5000 
     42 CA          0.0324  -17.8347  -40.4842 C.3       6 UNK         0.1400 
     43 CB         -0.8547  -17.0500  -39.5077 C.3       6 UNK        -0.1800 
     44 N           0.6006  -16.9120  -41.4757 N.am      6 UNK        -0.5000 
     45 C           1.3210  -17.2748  -42.5491 C.2       5 UNK         0.5000 
     46 O           1.6005  -18.4500  -42.7987 O.2       5 UNK        -0.5000 
     47 CA          1.8274  -16.1541  -43.4795 C.3       5 UNK         0.1400 
     48 CB          1.7712  -16.5718  -44.9571 C.3       5 UNK        -0.1800 
     49 N           1.0581  -14.9211  -43.3124 N.am      5 UNK        -0.5000 
     50 C           1.5251  -13.7779  -42.7899 C.2       4 UNK         0.5000 
     51 O           2.6739  -13.6406  -42.3686 O.2       4 UNK        -0.5000 
     52 CA          0.5541  -12.5791  -42.7170 C.3       4 UNK         0.1400 
     53 CB          0.8193  -11.6090  -43.8789 C.3       4 UNK        -0.1800 
     54 N          -0.8588  -12.9605  -42.7402 N.am      4 UNK        -0.5000 
     55 C          -1.4834  -13.6662  -41.7882 C.2       3 UNK         0.5000 
     56 O          -0.9501  -13.9946  -40.7288 O.2       3 UNK        -0.5000 
     57 CA         -2.9254  -14.1271  -42.0891 C.3       3 UNK         0.1400 
     58 CB         -3.9382  -13.2113  -41.3860 C.3       3 UNK        -0.1800 
     59 N          -3.2652  -14.2069  -43.5170 N.am      3 UNK        -0.5000 
     60 C          -2.6335  -14.9575  -44.4320 C.2       2 UNK         0.5000 
     61 O          -1.6324  -15.6239  -44.1697 O.2       2 UNK        -0.5000 
     62 CA         -3.1826  -14.9435  -45.8744 C.3       2 UNK         0.1400 
     63 CB         -4.4978  -14.1569  -46.0422 C.3       2 UNK        -0.1800 
     64 N          -2.1885  -14.3868  -46.7890 N.am      2 UNK        -0.5000 
     65 C          -1.1888  -15.0730  -47.3612 C.2       1 UNK         0.5000 
     66 O          -0.9910  -16.2689  -47.1662 O.2       1 UNK        -0.5000 
     67 C          -0.6243  -19.7442  -46.8162 C.2       11 UNK         0.5000 
     68 O          -1.2507  -19.2817  -47.7649 O.2       11 UNK        -0.5000 
     69 N          -1.0108  -19.6342  -45.5348 N.am      12 UNK        -0.5000 
     70 CA         -2.2168  -18.9309  -45.0960 C.3       12 UNK         0.1400 
     71 CB         -2.1930  -18.7573  -43.5712 C.3       12 UNK        -0.1800 
     72 C          -3.5161  -19.6211  -45.5420 C.2       12 UNK         0.5000 
     73 O          -4.4799  -18.9334  -45.8785 O.2       12 UNK        -0.5000 
     74 N          -3.5193  -20.9616  -45.5429 N.am      13 UNK        -0.5000 
     75 CA         -4.6152  -21.7853  -46.0516 C.3       13 UNK         0.1400 
     76 CB         -4.3860  -23.2505  -45.6502 C.3       13 UNK        -0.1800 
     77 C          -4.7775  -21.6452  -47.5763 C.2       13 UNK         0.5000 
     78 O          -5.8918  -21.4402  -48.0579 O.2       13 UNK        -0.5000 
     79 N          -3.6561  -21.7063  -48.3035 N.am      14 UNK        -0.5000 
     80 CA         -3.5728  -21.5159  -49.7499 C.3       14 UNK         0.1400 
     81 CB         -2.4534  -22.4202  -50.2915 C.3       14 UNK        -0.1800 
     82 C          -3.3651  -20.0289  -50.1136 C.2       14 UNK         0.5000 
     83 O          -2.4681  -19.7097  -50.8963 O.2       14 UNK        -0.5000 
     84 N          -4.1932  -19.1455  -49.5337 N.am      15 UNK        -0.5000 
     85 CA         -4.1500  -17.6910  -49.7102 C.3       15 UNK         0.1400 
     86 CB         -5.2703  -17.0412  -48.8850 C.3       15 UNK        -0.1800 
     87 C          -4.2581  -17.2682  -51.1872 C.2       15 UNK         0.5000 
     88 O          -5.0580  -17.8358  -51.9360 O.2       15 UNK        -0.5000 
     89 N          -3.4174  -16.3015  -51.5766 N.am      16 UNK        -0.5000 
     90 CA         -3.1934  -15.7937  -52.9345 C.3       16 UNK         0.1400 
     91 CB         -4.4244  -14.9980  -53.4134 C.3       16 UNK        -0.1800 
     92 C          -2.7635  -16.8779  -53.9502 C.2       16 UNK         0.5000 
     93 O          -2.9258  -16.6758  -55.1550 O.2       16 UNK        -0.5000 
     94 N          -2.2691  -18.0240  -53.4538 N.am      17 UNK        -0.5000 
     95 CA         -2.0115  -19.2964  -54.1377 C.3       17 UNK         0.1400 
     96 CB         -0.9668  -19.1554  -55.2604 C.3       17 UNK        -0.1800 
     97 C          -3.2939  -19.9827  -54.6397 C.2       17 UNK         0.5000 
     98 O          -3.5232  -21.1484  -54.3176 O.2       17 UNK        -0.5000 
     99 N          -4.1108  -19.2443  -55.4005 N.am      18 UNK        -0.5000 
    100 CA        -5.3093  -19.6676  -56.1281 C.3       18 UNK         0.1400 
    101 CB        -5.9125  -18.4363  -56.8213 C.3       18 UNK        -0.1800 
    102 C         -6.3895  -20.3983  -55.3064 C.2       18 UNK         0.5000 
    103 O         -7.1951  -21.1173  -55.8986 O.2       18 UNK        -0.5000 
    104 N         -6.3890  -20.2337  -53.9758 N.am      19 UNK        -0.5000 
    105 CA        -7.2763  -20.9486  -53.0553 C.3       19 UNK         0.1400 
    106 CB        -7.1382  -20.3516  -51.6478 C.3       19 UNK        -0.1800 
    107 C         -7.0465  -22.4750  -53.0207 C.2       19 UNK         0.5000 
    108 O         -7.9871  -23.2076  -52.7102 O.2       19 UNK        -0.5000 
    109 N         -5.8259  -22.9318  -53.3409 N.am      20 UNK        -0.5000 
    110 CA        -5.4714  -24.3562  -53.3794 C.3       20 UNK         0.1400 
    111 CB        -4.9771  -24.7930  -51.9883 C.3       20 UNK        -0.1800 
    112 C         -4.4379  -24.7058  -54.4683 C.2       20 UNK         0.5000 
    113 O         -4.0183  -25.8616  -54.5420 O.2       20 UNK        -0.5000 
    114 N         -3.9926  -23.7126  -55.2535 N.am      21 UNK        -0.5000 
    115 CA        -2.8934  -23.7651  -56.2300 C.3       21 UNK         0.1400 
    116 CB        -3.2720  -24.6546  -57.4318 C.3       21 UNK        -0.1800 
    117 C         -1.5407  -24.1571  -55.5903 C.2       21 UNK         0.5000 
    118 O         -0.6963  -24.7645  -56.2507 O.2       21 UNK        -0.5000 
    119 N         -1.3886  -23.8340  -54.2977 N.am      22 UNK        -0.5000 
    120 CA        -0.3248  -24.3022  -53.3926 C.3       22 UNK         0.1400 
    121 C         -0.2968  -25.8476  -53.1592 C.2       22 UNK         0.5000 
    122 N         -1.3522  -26.5944  -53.4650 N.am      22 UNK        -0.7600 
    123 O          0.6866  -26.3837  -52.6556 O.2       22 UNK        -0.5000 
    124 C124        1.0804  -23.7204  -53.7298 C.3       23 UNK        -0.0398 
    125 S125        1.1826  -21.8966  -53.6692 S.3       23 UNK        -0.2404 
    126 C126        0.7511  -21.5820  -51.9290 C.3       23 UNK        -0.0205 
    127 H127       -1.6052  -10.9933  -50.1458 H         1 UNK         0.0600 
    128 H128       -2.4162  -11.8862  -51.4358 H         1 UNK         0.0600 
    129 H129       -3.3113  -11.4225  -49.9851 H         1 UNK         0.0600 
    130 H130       -0.3238  -12.2677  -48.8975 H         1 UNK         0.3000 
    131 H131        0.4568  -13.8191  -47.5892 H         1 UNK         0.0600 
    132 H132        1.1422  -15.9500  -48.6303 H         1 UNK         0.0800 
    133 H133        1.4535  -14.5562  -49.6152 H         1 UNK         0.0800 
    134 H134        2.0301  -15.8564  -51.5662 H         1 UNK         0.0800 
    135 H135        0.8920  -16.5917  -52.6628 H         1 UNK         0.0800 
    136 H136        0.2723  -18.9564  -52.4806 H         1 UNK         0.1150 
    137 H137        2.7522  -21.4920  -50.0782 H         1 UNK         0.1150 
    138 H138        3.0697  -17.2290  -49.7414 H         1 UNK         0.1150 
    139 H139        4.9496  -20.0201  -49.1057 H         1 UNK         0.0800 
    140 H140        4.3823  -18.5716  -48.3108 H         1 UNK         0.0800 
    141 H141        1.9723  -19.4378  -45.7636 H         1 UNK         0.0800 
    142 H142        1.8451  -18.7353  -47.3548 H         1 UNK         0.0800 
    143 H143        0.6483  -20.8342  -48.1407 H         1 UNK         0.0600 
    144 H144        1.4127  -21.8625  -45.6068 H         1 UNK         0.3000 
    145 H145       -1.0134  -24.4285  -45.2811 H         1 UNK         0.0600 
    146 H146        1.0682  -25.7646  -45.0811 H         1 UNK         0.0600 
    147 H147        0.7809  -25.3505  -46.7644 H         1 UNK         0.0600 
    148 H148        2.0034  -24.4797  -45.8446 H         1 UNK         0.0600 
    149 H149        1.2041  -23.6031  -43.6536 H         1 UNK         0.3000 
    150 H150       -0.5750  -21.1854  -41.7058 H         1 UNK         0.0600 
    151 H151       -1.0410  -23.3951  -40.7138 H         1 UNK         0.0600 
    152 H152        0.3237  -22.6323  -39.9120 H         1 UNK         0.0600 
    153 H153        0.5921  -23.9405  -41.0634 H         1 UNK         0.0600 
    154 H154        1.4533  -20.4381  -41.9993 H         1 UNK         0.3000 
    155 H155        4.6731  -21.8093  -41.8973 H         1 UNK         0.0600 
    156 H156        4.3590  -21.4290  -44.3410 H         1 UNK         0.0600 
    157 H157        5.1535  -20.0600  -43.5796 H         1 UNK         0.0600 
    158 H158        3.4497  -19.9600  -44.0100 H         1 UNK         0.0600 
    159 H159        3.2532  -19.2246  -41.6813 H         1 UNK         0.3000 
    160 H160        3.2155  -19.2806  -38.1298 H         1 UNK         0.0600 
    161 H161        4.9634  -17.5545  -39.9674 H         1 UNK         0.0600 
    162 H162        4.4286  -17.1255  -38.3418 H         1 UNK         0.0600 
    163 H163        5.5356  -18.4684  -38.5770 H         1 UNK         0.0600 
    164 H164        2.5138  -17.2976  -40.0879 H         1 UNK         0.3000 
    165 H165       -0.6032  -18.5431  -41.0176 H         1 UNK         0.0600 
    166 H166       -1.6884  -16.5785  -40.0275 H         1 UNK         0.0600 
    167 H167       -1.2806  -17.7061  -38.7473 H         1 UNK         0.0600 
    168 H168       -0.2933  -16.2694  -38.9928 H         1 UNK         0.0600 
    169 H169        0.4073  -15.9290  -41.3377 H         1 UNK         0.3000 
    170 H170        2.8746  -15.9851  -43.2226 H         1 UNK         0.0600 
    171 H171        2.5232  -17.3317  -45.1647 H         1 UNK         0.0600 
    172 H172        0.7943  -16.9777  -45.2247 H         1 UNK         0.0600 
    173 H173        1.9772  -15.7308  -45.6192 H         1 UNK         0.0600 
    174 H174        0.0862  -14.9762  -43.6090 H         1 UNK         0.3000 
    175 H175        0.7478  -12.0554  -41.7786 H         1 UNK         0.0600 
    176 H176        0.6236  -12.0761  -44.8452 H         1 UNK         0.0600 
    177 H177        0.1938  -10.7195  -43.8018 H         1 UNK         0.0600 
    178 H178        1.8576  -11.2746  -43.8803 H         1 UNK         0.0600 
    179 H179       -1.3746  -12.7369  -43.5778 H         1 UNK         0.3000 
    180 H180       -3.0303  -15.1322  -41.6758 H         1 UNK         0.0600 
    181 H181       -3.7351  -13.1515  -40.3158 H         1 UNK         0.0600 
    182 H182       -3.9054  -12.1962  -41.7837 H         1 UNK         0.0600 
    183 H183       -4.9557  -13.5855  -41.5005 H         1 UNK         0.0600 
    184 H184       -4.0708  -13.6742  -43.8115 H         1 UNK         0.3000 
    185 H185       -3.3852  -15.9798  -46.1514 H         1 UNK         0.0600 
    186 H186       -4.8570  -14.2232  -47.0697 H         1 UNK         0.0600 
    187 H187       -5.2857  -14.5618  -45.4056 H         1 UNK         0.0600 
    188 H188       -4.3790  -13.0988  -45.8058 H         1 UNK         0.0600 
    189 H189       -2.2723  -13.4049  -47.0051 H         1 UNK         0.3000 
    190 H190       -0.4599  -20.0777  -44.8166 H         1 UNK         0.3000 
    191 H191       -2.2012  -17.9398  -45.5485 H         1 UNK         0.0600 
    192 H192       -3.0627  -18.1943  -43.2305 H         1 UNK         0.0600 
    193 H193       -1.3117  -18.1999  -43.2630 H         1 UNK         0.0600 
    194 H194       -2.1936  -19.7123  -43.0474 H         1 UNK         0.0600 
    195 H195       -2.7111  -21.4493  -45.1707 H         1 UNK         0.3000 
    196 H196       -5.5408  -21.4455  -45.5823 H         1 UNK         0.0600 
    197 H197       -5.2067  -23.8815  -45.9931 H         1 UNK         0.0600 
    198 H198       -4.3233  -23.3563  -44.5669 H         1 UNK         0.0600 
    199 H199       -3.4651  -23.6486  -46.0769 H         1 UNK         0.0600 
    200 H200       -2.7738  -21.8707  -47.8282 H         1 UNK         0.3000 
    201 H201       -4.5062  -21.8399  -50.2140 H         1 UNK         0.0600 
    202 H202       -2.6068  -23.4590  -49.9997 H         1 UNK         0.0600 
    203 H203       -1.4782  -22.1135  -49.9115 H         1 UNK         0.0600 
    204 H204       -2.4206  -22.3863  -51.3808 H         1 UNK         0.0600 
    205 H205       -4.9033  -19.5029  -48.9099 H         1 UNK         0.3000 
    206 H206       -3.1895  -17.3494  -49.3163 H         1 UNK         0.0600 
    207 H207       -5.1549  -17.2539  -47.8230 H         1 UNK         0.0600 
    208 H208       -5.2565  -15.9564  -48.9988 H         1 UNK         0.0600 
    209 H209       -6.2543  -17.3940  -49.1964 H         1 UNK         0.0600 
    210 H210       -2.8507  -15.8462  -50.8663 H         1 UNK         0.3000 
    211 H211       -2.3562  -15.0984  -52.8615 H         1 UNK         0.0600 
    212 H212       -5.2880  -15.6454  -53.5693 H         1 UNK         0.0600 
    213 H213       -4.2220  -14.4891  -54.3564 H         1 UNK         0.0600 
    214 H214       -4.7038  -14.2335  -52.6882 H         1 UNK         0.0600 
    215 H215       -2.2294  -18.0989  -52.4435 H         1 UNK         0.3000 
    216 H216       -1.5879  -19.9615  -53.3857 H         1 UNK         0.0600 
    217 H217       -1.3256  -18.5412  -56.0862 H         1 UNK         0.0600 
    218 H218       -0.7111  -20.1328  -55.6716 H         1 UNK         0.0600 
    219 H219       -0.0444  -18.7103  -54.8881 H         1 UNK         0.0600 
    220 H220       -3.8230  -18.2803  -55.5480 H         1 UNK         0.3000 
    221 H221       -4.9781  -20.3647  -56.9001 H         1 UNK         0.0600 
    222 H222       -6.2169  -17.6799  -56.0966 H         1 UNK         0.0600 
    223 H223       -5.1969  -17.9771  -57.5038 H         1 UNK         0.0600 
    224 H224       -6.7924  -18.7044  -57.4078 H         1 UNK         0.0600 
    225 H225       -5.7105  -19.6072  -53.5619 H         1 UNK         0.3000 
    226 H226       -8.3028  -20.7852  -53.3900 H         1 UNK         0.0600 
    227 H227       -7.4239  -19.2997  -51.6355 H         1 UNK         0.0600 
    228 H228       -7.7780  -20.8702  -50.9325 H         1 UNK         0.0600 
    229 H229       -6.1146  -20.4231  -51.2845 H         1 UNK         0.0600 
    230 H230       -5.0967  -22.2625  -53.5611 H         1 UNK         0.3000 
    231 H231       -6.3597  -24.9412  -53.6264 H         1 UNK         0.0600 
    232 H232       -4.0471  -24.2923  -51.7247 H         1 UNK         0.0600 
    233 H233       -5.7115  -24.5693  -51.2143 H         1 UNK         0.0600 
    234 H234       -4.7908  -25.8671  -51.9546 H         1 UNK         0.0600 
    235 H235       -4.3250  -22.7748  -55.0678 H         1 UNK         0.3000 
    236 H236       -2.7661  -22.7471  -56.6008 H         1 UNK         0.0600 
    237 H237       -2.5258  -24.5811  -58.2236 H         1 UNK         0.0600 
    238 H238       -3.3473  -25.7054  -57.1510 H         1 UNK         0.0600 
    239 H239       -4.2278  -24.3521  -57.8595 H         1 UNK         0.0600 
    240 H240       -2.1300  -23.3018  -53.8661 H         1 UNK         0.3000 
    241 H241       -0.6081  -23.9172  -52.4141 H         1 UNK         0.0600 
    242 H242       -1.3121  -27.5863  -53.2931 H         1 UNK         0.3800 
    243 H243       -2.1896  -26.1992  -53.8797 H         1 UNK         0.3800 
    244 H244        1.3993  -24.0497  -54.7193 H         1 UNK         0.0800 
    245 H245        1.8323  -24.1001  -53.0361 H         1 UNK         0.0800 
    246 H246       -0.3254  -21.4332  -51.8653 H         1 UNK         0.0800 
    247 H247        0.9822  -22.4571  -51.3199 H         1 UNK         0.0800 
@<TRIPOS>BOND
     1    1    2 1    
     2    1  127 1    
     3    1  128 1    
     4    1  129 1    
     5    2    3 2    
     6    2    4 am   BACKBONE|DICT|INTERRES
     7    4    5 1    
     8    4  130 1    
     9    5    6 1    
    10    5   65 1    
    11    5  131 1    
    12    6    7 1    
    13    6  132 1    
    14    6  133 1    
    15    7    8 1    
    16    8    9 1    
    17    8  134 1    
    18    8  135 1    
    19    9   10 ar   
    20    9   14 ar   
    21   10   11 ar   
    22   10  136 1    
    23   11   12 ar   
    24   11  126 1    
    25   12   13 ar   
    26   12  137 1    
    27   13   14 ar   
    28   13   15 1    
    29   14  138 1    
    30   15   16 1    
    31   15  139 1    
    32   15  140 1    
    33   16   17 1    
    34   17   18 1    
    35   17  141 1    
    36   17  142 1    
    37   18   19 1    
    38   18   67 1    
    39   18  143 1    
    40   19   20 am   BACKBONE|DICT|INTERRES
    41   19  144 1    
    42   20   21 2    
    43   20   22 1    
    44   22   23 1    
    45   22   24 1    
    46   22  145 1    
    47   23  146 1    
    48   23  147 1    
    49   23  148 1    
    50   24   25 am   BACKBONE|DICT|INTERRES
    51   24  149 1    
    52   25   26 2    
    53   25   27 1    
    54   27   28 1    
    55   27   29 1    
    56   27  150 1    
    57   28  151 1    
    58   28  152 1    
    59   28  153 1    
    60   29   30 am   BACKBONE|DICT|INTERRES
    61   29  154 1    
    62   30   31 2    
    63   30   32 1    
    64   32   33 1    
    65   32   34 1    
    66   32  155 1    
    67   33  156 1    
    68   33  157 1    
    69   33  158 1    
    70   34   35 am   BACKBONE|DICT|INTERRES
    71   34  159 1    
    72   35   36 2    
    73   35   37 1    
    74   37   38 1    
    75   37   39 1    
    76   37  160 1    
    77   38  161 1    
    78   38  162 1    
    79   38  163 1    
    80   39   40 am   BACKBONE|DICT|INTERRES
    81   39  164 1    
    82   40   41 2    
    83   40   42 1    
    84   42   43 1    
    85   42   44 1    
    86   42  165 1    
    87   43  166 1    
    88   43  167 1    
    89   43  168 1    
    90   44   45 am   BACKBONE|DICT|INTERRES
    91   44  169 1    
    92   45   46 2    
    93   45   47 1    
    94   47   48 1    
    95   47   49 1    
    96   47  170 1    
    97   48  171 1    
    98   48  172 1    
    99   48  173 1    
   100   49   50 am   BACKBONE|DICT|INTERRES
   101   49  174 1    
   102   50   51 2    
   103   50   52 1    
   104   52   53 1    
   105   52   54 1    
   106   52  175 1    
   107   53  176 1    
   108   53  177 1    
   109   53  178 1    
   110   54   55 am   BACKBONE|DICT|INTERRES
   111   54  179 1    
   112   55   56 2    
   113   55   57 1    
   114   57   58 1    
   115   57   59 1    
   116   57  180 1    
   117   58  181 1    
   118   58  182 1    
   119   58  183 1    
   120   59   60 am   BACKBONE|DICT|INTERRES
   121   59  184 1    
   122   60   61 2    
   123   60   62 1    
   124   62   63 1    
   125   62   64 1    
   126   62  185 1    
   127   63  186 1    
   128   63  187 1    
   129   63  188 1    
   130   64   65 am   BACKBONE|DICT|INTERRES
   131   64  189 1    
   132   65   66 2    
   133   67   68 2    
   134   67   69 am   BACKBONE|DICT|INTERRES
   135   69   70 1    
   136   69  190 1    
   137   70   71 1    
   138   70   72 1    
   139   70  191 1    
   140   71  192 1    
   141   71  193 1    
   142   71  194 1    
   143   72   73 2    
   144   72   74 am   BACKBONE|DICT|INTERRES
   145   74   75 1    
   146   74  195 1    
   147   75   76 1    
   148   75   77 1    
   149   75  196 1    
   150   76  197 1    
   151   76  198 1    
   152   76  199 1    
   153   77   78 2    
   154   77   79 am   BACKBONE|DICT|INTERRES
   155   79   80 1    
   156   79  200 1    
   157   80   81 1    
   158   80   82 1    
   159   80  201 1    
   160   81  202 1    
   161   81  203 1    
   162   81  204 1    
   163   82   83 2    
   164   82   84 am   BACKBONE|DICT|INTERRES
   165   84   85 1    
   166   84  205 1    
   167   85   86 1    
   168   85   87 1    
   169   85  206 1    
   170   86  207 1    
   171   86  208 1    
   172   86  209 1    
   173   87   88 2    
   174   87   89 am   BACKBONE|DICT|INTERRES
   175   89   90 1    
   176   89  210 1    
   177   90   91 1    
   178   90   92 1    
   179   90  211 1    
   180   91  212 1    
   181   91  213 1    
   182   91  214 1    
   183   92   93 2    
   184   92   94 am   BACKBONE|DICT|INTERRES
   185   94   95 1    
   186   94  215 1    
   187   95   96 1    
   188   95   97 1    
   189   95  216 1    
   190   96  217 1    
   191   96  218 1    
   192   96  219 1    
   193   97   98 2    
   194   97   99 am   BACKBONE|DICT|INTERRES
   195   99  100 1    
   196   99  220 1    
   197  100  101 1    
   198  100  102 1    
   199  100  221 1    
   200  101  222 1    
   201  101  223 1    
   202  101  224 1    
   203  102  103 2    
   204  102  104 am   BACKBONE|DICT|INTERRES
   205  104  105 1    
   206  104  225 1    
   207  105  106 1    
   208  105  107 1    
   209  105  226 1    
   210  106  227 1    
   211  106  228 1    
   212  106  229 1    
   213  107  108 2    
   214  107  109 am   BACKBONE|DICT|INTERRES
   215  109  110 1    
   216  109  230 1    
   217  110  111 1    
   218  110  112 1    
   219  110  231 1    
   220  111  232 1    
   221  111  233 1    
   222  111  234 1    
   223  112  113 2    
   224  112  114 am   BACKBONE|DICT|INTERRES
   225  114  115 1    
   226  114  235 1    
   227  115  116 1    
   228  115  117 1    
   229  115  236 1    
   230  116  237 1    
   231  116  238 1    
   232  116  239 1    
   233  117  118 2    
   234  117  119 am   BACKBONE|DICT|INTERRES
   235  119  120 1    
   236  119  240 1    
   237  120  121 1    
   238  120  124 1    
   239  120  241 1    
   240  121  122 am   BACKBONE|DICT|INTERRES
   241  121  123 2    
   242  122  242 1    
   243  122  243 1    
   244  124  125 1    
   245  124  244 1    
   246  124  245 1    
   247  125  126 1    
   248  126  246 1    
   249  126  247 1    
@<TRIPOS>SUBSTRUCTURE
     1 UNK         1 GROUP             0       ****    0 ROOT    
