@<TRIPOS>MOLECULE
3R540
247   249    1
SMALL
USER_CHARGES


@<TRIPOS>ATOM
      1 CA         -3.1899  -12.1798  -46.4754 C.3       0 UNK        -0.1800 
      2 C          -1.9325  -12.3263  -47.3194 C.2       0 UNK         0.5000 
      3 O          -1.7538  -11.5809  -48.2823 O.2       0 UNK        -0.5000 
      4 N          -1.0630  -13.2828  -46.9668 N.am      1 UNK        -0.5000 
      5 CA          0.2000  -13.5563  -47.6708 C.3       1 UNK         0.1400 
      6 C6          0.7158  -14.9811  -47.3568 C.3       23 UNK        -0.0398 
      7 S7          1.7477  -15.7013  -48.6788 S.3       23 UNK        -0.2404 
      8 C8          0.5070  -16.6419  -49.6180 C.3       23 UNK        -0.0205 
      9 C9          1.1491  -17.6936  -50.5077 C.ar      23 UNK        -0.0193 
     10 C10         1.4152  -17.4129  -51.8491 C.ar      23 UNK        -0.1150 
     11 C11         1.9243  -18.4001  -52.7036 C.ar      23 UNK        -0.0193 
     12 C12         2.1992  -19.6694  -52.1782 C.ar      23 UNK        -0.1150 
     13 C13         1.9523  -19.9605  -50.8319 C.ar      23 UNK        -0.0193 
     14 C14         1.4329  -18.9650  -50.0036 C.ar      23 UNK        -0.1150 
     15 C15         2.2615  -21.3416  -50.2673 C.3       23 UNK        -0.0205 
     16 S16         0.9160  -22.5361  -50.5595 S.3       23 UNK        -0.2404 
     17 C17        -0.3019  -22.1451  -49.2541 C.3       23 UNK        -0.0398 
     18 CA         -0.4248  -23.2832  -48.2109 C.3       11 UNK         0.1400 
     19 N           0.8018  -23.4728  -47.4307 N.am      11 UNK        -0.5000 
     20 C           1.0823  -24.5917  -46.7473 C.2       10 UNK         0.5000 
     21 O           0.3332  -25.5667  -46.7004 O.2       10 UNK        -0.5000 
     22 CA          2.3945  -24.6146  -45.9422 C.3       10 UNK         0.1400 
     23 CB          3.5620  -25.0616  -46.8340 C.3       10 UNK        -0.1800 
     24 N           2.7252  -23.3308  -45.3237 N.am      10 UNK        -0.5000 
     25 C           1.9561  -22.6714  -44.4471 C.2       9 UNK         0.5000 
     26 O           0.8658  -23.0840  -44.0526 O.2       9 UNK        -0.5000 
     27 CA          2.4619  -21.3044  -43.9505 C.3       9 UNK         0.1400 
     28 CB          3.9715  -21.0744  -44.1827 C.3       9 UNK        -0.1800 
     29 N           1.6989  -20.1888  -44.5146 N.am      9 UNK        -0.5000 
     30 C           1.4817  -19.9157  -45.8126 C.2       8 UNK         0.5000 
     31 O           1.7731  -20.6800  -46.7333 O.2       8 UNK        -0.5000 
     32 CA          0.8331  -18.5578  -46.1553 C.3       8 UNK         0.1400 
     33 CB         -0.5966  -18.7574  -46.6826 C.3       8 UNK        -0.1800 
     34 N           0.8045  -17.6200  -45.0313 N.am      8 UNK        -0.5000 
     35 C           1.8863  -17.0265  -44.4984 C.2       7 UNK         0.5000 
     36 O           3.0167  -17.1249  -44.9749 O.2       7 UNK        -0.5000 
     37 CA          1.6893  -16.2062  -43.2052 C.3       7 UNK         0.1400 
     38 CB          1.8071  -14.7002  -43.4896 C.3       7 UNK        -0.1800 
     39 N           0.4165  -16.4654  -42.5290 N.am      7 UNK        -0.5000 
     40 C           0.0446  -17.6387  -41.9942 C.2       6 UNK         0.5000 
     41 O           0.7707  -18.6333  -41.9631 O.2       6 UNK        -0.5000 
     42 CA         -1.4002  -17.7351  -41.4646 C.3       6 UNK         0.1400 
     43 CB         -1.4250  -17.5412  -39.9413 C.3       6 UNK        -0.1800 
     44 N          -2.3241  -16.7763  -42.0806 N.am      6 UNK        -0.5000 
     45 C          -2.6340  -16.7156  -43.3853 C.2       5 UNK         0.5000 
     46 O          -2.1638  -17.4740  -44.2312 O.2       5 UNK        -0.5000 
     47 CA         -3.5804  -15.5813  -43.8221 C.3       5 UNK         0.1400 
     48 CB         -5.0395  -16.0588  -43.8058 C.3       5 UNK        -0.1800 
     49 N          -3.4468  -14.3933  -42.9740 N.am      5 UNK        -0.5000 
     50 C          -2.3904  -13.5716  -42.9949 C.2       4 UNK         0.5000 
     51 O          -1.4651  -13.6648  -43.8085 O.2       4 UNK        -0.5000 
     52 CA         -2.3324  -12.5171  -41.8773 C.3       4 UNK         0.1400 
     53 CB         -1.7516  -13.1430  -40.5988 C.3       4 UNK        -0.1800 
     54 N          -1.4843  -11.3961  -42.2707 N.am      4 UNK        -0.5000 
     55 C          -1.8962  -10.3469  -42.9937 C.2       3 UNK         0.5000 
     56 O          -3.0665  -10.1478  -43.3195 O.2       3 UNK        -0.5000 
     57 CA         -0.7943   -9.3994  -43.4794 C.3       3 UNK         0.1400 
     58 CB         -0.1895   -8.5880  -42.3176 C.3       3 UNK        -0.1800 
     59 N           0.2249  -10.1941  -44.1600 N.am      3 UNK        -0.5000 
     60 C           1.1425   -9.7221  -45.0125 C.2       2 UNK         0.5000 
     61 O           1.2863   -8.5287  -45.2793 O.2       2 UNK        -0.5000 
     62 CA          2.0135  -10.7700  -45.7196 C.3       2 UNK         0.1400 
     63 CB          3.1244  -11.2926  -44.7937 C.3       2 UNK        -0.1800 
     64 N           1.1801  -11.8819  -46.1744 N.am      2 UNK        -0.5000 
     65 C           1.2718  -12.4849  -47.3655 C.2       1 UNK         0.5000 
     66 O           2.1314  -12.2173  -48.2060 O.2       1 UNK        -0.5000 
     67 C          -1.6542  -23.0998  -47.2931 C.2       11 UNK         0.5000 
     68 O          -2.7351  -23.5775  -47.6401 O.2       11 UNK        -0.5000 
     69 N          -1.4666  -22.4758  -46.1179 N.am      12 UNK        -0.5000 
     70 CA         -2.4897  -22.3846  -45.0713 C.3       12 UNK         0.1400 
     71 CB         -2.1327  -21.2988  -44.0396 C.3       12 UNK        -0.1800 
     72 C          -2.7216  -23.7368  -44.3773 C.2       12 UNK         0.5000 
     73 O          -3.8730  -24.1301  -44.1950 O.2       12 UNK        -0.5000 
     74 N          -1.6304  -24.4350  -44.0323 N.am      13 UNK        -0.5000 
     75 CA         -1.6408  -25.7459  -43.3771 C.3       13 UNK         0.1400 
     76 CB         -0.2040  -26.1445  -43.0093 C.3       13 UNK        -0.1800 
     77 C          -2.3093  -26.8439  -44.2250 C.2       13 UNK         0.5000 
     78 O          -3.0460  -27.6684  -43.6828 O.2       13 UNK        -0.5000 
     79 N          -2.0713  -26.8105  -45.5427 N.am      14 UNK        -0.5000 
     80 CA         -2.7137  -27.6822  -46.5274 C.3       14 UNK         0.1400 
     81 CB         -1.8798  -27.6611  -47.8186 C.3       14 UNK        -0.1800 
     82 C          -4.1728  -27.2896  -46.8381 C.2       14 UNK         0.5000 
     83 O          -4.8815  -28.0843  -47.4571 O.2       14 UNK        -0.5000 
     84 N          -4.5807  -26.0719  -46.4430 N.am      15 UNK        -0.5000 
     85 CA         -5.8415  -25.3978  -46.7788 C.3       15 UNK         0.1400 
     86 CB         -7.0388  -26.1001  -46.1066 C.3       15 UNK        -0.1800 
     87 C          -6.0128  -25.2228  -48.3034 C.2       15 UNK         0.5000 
     88 O          -7.1124  -25.3804  -48.8382 O.2       15 UNK        -0.5000 
     89 N          -4.8976  -24.9263  -48.9789 N.am      16 UNK        -0.5000 
     90 CA         -4.7753  -24.8528  -50.4256 C.3       16 UNK         0.1400 
     91 CB         -3.4189  -25.4571  -50.8264 C.3       16 UNK        -0.1800 
     92 C          -4.9287  -23.3919  -50.8669 C.2       16 UNK         0.5000 
     93 O          -3.9343  -22.7115  -51.1242 O.2       16 UNK        -0.5000 
     94 N          -6.1830  -22.9283  -50.9363 N.am      17 UNK        -0.5000 
     95 CA         -6.5525  -21.5623  -51.3196 C.3       17 UNK         0.1400 
     96 CB         -8.0746  -21.3959  -51.2032 C.3       17 UNK        -0.1800 
     97 C          -6.0688  -21.1620  -52.7271 C.2       17 UNK         0.5000 
     98 O          -5.6634  -20.0182  -52.9251 O.2       17 UNK        -0.5000 
     99 N          -6.0740  -22.1199  -53.6650 N.am      18 UNK        -0.5000 
    100 CA        -5.5545  -21.9482  -55.0234 C.3       18 UNK         0.1400 
    101 CB        -5.9906  -23.1406  -55.8874 C.3       18 UNK        -0.1800 
    102 C         -4.0230  -21.7858  -55.0609 C.2       18 UNK         0.5000 
    103 O         -3.5131  -21.0232  -55.8834 O.2       18 UNK        -0.5000 
    104 N         -3.3203  -22.4820  -54.1556 N.am      19 UNK        -0.5000 
    105 CA        -1.8719  -22.3780  -53.9884 C.3       19 UNK         0.1400 
    106 CB        -1.3339  -23.6017  -53.2354 C.3       19 UNK        -0.1800 
    107 C         -1.4850  -21.0730  -53.2770 C.2       19 UNK         0.5000 
    108 O         -0.5256  -20.4329  -53.6960 O.2       19 UNK        -0.5000 
    109 N         -2.2740  -20.6615  -52.2729 N.am      20 UNK        -0.5000 
    110 CA        -2.1351  -19.3775  -51.5780 C.3       20 UNK         0.1400 
    111 CB        -3.0498  -19.3612  -50.3439 C.3       20 UNK        -0.1800 
    112 C         -2.4161  -18.1598  -52.4848 C.2       20 UNK         0.5000 
    113 O         -1.8521  -17.0896  -52.2615 O.2       20 UNK        -0.5000 
    114 N         -3.2625  -18.3500  -53.5057 N.am      21 UNK        -0.5000 
    115 CA        -3.5015  -17.4015  -54.5960 C.3       21 UNK         0.1400 
    116 CB        -4.8949  -17.6712  -55.1868 C.3       21 UNK        -0.1800 
    117 C         -2.4194  -17.4634  -55.6975 C.2       21 UNK         0.5000 
    118 O         -2.4506  -16.6430  -56.6161 O.2       21 UNK        -0.5000 
    119 N         -1.4915  -18.4232  -55.5912 N.am      22 UNK        -0.5000 
    120 CA        -0.3635  -18.6798  -56.4991 C.3       22 UNK         0.1400 
    121 C         -0.7867  -19.2006  -57.9049 C.2       22 UNK         0.5000 
    122 N         -1.9124  -19.8940  -58.0317 N.am      22 UNK        -0.7600 
    123 O         -0.0835  -18.9988  -58.8919 O.2       22 UNK        -0.5000 
    124 C124        0.6788  -17.5234  -56.5535 C.3       23 UNK        -0.0398 
    125 S125        1.1264  -16.8323  -54.9201 S.3       23 UNK        -0.2404 
    126 C126        2.1876  -18.1322  -54.1891 C.3       23 UNK        -0.0205 
    127 H127       -3.3366  -13.0337  -45.8157 H         1 UNK         0.0600 
    128 H128       -4.0671  -12.0986  -47.1172 H         1 UNK         0.0600 
    129 H129       -3.1288  -11.2794  -45.8651 H         1 UNK         0.0600 
    130 H130       -1.2480  -13.8332  -46.1374 H         1 UNK         0.3000 
    131 H131       -0.0125  -13.5038  -48.7412 H         1 UNK         0.0600 
    132 H132       -0.1226  -15.6526  -47.1736 H         1 UNK         0.0800 
    133 H133        1.2963  -14.9883  -46.4353 H         1 UNK         0.0800 
    134 H134       -0.1942  -17.1303  -48.9437 H         1 UNK         0.0800 
    135 H135       -0.0874  -15.9506  -50.2179 H         1 UNK         0.0800 
    136 H136        1.1935  -16.4253  -52.2259 H         1 UNK         0.1150 
    137 H137        2.5920  -20.4423  -52.8236 H         1 UNK         0.1150 
    138 H138        1.2428  -19.1875  -48.9667 H         1 UNK         0.1150 
    139 H139        3.1686  -21.7236  -50.7376 H         1 UNK         0.0800 
    140 H140        2.4810  -21.2846  -49.2010 H         1 UNK         0.0800 
    141 H141       -1.2590  -21.9876  -49.7542 H         1 UNK         0.0800 
    142 H142       -0.0451  -21.2033  -48.7733 H         1 UNK         0.0800 
    143 H143       -0.6029  -24.2063  -48.7677 H         1 UNK         0.0600 
    144 H144        1.4332  -22.6817  -47.3707 H         1 UNK         0.3000 
    145 H145        2.2786  -25.3461  -45.1406 H         1 UNK         0.0600 
    146 H146        4.4814  -25.1675  -46.2579 H         1 UNK         0.0600 
    147 H147        3.3542  -26.0292  -47.2929 H         1 UNK         0.0600 
    148 H148        3.7489  -24.3498  -47.6392 H         1 UNK         0.0600 
    149 H149        3.5884  -22.8980  -45.6176 H         1 UNK         0.3000 
    150 H150        2.2860  -21.2870  -42.8739 H         1 UNK         0.0600 
    151 H151        4.5661  -21.8778  -43.7458 H         1 UNK         0.0600 
    152 H152        4.2959  -20.1454  -43.7134 H         1 UNK         0.0600 
    153 H153        4.2224  -21.0077  -45.2421 H         1 UNK         0.0600 
    154 H154        1.3626  -19.5208  -43.8307 H         1 UNK         0.3000 
    155 H155        1.4338  -18.1050  -46.9446 H         1 UNK         0.0600 
    156 H156       -1.2038  -19.3201  -45.9798 H         1 UNK         0.0600 
    157 H157       -0.6067  -19.3063  -47.6220 H         1 UNK         0.0600 
    158 H158       -1.0993  -17.8071  -46.8575 H         1 UNK         0.0600 
    159 H159       -0.0986  -17.4876  -44.5888 H         1 UNK         0.3000 
    160 H160        2.4923  -16.4877  -42.5210 H         1 UNK         0.0600 
    161 H161        1.0231  -14.3546  -44.1617 H         1 UNK         0.0600 
    162 H162        2.7644  -14.4631  -43.9556 H         1 UNK         0.0600 
    163 H163        1.7409  -14.1175  -42.5707 H         1 UNK         0.0600 
    164 H164       -0.2553  -15.7119  -42.5391 H         1 UNK         0.3000 
    165 H165       -1.7632  -18.7397  -41.6917 H         1 UNK         0.0600 
    166 H166       -2.4271  -17.6933  -39.5398 H         1 UNK         0.0600 
    167 H167       -0.7665  -18.2557  -39.4452 H         1 UNK         0.0600 
    168 H168       -1.0968  -16.5403  -39.6577 H         1 UNK         0.0600 
    169 H169       -2.7602  -16.1132  -41.4583 H         1 UNK         0.3000 
    170 H170       -3.3211  -15.3119  -44.8480 H         1 UNK         0.0600 
    171 H171       -5.1707  -16.9326  -44.4456 H         1 UNK         0.0600 
    172 H172       -5.3636  -16.3352  -42.8017 H         1 UNK         0.0600 
    173 H173       -5.7113  -15.2836  -44.1747 H         1 UNK         0.0600 
    174 H174       -4.1742  -14.2440  -42.2891 H         1 UNK         0.3000 
    175 H175       -3.3432  -12.1594  -41.6694 H         1 UNK         0.0600 
    176 H176       -0.7514  -13.5468  -40.7632 H         1 UNK         0.0600 
    177 H177       -1.6870  -12.4081  -39.7960 H         1 UNK         0.0600 
    178 H178       -2.3795  -13.9583  -40.2375 H         1 UNK         0.0600 
    179 H179       -0.5063  -11.4780  -42.0368 H         1 UNK         0.3000 
    180 H180       -1.2415   -8.7089  -44.1978 H         1 UNK         0.0600 
    181 H181        0.5221   -7.8463  -42.6800 H         1 UNK         0.0600 
    182 H182        0.3314   -9.2271  -41.6039 H         1 UNK         0.0600 
    183 H183       -0.9661   -8.0497  -41.7729 H         1 UNK         0.0600 
    184 H184        0.1637  -11.1890  -44.0032 H         1 UNK         0.3000 
    185 H185        2.4787  -10.2774  -46.5764 H         1 UNK         0.0600 
    186 H186        3.7645  -12.0060  -45.3129 H         1 UNK         0.0600 
    187 H187        3.7596  -10.4761  -44.4481 H         1 UNK         0.0600 
    188 H188        2.7177  -11.7890  -43.9121 H         1 UNK         0.0600 
    189 H189        0.3976  -12.1332  -45.5896 H         1 UNK         0.3000 
    190 H190       -0.5330  -22.1818  -45.8693 H         1 UNK         0.3000 
    191 H191       -3.4349  -22.0970  -45.5370 H         1 UNK         0.0600 
    192 H192       -2.7256  -21.4079  -43.1303 H         1 UNK         0.0600 
    193 H193       -2.3493  -20.3042  -44.4229 H         1 UNK         0.0600 
    194 H194       -1.0836  -21.3310  -43.7476 H         1 UNK         0.0600 
    195 H195       -0.7175  -24.0069  -44.1720 H         1 UNK         0.3000 
    196 H196       -2.2136  -25.6468  -42.4528 H         1 UNK         0.0600 
    197 H197        0.4196  -26.2576  -43.8960 H         1 UNK         0.0600 
    198 H198        0.2610  -25.3979  -42.3653 H         1 UNK         0.0600 
    199 H199       -0.1872  -27.0940  -42.4728 H         1 UNK         0.0600 
    200 H200       -1.3889  -26.1492  -45.9018 H         1 UNK         0.3000 
    201 H201       -2.7212  -28.7031  -46.1401 H         1 UNK         0.0600 
    202 H202       -1.8307  -26.6589  -48.2468 H         1 UNK         0.0600 
    203 H203       -2.3065  -28.3211  -48.5749 H         1 UNK         0.0600 
    204 H204       -0.8590  -27.9965  -47.6345 H         1 UNK         0.0600 
    205 H205       -3.9300  -25.5111  -45.9081 H         1 UNK         0.3000 
    206 H206       -5.7709  -24.3919  -46.3627 H         1 UNK         0.0600 
    207 H207       -6.8819  -26.2010  -45.0326 H         1 UNK         0.0600 
    208 H208       -7.9561  -25.5275  -46.2479 H         1 UNK         0.0600 
    209 H209       -7.2092  -27.0959  -46.5164 H         1 UNK         0.0600 
    210 H210       -4.0636  -24.6810  -48.4512 H         1 UNK         0.3000 
    211 H211       -5.5585  -25.4432  -50.9058 H         1 UNK         0.0600 
    212 H212       -3.2866  -25.4325  -51.9080 H         1 UNK         0.0600 
    213 H213       -3.3493  -26.4999  -50.5165 H         1 UNK         0.0600 
    214 H214       -2.5847  -24.9207  -50.3723 H         1 UNK         0.0600 
    215 H215       -6.9384  -23.5455  -50.6704 H         1 UNK         0.3000 
    216 H216       -6.0811  -20.8836  -50.6063 H         1 UNK         0.0600 
    217 H217       -8.6067  -22.0769  -51.8686 H         1 UNK         0.0600 
    218 H218       -8.3773  -20.3802  -51.4617 H         1 UNK         0.0600 
    219 H219       -8.4154  -21.5859  -50.1852 H         1 UNK         0.0600 
    220 H220       -6.4303  -23.0322  -53.4213 H         1 UNK         0.3000 
    221 H221       -5.9947  -21.0421  -55.4453 H         1 UNK         0.0600 
    222 H222       -7.0770  -23.2207  -55.9293 H         1 UNK         0.0600 
    223 H223       -5.5981  -24.0829  -55.5033 H         1 UNK         0.0600 
    224 H224       -5.6343  -23.0299  -56.9125 H         1 UNK         0.0600 
    225 H225       -3.8162  -23.0340  -53.4714 H         1 UNK         0.3000 
    226 H226       -1.4130  -22.3703  -54.9798 H         1 UNK         0.0600 
    227 H227       -1.6505  -23.6054  -52.1932 H         1 UNK         0.0600 
    228 H228       -1.6634  -24.5323  -53.6972 H         1 UNK         0.0600 
    229 H229       -0.2435  -23.6048  -53.2403 H         1 UNK         0.0600 
    230 H230       -3.0126  -21.2821  -51.9519 H         1 UNK         0.3000 
    231 H231       -1.1021  -19.3026  -51.2373 H         1 UNK         0.0600 
    232 H232       -4.1013  -19.4131  -50.6260 H         1 UNK         0.0600 
    233 H233       -2.9085  -18.4454  -49.7685 H         1 UNK         0.0600 
    234 H234       -2.8407  -20.1982  -49.6783 H         1 UNK         0.0600 
    235 H235       -3.7634  -19.2288  -53.5565 H         1 UNK         0.3000 
    236 H236       -3.4955  -16.3878  -54.1907 H         1 UNK         0.0600 
    237 H237       -5.6695  -17.5872  -54.4244 H         1 UNK         0.0600 
    238 H238       -5.1343  -16.9537  -55.9725 H         1 UNK         0.0600 
    239 H239       -4.9603  -18.6684  -55.6221 H         1 UNK         0.0600 
    240 H240       -1.5229  -19.0367  -54.7865 H         1 UNK         0.3000 
    241 H241        0.1537  -19.5328  -56.0623 H         1 UNK         0.0600 
    242 H242       -2.1832  -20.2346  -58.9400 H         1 UNK         0.3800 
    243 H243       -2.4804  -20.1261  -57.2205 H         1 UNK         0.3800 
    244 H244        0.2903  -16.7033  -57.1591 H         1 UNK         0.0800 
    245 H245        1.5918  -17.8570  -57.0493 H         1 UNK         0.0800 
    246 H246        3.2319  -17.8454  -54.3157 H         1 UNK         0.0800 
    247 H247        2.0524  -19.0597  -54.7462 H         1 UNK         0.0800 
@<TRIPOS>BOND
     1    1    2 1    
     2    1  127 1    
     3    1  128 1    
     4    1  129 1    
     5    2    3 2    
     6    2    4 am   BACKBONE|DICT|INTERRES
     7    4    5 1    
     8    4  130 1    
     9    5    6 1    
    10    5   65 1    
    11    5  131 1    
    12    6    7 1    
    13    6  132 1    
    14    6  133 1    
    15    7    8 1    
    16    8    9 1    
    17    8  134 1    
    18    8  135 1    
    19    9   10 ar   
    20    9   14 ar   
    21   10   11 ar   
    22   10  136 1    
    23   11   12 ar   
    24   11  126 1    
    25   12   13 ar   
    26   12  137 1    
    27   13   14 ar   
    28   13   15 1    
    29   14  138 1    
    30   15   16 1    
    31   15  139 1    
    32   15  140 1    
    33   16   17 1    
    34   17   18 1    
    35   17  141 1    
    36   17  142 1    
    37   18   19 1    
    38   18   67 1    
    39   18  143 1    
    40   19   20 am   BACKBONE|DICT|INTERRES
    41   19  144 1    
    42   20   21 2    
    43   20   22 1    
    44   22   23 1    
    45   22   24 1    
    46   22  145 1    
    47   23  146 1    
    48   23  147 1    
    49   23  148 1    
    50   24   25 am   BACKBONE|DICT|INTERRES
    51   24  149 1    
    52   25   26 2    
    53   25   27 1    
    54   27   28 1    
    55   27   29 1    
    56   27  150 1    
    57   28  151 1    
    58   28  152 1    
    59   28  153 1    
    60   29   30 am   BACKBONE|DICT|INTERRES
    61   29  154 1    
    62   30   31 2    
    63   30   32 1    
    64   32   33 1    
    65   32   34 1    
    66   32  155 1    
    67   33  156 1    
    68   33  157 1    
    69   33  158 1    
    70   34   35 am   BACKBONE|DICT|INTERRES
    71   34  159 1    
    72   35   36 2    
    73   35   37 1    
    74   37   38 1    
    75   37   39 1    
    76   37  160 1    
    77   38  161 1    
    78   38  162 1    
    79   38  163 1    
    80   39   40 am   BACKBONE|DICT|INTERRES
    81   39  164 1    
    82   40   41 2    
    83   40   42 1    
    84   42   43 1    
    85   42   44 1    
    86   42  165 1    
    87   43  166 1    
    88   43  167 1    
    89   43  168 1    
    90   44   45 am   BACKBONE|DICT|INTERRES
    91   44  169 1    
    92   45   46 2    
    93   45   47 1    
    94   47   48 1    
    95   47   49 1    
    96   47  170 1    
    97   48  171 1    
    98   48  172 1    
    99   48  173 1    
   100   49   50 am   BACKBONE|DICT|INTERRES
   101   49  174 1    
   102   50   51 2    
   103   50   52 1    
   104   52   53 1    
   105   52   54 1    
   106   52  175 1    
   107   53  176 1    
   108   53  177 1    
   109   53  178 1    
   110   54   55 am   BACKBONE|DICT|INTERRES
   111   54  179 1    
   112   55   56 2    
   113   55   57 1    
   114   57   58 1    
   115   57   59 1    
   116   57  180 1    
   117   58  181 1    
   118   58  182 1    
   119   58  183 1    
   120   59   60 am   BACKBONE|DICT|INTERRES
   121   59  184 1    
   122   60   61 2    
   123   60   62 1    
   124   62   63 1    
   125   62   64 1    
   126   62  185 1    
   127   63  186 1    
   128   63  187 1    
   129   63  188 1    
   130   64   65 am   BACKBONE|DICT|INTERRES
   131   64  189 1    
   132   65   66 2    
   133   67   68 2    
   134   67   69 am   BACKBONE|DICT|INTERRES
   135   69   70 1    
   136   69  190 1    
   137   70   71 1    
   138   70   72 1    
   139   70  191 1    
   140   71  192 1    
   141   71  193 1    
   142   71  194 1    
   143   72   73 2    
   144   72   74 am   BACKBONE|DICT|INTERRES
   145   74   75 1    
   146   74  195 1    
   147   75   76 1    
   148   75   77 1    
   149   75  196 1    
   150   76  197 1    
   151   76  198 1    
   152   76  199 1    
   153   77   78 2    
   154   77   79 am   BACKBONE|DICT|INTERRES
   155   79   80 1    
   156   79  200 1    
   157   80   81 1    
   158   80   82 1    
   159   80  201 1    
   160   81  202 1    
   161   81  203 1    
   162   81  204 1    
   163   82   83 2    
   164   82   84 am   BACKBONE|DICT|INTERRES
   165   84   85 1    
   166   84  205 1    
   167   85   86 1    
   168   85   87 1    
   169   85  206 1    
   170   86  207 1    
   171   86  208 1    
   172   86  209 1    
   173   87   88 2    
   174   87   89 am   BACKBONE|DICT|INTERRES
   175   89   90 1    
   176   89  210 1    
   177   90   91 1    
   178   90   92 1    
   179   90  211 1    
   180   91  212 1    
   181   91  213 1    
   182   91  214 1    
   183   92   93 2    
   184   92   94 am   BACKBONE|DICT|INTERRES
   185   94   95 1    
   186   94  215 1    
   187   95   96 1    
   188   95   97 1    
   189   95  216 1    
   190   96  217 1    
   191   96  218 1    
   192   96  219 1    
   193   97   98 2    
   194   97   99 am   BACKBONE|DICT|INTERRES
   195   99  100 1    
   196   99  220 1    
   197  100  101 1    
   198  100  102 1    
   199  100  221 1    
   200  101  222 1    
   201  101  223 1    
   202  101  224 1    
   203  102  103 2    
   204  102  104 am   BACKBONE|DICT|INTERRES
   205  104  105 1    
   206  104  225 1    
   207  105  106 1    
   208  105  107 1    
   209  105  226 1    
   210  106  227 1    
   211  106  228 1    
   212  106  229 1    
   213  107  108 2    
   214  107  109 am   BACKBONE|DICT|INTERRES
   215  109  110 1    
   216  109  230 1    
   217  110  111 1    
   218  110  112 1    
   219  110  231 1    
   220  111  232 1    
   221  111  233 1    
   222  111  234 1    
   223  112  113 2    
   224  112  114 am   BACKBONE|DICT|INTERRES
   225  114  115 1    
   226  114  235 1    
   227  115  116 1    
   228  115  117 1    
   229  115  236 1    
   230  116  237 1    
   231  116  238 1    
   232  116  239 1    
   233  117  118 2    
   234  117  119 am   BACKBONE|DICT|INTERRES
   235  119  120 1    
   236  119  240 1    
   237  120  121 1    
   238  120  124 1    
   239  120  241 1    
   240  121  122 am   BACKBONE|DICT|INTERRES
   241  121  123 2    
   242  122  242 1    
   243  122  243 1    
   244  124  125 1    
   245  124  244 1    
   246  124  245 1    
   247  125  126 1    
   248  126  246 1    
   249  126  247 1    
@<TRIPOS>SUBSTRUCTURE
     1 UNK         1 GROUP             0       ****    0 ROOT    
