@<TRIPOS>MOLECULE
3R540
247   249    1
SMALL
USER_CHARGES


@<TRIPOS>ATOM
      1 CA          9.4157  -12.3108  -48.9373 C.3       0 UNK        -0.1800 
      2 C           8.4745  -13.4674  -48.6320 C.2       0 UNK         0.5000 
      3 O           8.9208  -14.5083  -48.1495 O.2       0 UNK        -0.5000 
      4 N           7.1762  -13.2890  -48.9121 N.am      1 UNK        -0.5000 
      5 CA          6.1185  -14.2793  -48.6646 C.3       1 UNK         0.1400 
      6 C6          4.8407  -13.9407  -49.4738 C.3       23 UNK        -0.0398 
      7 S7          3.8621  -15.4172  -49.8971 S.3       23 UNK        -0.2404 
      8 C8          2.5322  -14.6697  -50.8895 C.3       23 UNK        -0.0205 
      9 C9          1.5066  -15.7111  -51.3104 C.ar      23 UNK        -0.0193 
     10 C10         1.3801  -16.0993  -52.6489 C.ar      23 UNK        -0.1150 
     11 C11         0.4320  -17.0597  -53.0209 C.ar      23 UNK        -0.0193 
     12 C12        -0.3848  -17.6365  -52.0438 C.ar      23 UNK        -0.1150 
     13 C13        -0.2553  -17.2650  -50.7050 C.ar      23 UNK        -0.0193 
     14 C14         0.6788  -16.2915  -50.3472 C.ar      23 UNK        -0.1150 
     15 C15        -1.0900  -17.9432  -49.6371 C.3       23 UNK        -0.0205 
     16 S16        -0.2136  -19.4091  -49.0167 S.3       23 UNK        -0.2404 
     17 C17        -0.8416  -19.5311  -47.3162 C.3       23 UNK        -0.0398 
     18 CA          0.0654  -20.3967  -46.4115 C.3       11 UNK         0.1400 
     19 N          -0.1301  -20.0582  -44.9995 N.am      11 UNK        -0.5000 
     20 C           0.6366  -20.4788  -43.9835 C.2       10 UNK         0.5000 
     21 O           1.6748  -21.1242  -44.1267 O.2       10 UNK        -0.5000 
     22 CA          0.1449  -20.1379  -42.5648 C.3       10 UNK         0.1400 
     23 CB          0.7184  -18.7937  -42.0949 C.3       10 UNK        -0.1800 
     24 N          -1.3169  -20.0936  -42.4961 N.am      10 UNK        -0.5000 
     25 C          -2.0987  -21.1797  -42.4044 C.2       9 UNK         0.5000 
     26 O          -1.6663  -22.3242  -42.2715 O.2       9 UNK        -0.5000 
     27 CA         -3.6206  -20.9555  -42.5008 C.3       9 UNK         0.1400 
     28 CB         -4.2193  -20.7127  -41.1075 C.3       9 UNK        -0.1800 
     29 N          -3.9837  -19.8414  -43.3787 N.am      9 UNK        -0.5000 
     30 C          -3.7841  -19.8127  -44.7040 C.2       8 UNK         0.5000 
     31 O          -3.3176  -20.7540  -45.3424 O.2       8 UNK        -0.5000 
     32 CA         -4.1133  -18.4957  -45.4320 C.3       8 UNK         0.1400 
     33 CB         -5.5367  -18.5435  -46.0058 C.3       8 UNK        -0.1800 
     34 N          -3.9660  -17.3160  -44.5742 N.am      8 UNK        -0.5000 
     35 C          -2.8053  -16.8956  -44.0520 C.2       7 UNK         0.5000 
     36 O          -1.7234  -17.4513  -44.2546 O.2       7 UNK        -0.5000 
     37 CA         -2.8935  -15.7272  -43.0639 C.3       7 UNK         0.1400 
     38 CB         -2.7304  -16.2334  -41.6201 C.3       7 UNK        -0.1800 
     39 N          -1.8684  -14.7282  -43.3486 N.am      7 UNK        -0.5000 
     40 C          -2.0308  -13.4114  -43.1581 C.2       6 UNK         0.5000 
     41 O          -3.0776  -12.9062  -42.7491 O.2       6 UNK        -0.5000 
     42 CA         -0.8375  -12.4915  -43.4696 C.3       6 UNK         0.1400 
     43 CB          0.0915  -12.3709  -42.2510 C.3       6 UNK        -0.1800 
     44 N          -0.0699  -12.9428  -44.6277 N.am      6 UNK        -0.5000 
     45 C          -0.4063  -12.7005  -45.9022 C.2       5 UNK         0.5000 
     46 O          -1.4040  -12.0591  -46.2341 O.2       5 UNK        -0.5000 
     47 CA          0.5308  -13.2527  -46.9935 C.3       5 UNK         0.1400 
     48 CB          1.4939  -12.1597  -47.4794 C.3       5 UNK        -0.1800 
     49 N           1.2985  -14.4104  -46.5326 N.am      5 UNK        -0.5000 
     50 C           0.7840  -15.6457  -46.4470 C.2       4 UNK         0.5000 
     51 O          -0.3490  -15.9303  -46.8295 O.2       4 UNK        -0.5000 
     52 CA          1.6578  -16.7374  -45.7996 C.3       4 UNK         0.1400 
     53 CB          2.4660  -17.4909  -46.8639 C.3       4 UNK        -0.1800 
     54 N           2.5713  -16.2219  -44.7796 N.am      4 UNK        -0.5000 
     55 C           2.1760  -15.6421  -43.6383 C.2       3 UNK         0.5000 
     56 O           0.9957  -15.5082  -43.3198 O.2       3 UNK        -0.5000 
     57 CA          3.2680  -15.0661  -42.7188 C.3       3 UNK         0.1400 
     58 CB          3.6431  -16.0886  -41.6361 C.3       3 UNK        -0.1800 
     59 N           4.4842  -14.6275  -43.4101 N.am      3 UNK        -0.5000 
     60 C           4.5486  -13.7131  -44.3890 C.2       2 UNK         0.5000 
     61 O           3.5555  -13.1735  -44.8812 O.2       2 UNK        -0.5000 
     62 CA          5.9505  -13.3261  -44.9092 C.3       2 UNK         0.1400 
     63 CB          7.1102  -14.1221  -44.2676 C.3       2 UNK        -0.1800 
     64 N           6.0461  -13.3896  -46.3704 N.am      2 UNK        -0.5000 
     65 C           5.8233  -14.4569  -47.1545 C.2       1 UNK         0.5000 
     66 O           5.4434  -15.5492  -46.7302 O.2       1 UNK        -0.5000 
     67 C          -0.1367  -21.9083  -46.6652 C.2       11 UNK         0.5000 
     68 O           0.6804  -22.5318  -47.3456 O.2       11 UNK        -0.5000 
     69 N          -1.1981  -22.4686  -46.0647 N.am      12 UNK        -0.5000 
     70 CA         -1.5473  -23.8873  -46.0054 C.3       12 UNK         0.1400 
     71 CB         -0.5632  -24.6385  -45.0822 C.3       12 UNK        -0.1800 
     72 C          -1.6906  -24.5052  -47.4089 C.2       12 UNK         0.5000 
     73 O          -2.6248  -24.1453  -48.1281 O.2       12 UNK        -0.5000 
     74 N          -0.7779  -25.4121  -47.7825 N.am      13 UNK        -0.5000 
     75 CA         -0.7501  -26.1235  -49.0627 C.3       13 UNK         0.1400 
     76 CB          0.4014  -27.1390  -49.0503 C.3       13 UNK        -0.1800 
     77 C          -0.6416  -25.1996  -50.2903 C.2       13 UNK         0.5000 
     78 O          -1.2432  -25.4988  -51.3219 O.2       13 UNK        -0.5000 
     79 N           0.0630  -24.0674  -50.1476 N.am      14 UNK        -0.5000 
     80 CA          0.1728  -23.0324  -51.1819 C.3       14 UNK         0.1400 
     81 CB          1.3645  -22.1175  -50.8639 C.3       14 UNK        -0.1800 
     82 C          -1.1305  -22.2287  -51.3819 C.2       14 UNK         0.5000 
     83 O          -1.2918  -21.5881  -52.4195 O.2       14 UNK        -0.5000 
     84 N          -2.0536  -22.3198  -50.4158 N.am      15 UNK        -0.5000 
     85 CA         -3.4184  -21.8088  -50.4910 C.3       15 UNK         0.1400 
     86 CB         -3.7272  -21.0004  -49.2193 C.3       15 UNK        -0.1800 
     87 C          -4.4313  -22.9479  -50.7075 C.2       15 UNK         0.5000 
     88 O          -5.6031  -22.7744  -50.3780 O.2       15 UNK        -0.5000 
     89 N          -3.9835  -24.0994  -51.2318 N.am      16 UNK        -0.5000 
     90 CA         -4.7857  -25.2946  -51.5228 C.3       16 UNK         0.1400 
     91 CB         -5.7815  -25.0092  -52.6675 C.3       16 UNK        -0.1800 
     92 C          -5.4674  -25.8766  -50.2649 C.2       16 UNK         0.5000 
     93 O          -6.6426  -26.2413  -50.3106 O.2       16 UNK        -0.5000 
     94 N          -4.7054  -25.9243  -49.1624 N.am      17 UNK        -0.5000 
     95 CA         -5.1227  -26.2770  -47.8015 C.3       17 UNK         0.1400 
     96 CB         -5.7260  -27.6960  -47.7242 C.3       17 UNK        -0.1800 
     97 C          -6.0149  -25.1812  -47.1846 C.2       17 UNK         0.5000 
     98 O          -7.0629  -25.4817  -46.6107 O.2       17 UNK        -0.5000 
     99 N          -5.5552  -23.9261  -47.3147 N.am      18 UNK        -0.5000 
    100 CA        -6.1632  -22.6951  -46.7932 C.3       18 UNK         0.1400 
    101 CB        -6.0874  -22.6760  -45.2522 C.3       18 UNK        -0.1800 
    102 C         -7.5890  -22.4353  -47.3302 C.2       18 UNK         0.5000 
    103 O         -8.4695  -22.0287  -46.5692 O.2       18 UNK        -0.5000 
    104 N         -7.7915  -22.6883  -48.6287 N.am      19 UNK        -0.5000 
    105 CA        -9.0847  -22.6117  -49.3103 C.3       19 UNK         0.1400 
    106 CB        -9.4842  -24.0285  -49.7525 C.3       19 UNK        -0.1800 
    107 C         -9.0768  -21.6643  -50.5240 C.2       19 UNK         0.5000 
    108 O        -10.1458  -21.1886  -50.9100 O.2       19 UNK        -0.5000 
    109 N         -7.9047  -21.4128  -51.1188 N.am      20 UNK        -0.5000 
    110 CA        -7.7313  -20.6255  -52.3364 C.3       20 UNK         0.1400 
    111 CB        -7.9953  -21.5152  -53.5720 C.3       20 UNK        -0.1800 
    112 C         -6.3510  -19.9402  -52.3279 C.2       20 UNK         0.5000 
    113 O         -5.9803  -19.3376  -51.3196 O.2       20 UNK        -0.5000 
    114 N         -5.6229  -20.0228  -53.4456 N.am      21 UNK        -0.5000 
    115 CA        -4.3169  -19.4150  -53.6866 C.3       21 UNK         0.1400 
    116 CB        -4.5086  -17.9659  -54.1756 C.3       21 UNK        -0.1800 
    117 C         -3.5452  -20.2779  -54.7025 C.2       21 UNK         0.5000 
    118 O         -4.0325  -21.3421  -55.0955 O.2       21 UNK        -0.5000 
    119 N         -2.3589  -19.8027  -55.1004 N.am      22 UNK        -0.5000 
    120 CA        -1.4412  -20.4383  -56.0616 C.3       22 UNK         0.1400 
    121 C         -2.0947  -20.7430  -57.4401 C.2       22 UNK         0.5000 
    122 N         -1.8168  -21.9001  -58.0254 N.am      22 UNK        -0.7600 
    123 O         -2.8096  -19.9174  -58.0045 O.2       22 UNK        -0.5000 
    124 C124       -0.1601  -19.5876  -56.2758 C.3       23 UNK        -0.0398 
    125 S125        0.7314  -19.2199  -54.7262 S.3       23 UNK        -0.2404 
    126 C126        0.2713  -17.4750  -54.4742 C.3       23 UNK        -0.0205 
    127 H127        9.9119  -11.9804  -48.0247 H         1 UNK         0.0600 
    128 H128        8.8868  -11.4584  -49.3644 H         1 UNK         0.0600 
    129 H129       10.1803  -12.6265  -49.6471 H         1 UNK         0.0600 
    130 H130        6.8774  -12.4126  -49.3163 H         1 UNK         0.3000 
    131 H131        6.5022  -15.2366  -49.0251 H         1 UNK         0.0600 
    132 H132        4.2171  -13.2168  -48.9484 H         1 UNK         0.0800 
    133 H133        5.1129  -13.4700  -50.4198 H         1 UNK         0.0800 
    134 H134        2.9648  -14.1788  -51.7627 H         1 UNK         0.0800 
    135 H135        2.0340  -13.8930  -50.3084 H         1 UNK         0.0800 
    136 H136        2.0177  -15.6541  -53.3997 H         1 UNK         0.1150 
    137 H137       -1.1015  -18.3970  -52.3214 H         1 UNK         0.1150 
    138 H138        0.7847  -16.0049  -49.3116 H         1 UNK         0.1150 
    139 H139       -1.2958  -17.2425  -48.8288 H         1 UNK         0.0800 
    140 H140       -2.0579  -18.2357  -50.0447 H         1 UNK         0.0800 
    141 H141       -1.8627  -19.9060  -47.3315 H         1 UNK         0.0800 
    142 H142       -0.8987  -18.5200  -46.9125 H         1 UNK         0.0800 
    143 H143        1.1068  -20.1649  -46.6442 H         1 UNK         0.0600 
    144 H144       -0.9333  -19.4846  -44.7786 H         1 UNK         0.3000 
    145 H145        0.5112  -20.9142  -41.8894 H         1 UNK         0.0600 
    146 H146        0.4395  -18.5837  -41.0624 H         1 UNK         0.0600 
    147 H147        1.8078  -18.7913  -42.1465 H         1 UNK         0.0600 
    148 H148        0.3592  -17.9710  -42.7108 H         1 UNK         0.0600 
    149 H149       -1.7469  -19.1897  -42.6318 H         1 UNK         0.3000 
    150 H150       -4.0628  -21.8666  -42.9086 H         1 UNK         0.0600 
    151 H151       -3.9854  -21.5375  -40.4331 H         1 UNK         0.0600 
    152 H152       -5.3054  -20.6310  -41.1539 H         1 UNK         0.0600 
    153 H153       -3.8318  -19.7987  -40.6555 H         1 UNK         0.0600 
    154 H154       -4.3858  -19.0285  -42.9369 H         1 UNK         0.3000 
    155 H155       -3.4158  -18.3912  -46.2646 H         1 UNK         0.0600 
    156 H156       -6.2867  -18.6437  -45.2202 H         1 UNK         0.0600 
    157 H157       -5.6560  -19.3898  -46.6835 H         1 UNK         0.0600 
    158 H158       -5.7632  -17.6417  -46.5749 H         1 UNK         0.0600 
    159 H159       -4.8145  -16.8146  -44.3527 H         1 UNK         0.3000 
    160 H160       -3.8831  -15.2761  -43.1649 H         1 UNK         0.0600 
    161 H161       -1.7429  -16.6678  -41.4578 H         1 UNK         0.0600 
    162 H162       -3.4712  -16.9980  -41.3834 H         1 UNK         0.0600 
    163 H163       -2.8596  -15.4236  -40.9019 H         1 UNK         0.0600 
    164 H164       -0.9695  -15.0895  -43.6560 H         1 UNK         0.3000 
    165 H165       -1.2319  -11.4952  -43.6814 H         1 UNK         0.0600 
    166 H166        0.9462  -11.7292  -42.4659 H         1 UNK         0.0600 
    167 H167       -0.4385  -11.9342  -41.4036 H         1 UNK         0.0600 
    168 H168        0.4706  -13.3404  -41.9292 H         1 UNK         0.0600 
    169 H169        0.7400  -13.5170  -44.4399 H         1 UNK         0.3000 
    170 H170       -0.0884  -13.5523  -47.8420 H         1 UNK         0.0600 
    171 H171        0.9445  -11.2935  -47.8504 H         1 UNK         0.0600 
    172 H172        2.1505  -11.8123  -46.6816 H         1 UNK         0.0600 
    173 H173        2.1159  -12.5195  -48.2965 H         1 UNK         0.0600 
    174 H174        2.2204  -14.2253  -46.1536 H         1 UNK         0.3000 
    175 H175        0.9828  -17.4457  -45.3158 H         1 UNK         0.0600 
    176 H176        2.9824  -18.3493  -46.4345 H         1 UNK         0.0600 
    177 H177        1.8210  -17.8610  -47.6595 H         1 UNK         0.0600 
    178 H178        3.2113  -16.8478  -47.3298 H         1 UNK         0.0600 
    179 H179        3.5591  -16.2541  -44.9930 H         1 UNK         0.3000 
    180 H180        2.8434  -14.1893  -42.2261 H         1 UNK         0.0600 
    181 H181        2.7606  -16.4130  -41.0826 H         1 UNK         0.0600 
    182 H182        4.3389  -15.6625  -40.9131 H         1 UNK         0.0600 
    183 H183        4.1057  -16.9779  -42.0661 H         1 UNK         0.0600 
    184 H184        5.3505  -15.0306  -43.0837 H         1 UNK         0.3000 
    185 H185        6.0863  -12.2776  -44.6408 H         1 UNK         0.0600 
    186 H186        7.1394  -13.9823  -43.1862 H         1 UNK         0.0600 
    187 H187        7.0351  -15.1916  -44.4681 H         1 UNK         0.0600 
    188 H188        8.0717  -13.7847  -44.6553 H         1 UNK         0.0600 
    189 H189        6.3383  -12.5350  -46.8218 H         1 UNK         0.3000 
    190 H190       -1.8677  -21.8464  -45.6172 H         1 UNK         0.3000 
    191 H191       -2.5366  -23.9404  -45.5484 H         1 UNK         0.0600 
    192 H192        0.4649  -24.5878  -45.4424 H         1 UNK         0.0600 
    193 H193       -0.8353  -25.6903  -44.9853 H         1 UNK         0.0600 
    194 H194       -0.5762  -24.2126  -44.0788 H         1 UNK         0.0600 
    195 H195       -0.0309  -25.6241  -47.1371 H         1 UNK         0.3000 
    196 H196       -1.6878  -26.6757  -49.1517 H         1 UNK         0.0600 
    197 H197        0.4354  -27.7033  -49.9834 H         1 UNK         0.0600 
    198 H198        0.2836  -27.8598  -48.2410 H         1 UNK         0.0600 
    199 H199        1.3684  -26.6495  -48.9270 H         1 UNK         0.0600 
    200 H200        0.4863  -23.8607  -49.2507 H         1 UNK         0.3000 
    201 H201        0.3827  -23.5235  -52.1345 H         1 UNK         0.0600 
    202 H202        2.3055  -22.6622  -50.9382 H         1 UNK         0.0600 
    203 H203        1.3005  -21.7067  -49.8576 H         1 UNK         0.0600 
    204 H204        1.4174  -21.2792  -51.5605 H         1 UNK         0.0600 
    205 H205       -1.8546  -22.8973  -49.6077 H         1 UNK         0.3000 
    206 H206       -3.5285  -21.1419  -51.3444 H         1 UNK         0.0600 
    207 H207       -3.1368  -20.0891  -49.1976 H         1 UNK         0.0600 
    208 H208       -4.7705  -20.6861  -49.1786 H         1 UNK         0.0600 
    209 H209       -3.5096  -21.5665  -48.3137 H         1 UNK         0.0600 
    210 H210       -2.9961  -24.1818  -51.4405 H         1 UNK         0.3000 
    211 H211       -4.0872  -26.0555  -51.8736 H         1 UNK         0.0600 
    212 H212       -6.5658  -24.3171  -52.3596 H         1 UNK         0.0600 
    213 H213       -6.2696  -25.9269  -52.9971 H         1 UNK         0.0600 
    214 H214       -5.2769  -24.5805  -53.5335 H         1 UNK         0.0600 
    215 H215       -3.7816  -25.5144  -49.2233 H         1 UNK         0.3000 
    216 H216       -4.2113  -26.2921  -47.2028 H         1 UNK         0.0600 
    217 H217       -5.8678  -27.9982  -46.6861 H         1 UNK         0.0600 
    218 H218       -5.0684  -28.4304  -48.1891 H         1 UNK         0.0600 
    219 H219       -6.6988  -27.7579  -48.2120 H         1 UNK         0.0600 
    220 H220       -4.6764  -23.8050  -47.8046 H         1 UNK         0.3000 
    221 H221       -5.5499  -21.8711  -47.1545 H         1 UNK         0.0600 
    222 H222       -6.7404  -23.4255  -44.8042 H         1 UNK         0.0600 
    223 H223       -5.0718  -22.8699  -44.9084 H         1 UNK         0.0600 
    224 H224       -6.3839  -21.7037  -44.8572 H         1 UNK         0.0600 
    225 H225       -6.9963  -22.9716  -49.1965 H         1 UNK         0.3000 
    226 H226       -9.8536  -22.2415  -48.6294 H         1 UNK         0.0600 
    227 H227       -9.5391  -24.7064  -48.9004 H         1 UNK         0.0600 
    228 H228      -10.4626  -24.0291  -50.2345 H         1 UNK         0.0600 
    229 H229       -8.7667  -24.4426  -50.4620 H         1 UNK         0.0600 
    230 H230       -7.0515  -21.8225  -50.7432 H         1 UNK         0.3000 
    231 H231       -8.4619  -19.8142  -52.3397 H         1 UNK         0.0600 
    232 H232       -7.2681  -22.3241  -53.6496 H         1 UNK         0.0600 
    233 H233       -7.9574  -20.9366  -54.4957 H         1 UNK         0.0600 
    234 H234       -8.9861  -21.9675  -53.5267 H         1 UNK         0.0600 
    235 H235       -5.9461  -20.6108  -54.2035 H         1 UNK         0.3000 
    236 H236       -3.7403  -19.4000  -52.7606 H         1 UNK         0.0600 
    237 H237       -3.5536  -17.4535  -54.2948 H         1 UNK         0.0600 
    238 H238       -5.0244  -17.9332  -55.1361 H         1 UNK         0.0600 
    239 H239       -5.0933  -17.3834  -53.4634 H         1 UNK         0.0600 
    240 H240       -2.0350  -18.9312  -54.7138 H         1 UNK         0.3000 
    241 H241       -1.1432  -21.3881  -55.6132 H         1 UNK         0.0600 
    242 H242       -2.2210  -22.1020  -58.9270 H         1 UNK         0.3800 
    243 H243       -1.2259  -22.5886  -57.5850 H         1 UNK         0.3800 
    244 H244       -0.3971  -18.6547  -56.7909 H         1 UNK         0.0800 
    245 H245        0.5349  -20.1188  -56.9286 H         1 UNK         0.0800 
    246 H246       -0.7661  -17.3111  -54.7676 H         1 UNK         0.0800 
    247 H247        0.8792  -16.8490  -55.1294 H         1 UNK         0.0800 
@<TRIPOS>BOND
     1    1    2 1    
     2    1  127 1    
     3    1  128 1    
     4    1  129 1    
     5    2    3 2    
     6    2    4 am   BACKBONE|DICT|INTERRES
     7    4    5 1    
     8    4  130 1    
     9    5    6 1    
    10    5   65 1    
    11    5  131 1    
    12    6    7 1    
    13    6  132 1    
    14    6  133 1    
    15    7    8 1    
    16    8    9 1    
    17    8  134 1    
    18    8  135 1    
    19    9   10 ar   
    20    9   14 ar   
    21   10   11 ar   
    22   10  136 1    
    23   11   12 ar   
    24   11  126 1    
    25   12   13 ar   
    26   12  137 1    
    27   13   14 ar   
    28   13   15 1    
    29   14  138 1    
    30   15   16 1    
    31   15  139 1    
    32   15  140 1    
    33   16   17 1    
    34   17   18 1    
    35   17  141 1    
    36   17  142 1    
    37   18   19 1    
    38   18   67 1    
    39   18  143 1    
    40   19   20 am   BACKBONE|DICT|INTERRES
    41   19  144 1    
    42   20   21 2    
    43   20   22 1    
    44   22   23 1    
    45   22   24 1    
    46   22  145 1    
    47   23  146 1    
    48   23  147 1    
    49   23  148 1    
    50   24   25 am   BACKBONE|DICT|INTERRES
    51   24  149 1    
    52   25   26 2    
    53   25   27 1    
    54   27   28 1    
    55   27   29 1    
    56   27  150 1    
    57   28  151 1    
    58   28  152 1    
    59   28  153 1    
    60   29   30 am   BACKBONE|DICT|INTERRES
    61   29  154 1    
    62   30   31 2    
    63   30   32 1    
    64   32   33 1    
    65   32   34 1    
    66   32  155 1    
    67   33  156 1    
    68   33  157 1    
    69   33  158 1    
    70   34   35 am   BACKBONE|DICT|INTERRES
    71   34  159 1    
    72   35   36 2    
    73   35   37 1    
    74   37   38 1    
    75   37   39 1    
    76   37  160 1    
    77   38  161 1    
    78   38  162 1    
    79   38  163 1    
    80   39   40 am   BACKBONE|DICT|INTERRES
    81   39  164 1    
    82   40   41 2    
    83   40   42 1    
    84   42   43 1    
    85   42   44 1    
    86   42  165 1    
    87   43  166 1    
    88   43  167 1    
    89   43  168 1    
    90   44   45 am   BACKBONE|DICT|INTERRES
    91   44  169 1    
    92   45   46 2    
    93   45   47 1    
    94   47   48 1    
    95   47   49 1    
    96   47  170 1    
    97   48  171 1    
    98   48  172 1    
    99   48  173 1    
   100   49   50 am   BACKBONE|DICT|INTERRES
   101   49  174 1    
   102   50   51 2    
   103   50   52 1    
   104   52   53 1    
   105   52   54 1    
   106   52  175 1    
   107   53  176 1    
   108   53  177 1    
   109   53  178 1    
   110   54   55 am   BACKBONE|DICT|INTERRES
   111   54  179 1    
   112   55   56 2    
   113   55   57 1    
   114   57   58 1    
   115   57   59 1    
   116   57  180 1    
   117   58  181 1    
   118   58  182 1    
   119   58  183 1    
   120   59   60 am   BACKBONE|DICT|INTERRES
   121   59  184 1    
   122   60   61 2    
   123   60   62 1    
   124   62   63 1    
   125   62   64 1    
   126   62  185 1    
   127   63  186 1    
   128   63  187 1    
   129   63  188 1    
   130   64   65 am   BACKBONE|DICT|INTERRES
   131   64  189 1    
   132   65   66 2    
   133   67   68 2    
   134   67   69 am   BACKBONE|DICT|INTERRES
   135   69   70 1    
   136   69  190 1    
   137   70   71 1    
   138   70   72 1    
   139   70  191 1    
   140   71  192 1    
   141   71  193 1    
   142   71  194 1    
   143   72   73 2    
   144   72   74 am   BACKBONE|DICT|INTERRES
   145   74   75 1    
   146   74  195 1    
   147   75   76 1    
   148   75   77 1    
   149   75  196 1    
   150   76  197 1    
   151   76  198 1    
   152   76  199 1    
   153   77   78 2    
   154   77   79 am   BACKBONE|DICT|INTERRES
   155   79   80 1    
   156   79  200 1    
   157   80   81 1    
   158   80   82 1    
   159   80  201 1    
   160   81  202 1    
   161   81  203 1    
   162   81  204 1    
   163   82   83 2    
   164   82   84 am   BACKBONE|DICT|INTERRES
   165   84   85 1    
   166   84  205 1    
   167   85   86 1    
   168   85   87 1    
   169   85  206 1    
   170   86  207 1    
   171   86  208 1    
   172   86  209 1    
   173   87   88 2    
   174   87   89 am   BACKBONE|DICT|INTERRES
   175   89   90 1    
   176   89  210 1    
   177   90   91 1    
   178   90   92 1    
   179   90  211 1    
   180   91  212 1    
   181   91  213 1    
   182   91  214 1    
   183   92   93 2    
   184   92   94 am   BACKBONE|DICT|INTERRES
   185   94   95 1    
   186   94  215 1    
   187   95   96 1    
   188   95   97 1    
   189   95  216 1    
   190   96  217 1    
   191   96  218 1    
   192   96  219 1    
   193   97   98 2    
   194   97   99 am   BACKBONE|DICT|INTERRES
   195   99  100 1    
   196   99  220 1    
   197  100  101 1    
   198  100  102 1    
   199  100  221 1    
   200  101  222 1    
   201  101  223 1    
   202  101  224 1    
   203  102  103 2    
   204  102  104 am   BACKBONE|DICT|INTERRES
   205  104  105 1    
   206  104  225 1    
   207  105  106 1    
   208  105  107 1    
   209  105  226 1    
   210  106  227 1    
   211  106  228 1    
   212  106  229 1    
   213  107  108 2    
   214  107  109 am   BACKBONE|DICT|INTERRES
   215  109  110 1    
   216  109  230 1    
   217  110  111 1    
   218  110  112 1    
   219  110  231 1    
   220  111  232 1    
   221  111  233 1    
   222  111  234 1    
   223  112  113 2    
   224  112  114 am   BACKBONE|DICT|INTERRES
   225  114  115 1    
   226  114  235 1    
   227  115  116 1    
   228  115  117 1    
   229  115  236 1    
   230  116  237 1    
   231  116  238 1    
   232  116  239 1    
   233  117  118 2    
   234  117  119 am   BACKBONE|DICT|INTERRES
   235  119  120 1    
   236  119  240 1    
   237  120  121 1    
   238  120  124 1    
   239  120  241 1    
   240  121  122 am   BACKBONE|DICT|INTERRES
   241  121  123 2    
   242  122  242 1    
   243  122  243 1    
   244  124  125 1    
   245  124  244 1    
   246  124  245 1    
   247  125  126 1    
   248  126  246 1    
   249  126  247 1    
@<TRIPOS>SUBSTRUCTURE
     1 UNK         1 GROUP             0       ****    0 ROOT    
