@<TRIPOS>MOLECULE
3R540
247   249    1
SMALL
USER_CHARGES


@<TRIPOS>ATOM
      1 CA          6.9213  -12.8358  -46.9789 C.3       0 UNK        -0.1800 
      2 C           5.7782  -12.9481  -47.9776 C.2       0 UNK         0.5000 
      3 O           5.2704  -11.9273  -48.4381 O.2       0 UNK        -0.5000 
      4 N           5.3746  -14.1837  -48.3015 N.am      1 UNK        -0.5000 
      5 CA          4.2963  -14.5457  -49.2307 C.3       1 UNK         0.1400 
      6 C6          4.6225  -14.2474  -50.7217 C.3       23 UNK        -0.0398 
      7 S7          5.7742  -15.4988  -51.3937 S.3       23 UNK        -0.2404 
      8 C8          4.6677  -16.5999  -52.3522 C.3       23 UNK        -0.0205 
      9 C9          3.3998  -16.9781  -51.5944 C.ar      23 UNK        -0.0193 
     10 C10         2.1533  -16.5359  -52.0471 C.ar      23 UNK        -0.1150 
     11 C11         0.9944  -16.7981  -51.3112 C.ar      23 UNK        -0.0193 
     12 C12         1.0890  -17.4957  -50.1049 C.ar      23 UNK        -0.1150 
     13 C13         2.3289  -17.9479  -49.6452 C.ar      23 UNK        -0.0193 
     14 C14         3.4745  -17.7211  -50.4132 C.ar      23 UNK        -0.1150 
     15 C15         2.4454  -18.6252  -48.2913 C.3       23 UNK        -0.0205 
     16 S16         2.1018  -20.4035  -48.3940 S.3       23 UNK        -0.2404 
     17 C17         0.2789  -20.4328  -48.3269 C.3       23 UNK        -0.0398 
     18 CA         -0.2101  -21.6791  -47.5593 C.3       11 UNK         0.1400 
     19 N           0.0737  -21.5968  -46.1225 N.am      11 UNK        -0.5000 
     20 C           0.0347  -22.6458  -45.2910 C.2       10 UNK         0.5000 
     21 O          -0.2461  -23.7888  -45.6499 O.2       10 UNK        -0.5000 
     22 CA          0.3058  -22.3672  -43.8028 C.3       10 UNK         0.1400 
     23 CB          1.8056  -22.1578  -43.5460 C.3       10 UNK        -0.1800 
     24 N          -0.4544  -21.2235  -43.2973 N.am      10 UNK        -0.5000 
     25 C          -1.7934  -21.1726  -43.2452 C.2       9 UNK         0.5000 
     26 O          -2.5258  -22.0972  -43.5967 O.2       9 UNK        -0.5000 
     27 CA         -2.4276  -19.8600  -42.7533 C.3       9 UNK         0.1400 
     28 CB         -2.4098  -19.7912  -41.2192 C.3       9 UNK        -0.1800 
     29 N          -1.7846  -18.6693  -43.3085 N.am      9 UNK        -0.5000 
     30 C          -1.7389  -18.3617  -44.6130 C.2       8 UNK         0.5000 
     31 O          -2.2530  -19.0437  -45.4979 O.2       8 UNK        -0.5000 
     32 CA         -0.9253  -17.1138  -45.0008 C.3       8 UNK         0.1400 
     33 CB         -1.6949  -15.8275  -44.6635 C.3       8 UNK        -0.1800 
     34 N           0.3888  -17.0856  -44.3588 N.am      8 UNK        -0.5000 
     35 C           1.3237  -18.0374  -44.4987 C.2       7 UNK         0.5000 
     36 O           1.1958  -19.0295  -45.2155 O.2       7 UNK        -0.5000 
     37 CA          2.5939  -17.8753  -43.6512 C.3       7 UNK         0.1400 
     38 CB          3.5445  -16.8430  -44.2789 C.3       7 UNK        -0.1800 
     39 N           2.2733  -17.4931  -42.2758 N.am      7 UNK        -0.5000 
     40 C           1.6559  -18.2964  -41.3964 C.2       6 UNK         0.5000 
     41 O           1.3316  -19.4586  -41.6396 O.2       6 UNK        -0.5000 
     42 CA          1.3026  -17.6811  -40.0306 C.3       6 UNK         0.1400 
     43 CB          2.5181  -17.7068  -39.0920 C.3       6 UNK        -0.1800 
     44 N           0.8058  -16.3094  -40.1460 N.am      6 UNK        -0.5000 
     45 C          -0.3447  -15.9680  -40.7437 C.2       5 UNK         0.5000 
     46 O          -1.1282  -16.7802  -41.2328 O.2       5 UNK        -0.5000 
     47 CA         -0.6490  -14.4631  -40.8538 C.3       5 UNK         0.1400 
     48 CB         -1.3991  -13.9718  -39.6071 C.3       5 UNK        -0.1800 
     49 N           0.5489  -13.6437  -41.0562 N.am      5 UNK        -0.5000 
     50 C           1.3470  -13.7203  -42.1281 C.2       4 UNK         0.5000 
     51 O           1.1837  -14.5226  -43.0530 O.2       4 UNK        -0.5000 
     52 CA          2.5600  -12.7799  -42.1464 C.3       4 UNK         0.1400 
     53 CB          3.8257  -13.5393  -41.7187 C.3       4 UNK        -0.1800 
     54 N           2.7416  -12.2772  -43.5024 N.am      4 UNK        -0.5000 
     55 C           2.2819  -11.1045  -43.9576 C.2       3 UNK         0.5000 
     56 O           1.7874  -10.2327  -43.2418 O.2       3 UNK        -0.5000 
     57 CA          2.3655  -10.8848  -45.4810 C.3       3 UNK         0.1400 
     58 CB          3.6917  -10.2082  -45.8577 C.3       3 UNK        -0.1800 
     59 N           2.2336  -12.1404  -46.2242 N.am      3 UNK        -0.5000 
     60 C           1.0972  -12.8452  -46.3286 C.2       2 UNK         0.5000 
     61 O           0.0127  -12.4416  -45.9070 O.2       2 UNK        -0.5000 
     62 CA          1.1940  -14.2526  -46.9544 C.3       2 UNK         0.1400 
     63 CB         -0.0104  -14.5918  -47.8584 C.3       2 UNK        -0.1800 
     64 N           2.4693  -14.5347  -47.6275 N.am      2 UNK        -0.5000 
     65 C           2.9297  -14.0000  -48.7693 C.2       1 UNK         0.5000 
     66 O           2.3495  -13.1238  -49.4118 O.2       1 UNK        -0.5000 
     67 C          -1.6923  -21.9863  -47.8534 C.2       11 UNK         0.5000 
     68 O          -1.9746  -22.6766  -48.8346 O.2       11 UNK        -0.5000 
     69 N          -2.6074  -21.5224  -46.9911 N.am      12 UNK        -0.5000 
     70 CA         -4.0264  -21.8672  -47.0469 C.3       12 UNK         0.1400 
     71 CB         -4.8366  -20.9358  -46.1333 C.3       12 UNK        -0.1800 
     72 C          -4.2804  -23.3434  -46.7013 C.2       12 UNK         0.5000 
     73 O          -5.0214  -24.0098  -47.4233 O.2       12 UNK        -0.5000 
     74 N          -3.6305  -23.8395  -45.6383 N.am      13 UNK        -0.5000 
     75 CA         -3.6821  -25.2389  -45.2075 C.3       13 UNK         0.1400 
     76 CB         -2.9986  -25.3812  -43.8392 C.3       13 UNK        -0.1800 
     77 C          -3.0584  -26.2041  -46.2330 C.2       13 UNK         0.5000 
     78 O          -3.6009  -27.2865  -46.4583 O.2       13 UNK        -0.5000 
     79 N          -1.9520  -25.7809  -46.8594 N.am      14 UNK        -0.5000 
     80 CA         -1.2803  -26.4950  -47.9471 C.3       14 UNK         0.1400 
     81 CB          0.1307  -25.9136  -48.1264 C.3       14 UNK        -0.1800 
     82 C          -2.0461  -26.4427  -49.2849 C.2       14 UNK         0.5000 
     83 O          -1.7503  -27.2465  -50.1698 O.2       14 UNK        -0.5000 
     84 N          -2.9922  -25.4986  -49.4110 N.am      15 UNK        -0.5000 
     85 CA         -3.7848  -25.1747  -50.5999 C.3       15 UNK         0.1400 
     86 CB         -4.7413  -26.3319  -50.9532 C.3       15 UNK        -0.1800 
     87 C          -2.8854  -24.7383  -51.7737 C.2       15 UNK         0.5000 
     88 O          -2.9638  -25.3010  -52.8675 O.2       15 UNK        -0.5000 
     89 N          -2.0239  -23.7451  -51.5080 N.am      16 UNK        -0.5000 
     90 CA         -0.9650  -23.2617  -52.4029 C.3       16 UNK         0.1400 
     91 CB         -0.1480  -22.1879  -51.6704 C.3       16 UNK        -0.1800 
     92 C          -1.4427  -22.7324  -53.7715 C.2       16 UNK         0.5000 
     93 O          -0.6698  -22.7691  -54.7296 O.2       16 UNK        -0.5000 
     94 N          -2.7000  -22.2789  -53.8464 N.am      17 UNK        -0.5000 
     95 CA         -3.3811  -21.8882  -55.0825 C.3       17 UNK         0.1400 
     96 CB         -3.5788  -20.3622  -55.1048 C.3       17 UNK        -0.1800 
     97 C          -4.7056  -22.6618  -55.2241 C.2       17 UNK         0.5000 
     98 O          -5.6948  -22.1077  -55.7062 O.2       17 UNK        -0.5000 
     99 N          -4.7102  -23.9259  -54.7744 N.am      18 UNK        -0.5000 
    100 CA        -5.8544  -24.8377  -54.7226 C.3       18 UNK         0.1400 
    101 CB        -6.2931  -25.2455  -56.1479 C.3       18 UNK        -0.1800 
    102 C         -6.9859  -24.2664  -53.8415 C.2       18 UNK         0.5000 
    103 O         -6.7034  -23.7659  -52.7498 O.2       18 UNK        -0.5000 
    104 N         -8.2331  -24.3280  -54.3269 N.am      19 UNK        -0.5000 
    105 CA        -9.4481  -23.8791  -53.6403 C.3       19 UNK         0.1400 
    106 CB       -10.6672  -24.2688  -54.4907 C.3       19 UNK        -0.1800 
    107 C         -9.4865  -22.3740  -53.3030 C.2       19 UNK         0.5000 
    108 O        -10.2464  -21.9796  -52.4177 O.2       19 UNK        -0.5000 
    109 N         -8.6666  -21.5623  -53.9875 N.am      20 UNK        -0.5000 
    110 CA        -8.4920  -20.1376  -53.6984 C.3       20 UNK         0.1400 
    111 CB        -7.8443  -19.4496  -54.9099 C.3       20 UNK        -0.1800 
    112 C         -7.6626  -19.8763  -52.4247 C.2       20 UNK         0.5000 
    113 O         -7.6966  -18.7564  -51.9117 O.2       20 UNK        -0.5000 
    114 N         -6.9104  -20.8876  -51.9529 N.am      21 UNK        -0.5000 
    115 CA        -6.0995  -20.9029  -50.7244 C.3       21 UNK         0.1400 
    116 CB        -7.0255  -20.8276  -49.4929 C.3       21 UNK        -0.1800 
    117 C         -4.9786  -19.8371  -50.6781 C.2       21 UNK         0.5000 
    118 O         -4.4368  -19.5591  -49.6092 O.2       21 UNK        -0.5000 
    119 N         -4.6626  -19.2529  -51.8400 N.am      22 UNK        -0.5000 
    120 CA        -3.8080  -18.0706  -52.0210 C.3       22 UNK         0.1400 
    121 C         -4.3969  -16.7597  -51.4077 C.2       22 UNK         0.5000 
    122 N         -5.7050  -16.6668  -51.1906 N.am      22 UNK        -0.7600 
    123 O         -3.6754  -15.8018  -51.1472 O.2       22 UNK        -0.5000 
    124 C124       -2.3193  -18.3418  -51.6548 C.3       23 UNK        -0.0398 
    125 S125       -1.1770  -17.5504  -52.8403 S.3       23 UNK        -0.2404 
    126 C126       -0.3507  -16.2981  -51.8107 C.3       23 UNK        -0.0205 
    127 H127        7.7561  -12.2948  -47.4247 H         1 UNK         0.0600 
    128 H128        7.2819  -13.8146  -46.6617 H         1 UNK         0.0600 
    129 H129        6.5951  -12.2907  -46.0932 H         1 UNK         0.0600 
    130 H130        5.8556  -14.9686  -47.8850 H         1 UNK         0.3000 
    131 H131        4.2054  -15.6230  -49.1206 H         1 UNK         0.0600 
    132 H132        3.7234  -14.2388  -51.3392 H         1 UNK         0.0800 
    133 H133        5.0630  -13.2564  -50.8350 H         1 UNK         0.0800 
    134 H134        4.4192  -16.1087  -53.2942 H         1 UNK         0.0800 
    135 H135        5.2118  -17.5078  -52.6159 H         1 UNK         0.0800 
    136 H136        2.0846  -15.9690  -52.9650 H         1 UNK         0.1150 
    137 H137        0.1993  -17.6750  -49.5190 H         1 UNK         0.1150 
    138 H138        4.4375  -18.0599  -50.0571 H         1 UNK         0.1150 
    139 H139        3.4512  -18.4904  -47.8911 H         1 UNK         0.0800 
    140 H140        1.7745  -18.1447  -47.5796 H         1 UNK         0.0800 
    141 H141       -0.0884  -20.4222  -49.3532 H         1 UNK         0.0800 
    142 H142       -0.1029  -19.5267  -47.8536 H         1 UNK         0.0800 
    143 H143        0.3459  -22.5358  -47.9459 H         1 UNK         0.0600 
    144 H144        0.3449  -20.6861  -45.7601 H         1 UNK         0.3000 
    145 H145       -0.0108  -23.2482  -43.2406 H         1 UNK         0.0600 
    146 H146        2.0113  -22.0544  -42.4806 H         1 UNK         0.0600 
    147 H147        2.1820  -21.2659  -44.0470 H         1 UNK         0.0600 
    148 H148        2.3858  -23.0074  -43.9082 H         1 UNK         0.0600 
    149 H149        0.0837  -20.4334  -42.9577 H         1 UNK         0.3000 
    150 H150       -3.4694  -19.8540  -43.0796 H         1 UNK         0.0600 
    151 H151       -2.8892  -20.6680  -40.7822 H         1 UNK         0.0600 
    152 H152       -2.9467  -18.9137  -40.8586 H         1 UNK         0.0600 
    153 H153       -1.3921  -19.7432  -40.8302 H         1 UNK         0.0600 
    154 H154       -1.3641  -18.0305  -42.6383 H         1 UNK         0.3000 
    155 H155       -0.7617  -17.1416  -46.0800 H         1 UNK         0.0600 
    156 H156       -2.6248  -15.7729  -45.2305 H         1 UNK         0.0600 
    157 H157       -1.1130  -14.9380  -44.9033 H         1 UNK         0.0600 
    158 H158       -1.9540  -15.7757  -43.6066 H         1 UNK         0.0600 
    159 H159        0.5872  -16.2923  -43.7568 H         1 UNK         0.3000 
    160 H160        3.1069  -18.8391  -43.6270 H         1 UNK         0.0600 
    161 H161        3.0908  -15.8541  -44.3428 H         1 UNK         0.0600 
    162 H162        3.8251  -17.1405  -45.2900 H         1 UNK         0.0600 
    163 H163        4.4643  -16.7529  -43.7009 H         1 UNK         0.0600 
    164 H164        2.4562  -16.5364  -42.0135 H         1 UNK         0.3000 
    165 H165        0.5136  -18.2909  -39.5852 H         1 UNK         0.0600 
    166 H166        2.2556  -17.3457  -38.0975 H         1 UNK         0.0600 
    167 H167        2.9003  -18.7221  -38.9773 H         1 UNK         0.0600 
    168 H168        3.3341  -17.0893  -39.4693 H         1 UNK         0.0600 
    169 H169        1.3877  -15.5770  -39.7677 H         1 UNK         0.3000 
    170 H170       -1.2988  -14.3212  -41.7196 H         1 UNK         0.0600 
    171 H171       -0.7884  -14.0591  -38.7076 H         1 UNK         0.0600 
    172 H172       -1.6971  -12.9283  -39.7116 H         1 UNK         0.0600 
    173 H173       -2.3080  -14.5528  -39.4446 H         1 UNK         0.0600 
    174 H174        0.7563  -12.9664  -40.3362 H         1 UNK         0.3000 
    175 H175        2.3947  -11.9543  -41.4509 H         1 UNK         0.0600 
    176 H176        4.0358  -14.3833  -42.3768 H         1 UNK         0.0600 
    177 H177        4.6972  -12.8846  -41.7290 H         1 UNK         0.0600 
    178 H178        3.7251  -13.9292  -40.7051 H         1 UNK         0.0600 
    179 H179        3.0704  -12.9496  -44.1783 H         1 UNK         0.3000 
    180 H180        1.5473  -10.2222  -45.7712 H         1 UNK         0.0600 
    181 H181        3.7397  -10.0035  -46.9275 H         1 UNK         0.0600 
    182 H182        4.5500  -10.8278  -45.5962 H         1 UNK         0.0600 
    183 H183        3.8046   -9.2551  -45.3395 H         1 UNK         0.0600 
    184 H184        3.0714  -12.5138  -46.6449 H         1 UNK         0.3000 
    185 H185        1.1576  -14.9381  -46.1071 H         1 UNK         0.0600 
    186 H186        0.0402  -15.6220  -48.2067 H         1 UNK         0.0600 
    187 H187       -0.9528  -14.4835  -47.3211 H         1 UNK         0.0600 
    188 H188       -0.0633  -13.9429  -48.7324 H         1 UNK         0.0600 
    189 H189        3.0516  -15.2193  -47.1672 H         1 UNK         0.3000 
    190 H190       -2.3201  -20.8909  -46.2502 H         1 UNK         0.3000 
    191 H191       -4.3615  -21.7152  -48.0729 H         1 UNK         0.0600 
    192 H192       -4.7508  -19.8991  -46.4597 H         1 UNK         0.0600 
    193 H193       -4.5008  -20.9905  -45.0982 H         1 UNK         0.0600 
    194 H194       -5.8958  -21.1947  -46.1483 H         1 UNK         0.0600 
    195 H195       -3.0718  -23.2112  -45.0664 H         1 UNK         0.3000 
    196 H196       -4.7327  -25.5131  -45.0918 H         1 UNK         0.0600 
    197 H197       -3.4907  -24.7637  -43.0876 H         1 UNK         0.0600 
    198 H198       -1.9501  -25.0846  -43.8797 H         1 UNK         0.0600 
    199 H199       -3.0360  -26.4132  -43.4882 H         1 UNK         0.0600 
    200 H200       -1.5178  -24.9155  -46.5489 H         1 UNK         0.3000 
    201 H201       -1.1845  -27.5446  -47.6620 H         1 UNK         0.0600 
    202 H202        0.7055  -25.9765  -47.2022 H         1 UNK         0.0600 
    203 H203        0.0954  -24.8673  -48.4303 H         1 UNK         0.0600 
    204 H204        0.6852  -26.4584  -48.8914 H         1 UNK         0.0600 
    205 H205       -3.1355  -24.8826  -48.6219 H         1 UNK         0.3000 
    206 H206       -4.3970  -24.3103  -50.3380 H         1 UNK         0.0600 
    207 H207       -4.2042  -27.2226  -51.2800 H         1 UNK         0.0600 
    208 H208       -5.3569  -26.6064  -50.0966 H         1 UNK         0.0600 
    209 H209       -5.4177  -26.0453  -51.7577 H         1 UNK         0.0600 
    210 H210       -2.0220  -23.3574  -50.5661 H         1 UNK         0.3000 
    211 H211       -0.3061  -24.1089  -52.6031 H         1 UNK         0.0600 
    212 H212       -0.7688  -21.3331  -51.4051 H         1 UNK         0.0600 
    213 H213        0.6696  -21.8201  -52.2917 H         1 UNK         0.0600 
    214 H214        0.2934  -22.5830  -50.7551 H         1 UNK         0.0600 
    215 H215       -3.2661  -22.3073  -53.0112 H         1 UNK         0.3000 
    216 H216       -2.7782  -22.1612  -55.9506 H         1 UNK         0.0600 
    217 H217       -3.9333  -20.0312  -56.0815 H         1 UNK         0.0600 
    218 H218       -2.6461  -19.8357  -54.9011 H         1 UNK         0.0600 
    219 H219       -4.3152  -20.0448  -54.3701 H         1 UNK         0.0600 
    220 H220       -3.8675  -24.2848  -54.3362 H         1 UNK         0.3000 
    221 H221       -5.5033  -25.7383  -54.2176 H         1 UNK         0.0600 
    222 H222       -6.7091  -24.4073  -56.7081 H         1 UNK         0.0600 
    223 H223       -5.4476  -25.6323  -56.7170 H         1 UNK         0.0600 
    224 H224       -7.0433  -26.0367  -56.1211 H         1 UNK         0.0600 
    225 H225       -8.3654  -24.7325  -55.2426 H         1 UNK         0.3000 
    226 H226       -9.5061  -24.4191  -52.6931 H         1 UNK         0.0600 
    227 H227      -10.7077  -25.3460  -54.6538 H         1 UNK         0.0600 
    228 H228      -11.5972  -23.9824  -53.9977 H         1 UNK         0.0600 
    229 H229      -10.6489  -23.7806  -55.4659 H         1 UNK         0.0600 
    230 H230       -8.0631  -21.9610  -54.6945 H         1 UNK         0.3000 
    231 H231       -9.4770  -19.6920  -53.5443 H         1 UNK         0.0600 
    232 H232       -7.7757  -18.3720  -54.7553 H         1 UNK         0.0600 
    233 H233       -8.4293  -19.6100  -55.8156 H         1 UNK         0.0600 
    234 H234       -6.8347  -19.8164  -55.0927 H         1 UNK         0.0600 
    235 H235       -6.9494  -21.7766  -52.4423 H         1 UNK         0.3000 
    236 H236       -5.5965  -21.8707  -50.7031 H         1 UNK         0.0600 
    237 H237       -7.5296  -19.8633  -49.4243 H         1 UNK         0.0600 
    238 H238       -7.7904  -21.6034  -49.5293 H         1 UNK         0.0600 
    239 H239       -6.4730  -20.9670  -48.5661 H         1 UNK         0.0600 
    240 H240       -5.1898  -19.5365  -52.6513 H         1 UNK         0.3000 
    241 H241       -3.8543  -17.8928  -53.0958 H         1 UNK         0.0600 
    242 H242       -6.3341  -17.4329  -51.4117 H         1 UNK         0.3800 
    243 H243       -6.0785  -15.8153  -50.8031 H         1 UNK         0.3800 
    244 H244       -2.0983  -18.0488  -50.6275 H         1 UNK         0.0800 
    245 H245       -2.1125  -19.4108  -51.7031 H         1 UNK         0.0800 
    246 H246       -0.9832  -16.0032  -50.9725 H         1 UNK         0.0800 
    247 H247       -0.2101  -15.3958  -52.4076 H         1 UNK         0.0800 
@<TRIPOS>BOND
     1    1    2 1    
     2    1  127 1    
     3    1  128 1    
     4    1  129 1    
     5    2    3 2    
     6    2    4 am   BACKBONE|DICT|INTERRES
     7    4    5 1    
     8    4  130 1    
     9    5    6 1    
    10    5   65 1    
    11    5  131 1    
    12    6    7 1    
    13    6  132 1    
    14    6  133 1    
    15    7    8 1    
    16    8    9 1    
    17    8  134 1    
    18    8  135 1    
    19    9   10 ar   
    20    9   14 ar   
    21   10   11 ar   
    22   10  136 1    
    23   11   12 ar   
    24   11  126 1    
    25   12   13 ar   
    26   12  137 1    
    27   13   14 ar   
    28   13   15 1    
    29   14  138 1    
    30   15   16 1    
    31   15  139 1    
    32   15  140 1    
    33   16   17 1    
    34   17   18 1    
    35   17  141 1    
    36   17  142 1    
    37   18   19 1    
    38   18   67 1    
    39   18  143 1    
    40   19   20 am   BACKBONE|DICT|INTERRES
    41   19  144 1    
    42   20   21 2    
    43   20   22 1    
    44   22   23 1    
    45   22   24 1    
    46   22  145 1    
    47   23  146 1    
    48   23  147 1    
    49   23  148 1    
    50   24   25 am   BACKBONE|DICT|INTERRES
    51   24  149 1    
    52   25   26 2    
    53   25   27 1    
    54   27   28 1    
    55   27   29 1    
    56   27  150 1    
    57   28  151 1    
    58   28  152 1    
    59   28  153 1    
    60   29   30 am   BACKBONE|DICT|INTERRES
    61   29  154 1    
    62   30   31 2    
    63   30   32 1    
    64   32   33 1    
    65   32   34 1    
    66   32  155 1    
    67   33  156 1    
    68   33  157 1    
    69   33  158 1    
    70   34   35 am   BACKBONE|DICT|INTERRES
    71   34  159 1    
    72   35   36 2    
    73   35   37 1    
    74   37   38 1    
    75   37   39 1    
    76   37  160 1    
    77   38  161 1    
    78   38  162 1    
    79   38  163 1    
    80   39   40 am   BACKBONE|DICT|INTERRES
    81   39  164 1    
    82   40   41 2    
    83   40   42 1    
    84   42   43 1    
    85   42   44 1    
    86   42  165 1    
    87   43  166 1    
    88   43  167 1    
    89   43  168 1    
    90   44   45 am   BACKBONE|DICT|INTERRES
    91   44  169 1    
    92   45   46 2    
    93   45   47 1    
    94   47   48 1    
    95   47   49 1    
    96   47  170 1    
    97   48  171 1    
    98   48  172 1    
    99   48  173 1    
   100   49   50 am   BACKBONE|DICT|INTERRES
   101   49  174 1    
   102   50   51 2    
   103   50   52 1    
   104   52   53 1    
   105   52   54 1    
   106   52  175 1    
   107   53  176 1    
   108   53  177 1    
   109   53  178 1    
   110   54   55 am   BACKBONE|DICT|INTERRES
   111   54  179 1    
   112   55   56 2    
   113   55   57 1    
   114   57   58 1    
   115   57   59 1    
   116   57  180 1    
   117   58  181 1    
   118   58  182 1    
   119   58  183 1    
   120   59   60 am   BACKBONE|DICT|INTERRES
   121   59  184 1    
   122   60   61 2    
   123   60   62 1    
   124   62   63 1    
   125   62   64 1    
   126   62  185 1    
   127   63  186 1    
   128   63  187 1    
   129   63  188 1    
   130   64   65 am   BACKBONE|DICT|INTERRES
   131   64  189 1    
   132   65   66 2    
   133   67   68 2    
   134   67   69 am   BACKBONE|DICT|INTERRES
   135   69   70 1    
   136   69  190 1    
   137   70   71 1    
   138   70   72 1    
   139   70  191 1    
   140   71  192 1    
   141   71  193 1    
   142   71  194 1    
   143   72   73 2    
   144   72   74 am   BACKBONE|DICT|INTERRES
   145   74   75 1    
   146   74  195 1    
   147   75   76 1    
   148   75   77 1    
   149   75  196 1    
   150   76  197 1    
   151   76  198 1    
   152   76  199 1    
   153   77   78 2    
   154   77   79 am   BACKBONE|DICT|INTERRES
   155   79   80 1    
   156   79  200 1    
   157   80   81 1    
   158   80   82 1    
   159   80  201 1    
   160   81  202 1    
   161   81  203 1    
   162   81  204 1    
   163   82   83 2    
   164   82   84 am   BACKBONE|DICT|INTERRES
   165   84   85 1    
   166   84  205 1    
   167   85   86 1    
   168   85   87 1    
   169   85  206 1    
   170   86  207 1    
   171   86  208 1    
   172   86  209 1    
   173   87   88 2    
   174   87   89 am   BACKBONE|DICT|INTERRES
   175   89   90 1    
   176   89  210 1    
   177   90   91 1    
   178   90   92 1    
   179   90  211 1    
   180   91  212 1    
   181   91  213 1    
   182   91  214 1    
   183   92   93 2    
   184   92   94 am   BACKBONE|DICT|INTERRES
   185   94   95 1    
   186   94  215 1    
   187   95   96 1    
   188   95   97 1    
   189   95  216 1    
   190   96  217 1    
   191   96  218 1    
   192   96  219 1    
   193   97   98 2    
   194   97   99 am   BACKBONE|DICT|INTERRES
   195   99  100 1    
   196   99  220 1    
   197  100  101 1    
   198  100  102 1    
   199  100  221 1    
   200  101  222 1    
   201  101  223 1    
   202  101  224 1    
   203  102  103 2    
   204  102  104 am   BACKBONE|DICT|INTERRES
   205  104  105 1    
   206  104  225 1    
   207  105  106 1    
   208  105  107 1    
   209  105  226 1    
   210  106  227 1    
   211  106  228 1    
   212  106  229 1    
   213  107  108 2    
   214  107  109 am   BACKBONE|DICT|INTERRES
   215  109  110 1    
   216  109  230 1    
   217  110  111 1    
   218  110  112 1    
   219  110  231 1    
   220  111  232 1    
   221  111  233 1    
   222  111  234 1    
   223  112  113 2    
   224  112  114 am   BACKBONE|DICT|INTERRES
   225  114  115 1    
   226  114  235 1    
   227  115  116 1    
   228  115  117 1    
   229  115  236 1    
   230  116  237 1    
   231  116  238 1    
   232  116  239 1    
   233  117  118 2    
   234  117  119 am   BACKBONE|DICT|INTERRES
   235  119  120 1    
   236  119  240 1    
   237  120  121 1    
   238  120  124 1    
   239  120  241 1    
   240  121  122 am   BACKBONE|DICT|INTERRES
   241  121  123 2    
   242  122  242 1    
   243  122  243 1    
   244  124  125 1    
   245  124  244 1    
   246  124  245 1    
   247  125  126 1    
   248  126  246 1    
   249  126  247 1    
@<TRIPOS>SUBSTRUCTURE
     1 UNK         1 GROUP             0       ****    0 ROOT    
