@<TRIPOS>MOLECULE
3R540
247   249    1
SMALL
USER_CHARGES


@<TRIPOS>ATOM
      1 CA         -1.9175  -13.6689  -47.8819 C.3       0 UNK        -0.1800 
      2 C          -0.5301  -13.1051  -48.1543 C.2       0 UNK         0.5000 
      3 O          -0.2744  -12.6113  -49.2529 O.2       0 UNK        -0.5000 
      4 N           0.3659  -13.1800  -47.1629 N.am      1 UNK        -0.5000 
      5 CA          1.7324  -12.6569  -47.2331 C.3       1 UNK         0.1400 
      6 C6          2.6297  -13.2070  -46.0957 C.3       23 UNK        -0.0398 
      7 S7          2.6912  -15.0261  -46.0265 S.3       23 UNK        -0.2404 
      8 C8          3.8376  -15.4013  -47.3849 C.3       23 UNK        -0.0205 
      9 C9          3.2997  -16.5127  -48.2723 C.ar      23 UNK        -0.0193 
     10 C10         2.3225  -16.2366  -49.2353 C.ar      23 UNK        -0.1150 
     11 C11         1.8633  -17.2433  -50.0903 C.ar      23 UNK        -0.0193 
     12 C12         2.3929  -18.5313  -49.9783 C.ar      23 UNK        -0.1150 
     13 C13         3.3646  -18.8210  -49.0169 C.ar      23 UNK        -0.0193 
     14 C14         3.8075  -17.8100  -48.1598 C.ar      23 UNK        -0.1150 
     15 C15         3.9652  -20.2160  -48.9326 C.3       23 UNK        -0.0205 
     16 S16         3.1355  -21.2428  -47.6842 S.3       23 UNK        -0.2404 
     17 C17         1.4841  -21.4414  -48.4311 C.3       23 UNK        -0.0398 
     18 CA          0.7132  -22.6403  -47.8414 C.3       11 UNK         0.1400 
     19 N           0.4864  -22.5132  -46.4008 N.am      11 UNK        -0.5000 
     20 C           0.0253  -23.4979  -45.6186 C.2       10 UNK         0.5000 
     21 O          -0.2170  -24.6366  -46.0211 O.2       10 UNK        -0.5000 
     22 CA         -0.2628  -23.1287  -44.1539 C.3       10 UNK         0.1400 
     23 CB          1.0217  -23.1602  -43.3122 C.3       10 UNK        -0.1800 
     24 N          -0.8933  -21.8127  -44.0451 N.am      10 UNK        -0.5000 
     25 C          -2.1449  -21.5451  -44.4429 C.2       9 UNK         0.5000 
     26 O          -2.9140  -22.3938  -44.8947 O.2       9 UNK        -0.5000 
     27 CA         -2.5956  -20.0757  -44.3656 C.3       9 UNK         0.1400 
     28 CB         -3.0829  -19.7280  -42.9514 C.3       9 UNK        -0.1800 
     29 N          -1.5379  -19.1468  -44.7692 N.am      9 UNK        -0.5000 
     30 C          -1.0896  -19.0346  -46.0288 C.2       8 UNK         0.5000 
     31 O          -1.5318  -19.6951  -46.9643 O.2       8 UNK        -0.5000 
     32 CA          0.0621  -18.0528  -46.3041 C.3       8 UNK         0.1400 
     33 CB         -0.5057  -16.6768  -46.6766 C.3       8 UNK        -0.1800 
     34 N           1.0069  -17.9148  -45.1975 N.am      8 UNK        -0.5000 
     35 C           1.6823  -18.9220  -44.6269 C.2       7 UNK         0.5000 
     36 O           1.5888  -20.0980  -44.9787 O.2       7 UNK        -0.5000 
     37 CA          2.5478  -18.5663  -43.4042 C.3       7 UNK         0.1400 
     38 CB          3.9657  -18.1749  -43.8473 C.3       7 UNK        -0.1800 
     39 N           1.9935  -17.5048  -42.5541 N.am      7 UNK        -0.5000 
     40 C           0.7656  -17.4870  -42.0102 C.2       6 UNK         0.5000 
     41 O          -0.0831  -18.3547  -42.2190 O.2       6 UNK        -0.5000 
     42 CA          0.4153  -16.3165  -41.0696 C.3       6 UNK         0.1400 
     43 CB          0.2486  -16.8213  -39.6274 C.3       6 UNK        -0.1800 
     44 N           1.3998  -15.2308  -41.0739 N.am      6 UNK        -0.5000 
     45 C           1.4986  -14.2951  -42.0252 C.2       5 UNK         0.5000 
     46 O           0.7994  -14.2730  -43.0411 O.2       5 UNK        -0.5000 
     47 CA          2.5918  -13.2309  -41.8092 C.3       5 UNK         0.1400 
     48 CB          3.9429  -13.7277  -42.3482 C.3       5 UNK        -0.1800 
     49 N           2.2610  -11.9666  -42.4627 N.am      5 UNK        -0.5000 
     50 C           1.2909  -11.1251  -42.0802 C.2       4 UNK         0.5000 
     51 O           0.6116  -11.2890  -41.0650 O.2       4 UNK        -0.5000 
     52 CA          1.0306   -9.9090  -42.9971 C.3       4 UNK         0.1400 
     53 CB          0.4952   -8.6796  -42.2330 C.3       4 UNK        -0.1800 
     54 N           2.1769   -9.5575  -43.8470 N.am      4 UNK        -0.5000 
     55 C           3.3693   -9.0738  -43.4594 C.2       3 UNK         0.5000 
     56 O           3.6488   -8.8095  -42.2898 O.2       3 UNK        -0.5000 
     57 CA          4.4553   -8.8886  -44.5435 C.3       3 UNK         0.1400 
     58 CB          5.6803   -9.7654  -44.2322 C.3       3 UNK        -0.1800 
     59 N           3.9942   -9.2131  -45.8948 N.am      3 UNK        -0.5000 
     60 C           3.2695   -8.4099  -46.6852 C.2       2 UNK         0.5000 
     61 O           2.9594   -7.2559  -46.3894 O.2       2 UNK        -0.5000 
     62 CA          2.7775   -9.0193  -48.0150 C.3       2 UNK         0.1400 
     63 CB          3.7401   -8.6631  -49.1581 C.3       2 UNK        -0.1800 
     64 N           2.6058  -10.4781  -47.9680 N.am      2 UNK        -0.5000 
     65 C           1.7239  -11.1165  -47.1857 C.2       1 UNK         0.5000 
     66 O           0.9718  -10.5376  -46.3981 O.2       1 UNK        -0.5000 
     67 C          -0.6047  -22.8895  -48.6032 C.2       11 UNK         0.5000 
     68 O          -0.6394  -23.7704  -49.4589 O.2       11 UNK        -0.5000 
     69 N          -1.6780  -22.1695  -48.2422 N.am      12 UNK        -0.5000 
     70 CA         -3.0288  -22.3679  -48.7681 C.3       12 UNK         0.1400 
     71 CB         -3.9661  -21.2642  -48.2563 C.3       12 UNK        -0.1800 
     72 C          -3.5959  -23.7569  -48.4407 C.2       12 UNK         0.5000 
     73 O          -4.1717  -24.3890  -49.3240 O.2       12 UNK        -0.5000 
     74 N          -3.3953  -24.2310  -47.2025 N.am      13 UNK        -0.5000 
     75 CA         -3.7795  -25.5772  -46.7724 C.3       13 UNK         0.1400 
     76 CB         -3.5058  -25.7501  -45.2711 C.3       13 UNK        -0.1800 
     77 C          -3.0891  -26.6797  -47.5983 C.2       13 UNK         0.5000 
     78 O          -3.7597  -27.6157  -48.0375 O.2       13 UNK        -0.5000 
     79 N          -1.7806  -26.5129  -47.8416 N.am      14 UNK        -0.5000 
     80 CA         -0.9804  -27.3747  -48.7131 C.3       14 UNK         0.1400 
     81 CB          0.5073  -27.0268  -48.5541 C.3       14 UNK        -0.1800 
     82 C          -1.4115  -27.3011  -50.1919 C.2       14 UNK         0.5000 
     83 O          -1.4722  -28.3365  -50.8571 O.2       14 UNK        -0.5000 
     84 N          -1.7453  -26.0958  -50.6733 N.am      15 UNK        -0.5000 
     85 CA         -2.2617  -25.8058  -52.0141 C.3       15 UNK         0.1400 
     86 CB         -2.0216  -24.3203  -52.3402 C.3       15 UNK        -0.1800 
     87 C          -3.7423  -26.2130  -52.1809 C.2       15 UNK         0.5000 
     88 O          -4.5828  -25.3798  -52.5286 O.2       15 UNK        -0.5000 
     89 N          -4.0190  -27.5010  -51.9330 N.am      16 UNK        -0.5000 
     90 CA         -5.2881  -28.2089  -52.1209 C.3       16 UNK         0.1400 
     91 CB         -5.5367  -28.4480  -53.6239 C.3       16 UNK        -0.1800 
     92 C          -6.4853  -27.5528  -51.4014 C.2       16 UNK         0.5000 
     93 O          -7.5680  -27.4464  -51.9808 O.2       16 UNK        -0.5000 
     94 N          -6.2607  -27.1387  -50.1448 N.am      17 UNK        -0.5000 
     95 CA         -7.2218  -26.4840  -49.2516 C.3       17 UNK         0.1400 
     96 CB         -8.3468  -27.4593  -48.8453 C.3       17 UNK        -0.1800 
     97 C          -7.7455  -25.1503  -49.8250 C.2       17 UNK         0.5000 
     98 O          -8.9538  -24.9692  -49.9875 O.2       17 UNK        -0.5000 
     99 N          -6.8001  -24.2450  -50.1058 N.am      18 UNK        -0.5000 
    100 CA        -6.9675  -22.8851  -50.6141 C.3       18 UNK         0.1400 
    101 CB        -7.7318  -22.0085  -49.5988 C.3       18 UNK        -0.1800 
    102 C         -7.5842  -22.8595  -52.0223 C.2       18 UNK         0.5000 
    103 O         -8.6683  -22.3035  -52.2171 O.2       18 UNK        -0.5000 
    104 N         -6.8743  -23.4544  -52.9907 N.am      19 UNK        -0.5000 
    105 CA        -7.2124  -23.4404  -54.4162 C.3       19 UNK         0.1400 
    106 CB        -6.3945  -24.5247  -55.1362 C.3       19 UNK        -0.1800 
    107 C         -7.0263  -22.0420  -55.0481 C.2       19 UNK         0.5000 
    108 O         -6.0971  -21.8266  -55.8272 O.2       19 UNK        -0.5000 
    109 N         -7.9135  -21.1140  -54.6667 N.am      20 UNK        -0.5000 
    110 CA        -8.0607  -19.7185  -55.1006 C.3       20 UNK         0.1400 
    111 CB        -8.2423  -19.6255  -56.6292 C.3       20 UNK        -0.1800 
    112 C         -6.9729  -18.7441  -54.6011 C.2       20 UNK         0.5000 
    113 O         -7.1603  -17.5337  -54.7362 O.2       20 UNK        -0.5000 
    114 N         -5.8808  -19.2499  -54.0183 N.am      21 UNK        -0.5000 
    115 CA        -4.7571  -18.4769  -53.4974 C.3       21 UNK         0.1400 
    116 CB        -3.9119  -17.9236  -54.6644 C.3       21 UNK        -0.1800 
    117 C         -3.9036  -19.3642  -52.5785 C.2       21 UNK         0.5000 
    118 O         -4.1224  -20.5772  -52.5107 O.2       21 UNK        -0.5000 
    119 N         -2.9266  -18.7386  -51.9113 N.am      22 UNK        -0.5000 
    120 CA        -1.8683  -19.4066  -51.1365 C.3       22 UNK         0.1400 
    121 C         -0.7616  -20.0911  -51.9914 C.2       22 UNK         0.5000 
    122 N         -0.6980  -19.8810  -53.3007 N.am      22 UNK        -0.7600 
    123 O          0.0512  -20.8364  -51.4565 O.2       22 UNK        -0.5000 
    124 C124       -1.2726  -18.4876  -50.0336 C.3       23 UNK        -0.0398 
    125 S125       -0.8597  -16.7838  -50.5573 S.3       23 UNK        -0.2404 
    126 C126        0.8466  -16.9286  -51.1790 C.3       23 UNK        -0.0205 
    127 H127       -2.0234  -14.0042  -46.8500 H         1 UNK         0.0600 
    128 H128       -2.1118  -14.5172  -48.5384 H         1 UNK         0.0600 
    129 H129       -2.6757  -12.9091  -48.0707 H         1 UNK         0.0600 
    130 H130        0.1004  -13.5807  -46.2750 H         1 UNK         0.3000 
    131 H131        2.1589  -12.9673  -48.1889 H         1 UNK         0.0600 
    132 H132        3.6502  -12.8292  -46.1816 H         1 UNK         0.0800 
    133 H133        2.2571  -12.8656  -45.1296 H         1 UNK         0.0800 
    134 H134        4.8042  -15.6790  -46.9621 H         1 UNK         0.0800 
    135 H135        4.0192  -14.5163  -47.9953 H         1 UNK         0.0800 
    136 H136        1.9266  -15.2350  -49.3277 H         1 UNK         0.1150 
    137 H137        2.0596  -19.3081  -50.6514 H         1 UNK         0.1150 
    138 H138        4.5633  -18.0303  -47.4189 H         1 UNK         0.1150 
    139 H139        3.9208  -20.7121  -49.9035 H         1 UNK         0.0800 
    140 H140        5.0237  -20.1433  -48.6791 H         1 UNK         0.0800 
    141 H141        1.6153  -21.5767  -49.5054 H         1 UNK         0.0800 
    142 H142        0.9226  -20.5172  -48.2959 H         1 UNK         0.0800 
    143 H143        1.3315  -23.5288  -47.9888 H         1 UNK         0.0600 
    144 H144        0.7210  -21.6198  -45.9785 H         1 UNK         0.3000 
    145 H145       -0.9517  -23.8735  -43.7496 H         1 UNK         0.0600 
    146 H146        0.8125  -22.9395  -42.2654 H         1 UNK         0.0600 
    147 H147        1.4862  -24.1463  -43.3505 H         1 UNK         0.0600 
    148 H148        1.7580  -22.4383  -43.6664 H         1 UNK         0.0600 
    149 H149       -0.3060  -21.0474  -43.7438 H         1 UNK         0.3000 
    150 H150       -3.4361  -19.9484  -45.0512 H         1 UNK         0.0600 
    151 H151       -3.9215  -20.3631  -42.6631 H         1 UNK         0.0600 
    152 H152       -3.4223  -18.6938  -42.8931 H         1 UNK         0.0600 
    153 H153       -2.2981  -19.8664  -42.2072 H         1 UNK         0.0600 
    154 H154       -1.0806  -18.6253  -44.0293 H         1 UNK         0.3000 
    155 H155        0.6185  -18.4327  -47.1628 H         1 UNK         0.0600 
    156 H156       -0.8937  -16.1490  -45.8048 H         1 UNK         0.0600 
    157 H157       -1.3196  -16.7651  -47.3970 H         1 UNK         0.0600 
    158 H158        0.2556  -16.0550  -47.1428 H         1 UNK         0.0600 
    159 H159        1.1541  -16.9806  -44.8421 H         1 UNK         0.3000 
    160 H160        2.6195  -19.4659  -42.7898 H         1 UNK         0.0600 
    161 H161        4.6249  -18.0389  -42.9899 H         1 UNK         0.0600 
    162 H162        3.9672  -17.2488  -44.4226 H         1 UNK         0.0600 
    163 H163        4.4063  -18.9503  -44.4758 H         1 UNK         0.0600 
    164 H164        2.6139  -16.7422  -42.3293 H         1 UNK         0.3000 
    165 H165       -0.5455  -15.9162  -41.4004 H         1 UNK         0.0600 
    166 H166       -0.0687  -16.0180  -38.9621 H         1 UNK         0.0600 
    167 H167       -0.5090  -17.6043  -39.5706 H         1 UNK         0.0600 
    168 H168        1.1784  -17.2358  -39.2358 H         1 UNK         0.0600 
    169 H169        2.0192  -15.1882  -40.2770 H         1 UNK         0.3000 
    170 H170        2.6908  -13.0434  -40.7379 H         1 UNK         0.0600 
    171 H171        4.2528  -14.6452  -41.8466 H         1 UNK         0.0600 
    172 H172        3.9009  -13.9389  -43.4168 H         1 UNK         0.0600 
    173 H173        4.7285  -12.9898  -42.1838 H         1 UNK         0.0600 
    174 H174        2.7624  -11.7515  -43.3088 H         1 UNK         0.3000 
    175 H175        0.2444  -10.2264  -43.6834 H         1 UNK         0.0600 
    176 H176        1.1823   -8.3532  -41.4522 H         1 UNK         0.0600 
    177 H177        0.3270   -7.8393  -42.9066 H         1 UNK         0.0600 
    178 H178       -0.4577   -8.9037  -41.7525 H         1 UNK         0.0600 
    179 H179        2.0280   -9.7289  -44.8353 H         1 UNK         0.3000 
    180 H180        4.7670   -7.8424  -44.5168 H         1 UNK         0.0600 
    181 H181        5.4263  -10.8262  -44.2255 H         1 UNK         0.0600 
    182 H182        6.1001   -9.5230  -43.2551 H         1 UNK         0.0600 
    183 H183        6.4710   -9.6136  -44.9673 H         1 UNK         0.0600 
    184 H184        4.2202  -10.1344  -46.2375 H         1 UNK         0.3000 
    185 H185        1.8046   -8.5756  -48.2367 H         1 UNK         0.0600 
    186 H186        3.8697   -7.5829  -49.2375 H         1 UNK         0.0600 
    187 H187        4.7270   -9.1016  -49.0053 H         1 UNK         0.0600 
    188 H188        3.3605   -9.0141  -50.1178 H         1 UNK         0.0600 
    189 H189        3.1930  -11.0149  -48.5906 H         1 UNK         0.3000 
    190 H190       -1.5679  -21.4147  -47.5687 H         1 UNK         0.3000 
    191 H191       -2.9778  -22.2889  -49.8544 H         1 UNK         0.0600 
    192 H192       -4.0429  -21.2721  -47.1691 H         1 UNK         0.0600 
    193 H193       -4.9709  -21.3887  -48.6573 H         1 UNK         0.0600 
    194 H194       -3.6226  -20.2760  -48.5593 H         1 UNK         0.0600 
    195 H195       -2.9596  -23.6334  -46.5076 H         1 UNK         0.3000 
    196 H196       -4.8553  -25.6733  -46.9258 H         1 UNK         0.0600 
    197 H197       -3.8246  -26.7353  -44.9286 H         1 UNK         0.0600 
    198 H198       -4.0499  -25.0101  -44.6840 H         1 UNK         0.0600 
    199 H199       -2.4469  -25.6492  -45.0360 H         1 UNK         0.0600 
    200 H200       -1.3042  -25.7240  -47.4164 H         1 UNK         0.3000 
    201 H201       -1.1220  -28.4049  -48.3802 H         1 UNK         0.0600 
    202 H202        0.8299  -27.1414  -47.5190 H         1 UNK         0.0600 
    203 H203        0.7182  -26.0011  -48.8564 H         1 UNK         0.0600 
    204 H204        1.1288  -27.6833  -49.1642 H         1 UNK         0.0600 
    205 H205       -1.6173  -25.2881  -50.0698 H         1 UNK         0.3000 
    206 H206       -1.6883  -26.3931  -52.7339 H         1 UNK         0.0600 
    207 H207       -0.9673  -24.0583  -52.2498 H         1 UNK         0.0600 
    208 H208       -2.3274  -24.0878  -53.3610 H         1 UNK         0.0600 
    209 H209       -2.5861  -23.6681  -51.6749 H         1 UNK         0.0600 
    210 H210       -3.2424  -28.0707  -51.6092 H         1 UNK         0.3000 
    211 H211       -5.1621  -29.1863  -51.6533 H         1 UNK         0.0600 
    212 H212       -5.6545  -27.5112  -54.1663 H         1 UNK         0.0600 
    213 H213       -6.4376  -29.0405  -53.7872 H         1 UNK         0.0600 
    214 H214       -4.7077  -28.9919  -54.0767 H         1 UNK         0.0600 
    215 H215       -5.3266  -27.2513  -49.7702 H         1 UNK         0.3000 
    216 H216       -6.6725  -26.2315  -48.3446 H         1 UNK         0.0600 
    217 H217       -9.0037  -27.0062  -48.1020 H         1 UNK         0.0600 
    218 H218       -7.9387  -28.3692  -48.4055 H         1 UNK         0.0600 
    219 H219       -8.9666  -27.7464  -49.6952 H         1 UNK         0.0600 
    220 H220       -5.8285  -24.5086  -49.9419 H         1 UNK         0.3000 
    221 H221       -5.9624  -22.4714  -50.7115 H         1 UNK         0.0600 
    222 H222       -8.7718  -22.3182  -49.4928 H         1 UNK         0.0600 
    223 H223       -7.2720  -22.0514  -48.6119 H         1 UNK         0.0600 
    224 H224       -7.7335  -20.9644  -49.9136 H         1 UNK         0.0600 
    225 H225       -6.0151  -23.9384  -52.7443 H         1 UNK         0.3000 
    226 H226       -8.2665  -23.7061  -54.5208 H         1 UNK         0.0600 
    227 H227       -6.6200  -24.5447  -56.2031 H         1 UNK         0.0600 
    228 H228       -5.3215  -24.3617  -55.0270 H         1 UNK         0.0600 
    229 H229       -6.6276  -25.5109  -54.7374 H         1 UNK         0.0600 
    230 H230       -8.5538  -21.3981  -53.9295 H         1 UNK         0.3000 
    231 H231       -8.9909  -19.3762  -54.6451 H         1 UNK         0.0600 
    232 H232       -9.0422  -20.2810  -56.9732 H         1 UNK         0.0600 
    233 H233       -7.3318  -19.8944  -57.1649 H         1 UNK         0.0600 
    234 H234       -8.5048  -18.6103  -56.9292 H         1 UNK         0.0600 
    235 H235       -5.7829  -20.2528  -53.9196 H         1 UNK         0.3000 
    236 H236       -5.1440  -17.6494  -52.8992 H         1 UNK         0.0600 
    237 H237       -4.4968  -17.2648  -55.3061 H         1 UNK         0.0600 
    238 H238       -3.0650  -17.3391  -54.3040 H         1 UNK         0.0600 
    239 H239       -3.5178  -18.7278  -55.2870 H         1 UNK         0.0600 
    240 H240       -2.8172  -17.7392  -52.0115 H         1 UNK         0.3000 
    241 H241       -2.3441  -20.2338  -50.6127 H         1 UNK         0.0600 
    242 H242        0.0201  -20.3417  -53.8367 H         1 UNK         0.3800 
    243 H243       -1.3562  -19.2757  -53.7613 H         1 UNK         0.3800 
    244 H244       -2.0172  -18.3850  -49.2441 H         1 UNK         0.0800 
    245 H245       -0.4124  -18.9479  -49.5475 H         1 UNK         0.0800 
    246 H246        0.8855  -17.6768  -51.9712 H         1 UNK         0.0800 
    247 H247        1.1191  -15.9841  -51.6519 H         1 UNK         0.0800 
@<TRIPOS>BOND
     1    1    2 1    
     2    1  127 1    
     3    1  128 1    
     4    1  129 1    
     5    2    3 2    
     6    2    4 am   BACKBONE|DICT|INTERRES
     7    4    5 1    
     8    4  130 1    
     9    5    6 1    
    10    5   65 1    
    11    5  131 1    
    12    6    7 1    
    13    6  132 1    
    14    6  133 1    
    15    7    8 1    
    16    8    9 1    
    17    8  134 1    
    18    8  135 1    
    19    9   10 ar   
    20    9   14 ar   
    21   10   11 ar   
    22   10  136 1    
    23   11   12 ar   
    24   11  126 1    
    25   12   13 ar   
    26   12  137 1    
    27   13   14 ar   
    28   13   15 1    
    29   14  138 1    
    30   15   16 1    
    31   15  139 1    
    32   15  140 1    
    33   16   17 1    
    34   17   18 1    
    35   17  141 1    
    36   17  142 1    
    37   18   19 1    
    38   18   67 1    
    39   18  143 1    
    40   19   20 am   BACKBONE|DICT|INTERRES
    41   19  144 1    
    42   20   21 2    
    43   20   22 1    
    44   22   23 1    
    45   22   24 1    
    46   22  145 1    
    47   23  146 1    
    48   23  147 1    
    49   23  148 1    
    50   24   25 am   BACKBONE|DICT|INTERRES
    51   24  149 1    
    52   25   26 2    
    53   25   27 1    
    54   27   28 1    
    55   27   29 1    
    56   27  150 1    
    57   28  151 1    
    58   28  152 1    
    59   28  153 1    
    60   29   30 am   BACKBONE|DICT|INTERRES
    61   29  154 1    
    62   30   31 2    
    63   30   32 1    
    64   32   33 1    
    65   32   34 1    
    66   32  155 1    
    67   33  156 1    
    68   33  157 1    
    69   33  158 1    
    70   34   35 am   BACKBONE|DICT|INTERRES
    71   34  159 1    
    72   35   36 2    
    73   35   37 1    
    74   37   38 1    
    75   37   39 1    
    76   37  160 1    
    77   38  161 1    
    78   38  162 1    
    79   38  163 1    
    80   39   40 am   BACKBONE|DICT|INTERRES
    81   39  164 1    
    82   40   41 2    
    83   40   42 1    
    84   42   43 1    
    85   42   44 1    
    86   42  165 1    
    87   43  166 1    
    88   43  167 1    
    89   43  168 1    
    90   44   45 am   BACKBONE|DICT|INTERRES
    91   44  169 1    
    92   45   46 2    
    93   45   47 1    
    94   47   48 1    
    95   47   49 1    
    96   47  170 1    
    97   48  171 1    
    98   48  172 1    
    99   48  173 1    
   100   49   50 am   BACKBONE|DICT|INTERRES
   101   49  174 1    
   102   50   51 2    
   103   50   52 1    
   104   52   53 1    
   105   52   54 1    
   106   52  175 1    
   107   53  176 1    
   108   53  177 1    
   109   53  178 1    
   110   54   55 am   BACKBONE|DICT|INTERRES
   111   54  179 1    
   112   55   56 2    
   113   55   57 1    
   114   57   58 1    
   115   57   59 1    
   116   57  180 1    
   117   58  181 1    
   118   58  182 1    
   119   58  183 1    
   120   59   60 am   BACKBONE|DICT|INTERRES
   121   59  184 1    
   122   60   61 2    
   123   60   62 1    
   124   62   63 1    
   125   62   64 1    
   126   62  185 1    
   127   63  186 1    
   128   63  187 1    
   129   63  188 1    
   130   64   65 am   BACKBONE|DICT|INTERRES
   131   64  189 1    
   132   65   66 2    
   133   67   68 2    
   134   67   69 am   BACKBONE|DICT|INTERRES
   135   69   70 1    
   136   69  190 1    
   137   70   71 1    
   138   70   72 1    
   139   70  191 1    
   140   71  192 1    
   141   71  193 1    
   142   71  194 1    
   143   72   73 2    
   144   72   74 am   BACKBONE|DICT|INTERRES
   145   74   75 1    
   146   74  195 1    
   147   75   76 1    
   148   75   77 1    
   149   75  196 1    
   150   76  197 1    
   151   76  198 1    
   152   76  199 1    
   153   77   78 2    
   154   77   79 am   BACKBONE|DICT|INTERRES
   155   79   80 1    
   156   79  200 1    
   157   80   81 1    
   158   80   82 1    
   159   80  201 1    
   160   81  202 1    
   161   81  203 1    
   162   81  204 1    
   163   82   83 2    
   164   82   84 am   BACKBONE|DICT|INTERRES
   165   84   85 1    
   166   84  205 1    
   167   85   86 1    
   168   85   87 1    
   169   85  206 1    
   170   86  207 1    
   171   86  208 1    
   172   86  209 1    
   173   87   88 2    
   174   87   89 am   BACKBONE|DICT|INTERRES
   175   89   90 1    
   176   89  210 1    
   177   90   91 1    
   178   90   92 1    
   179   90  211 1    
   180   91  212 1    
   181   91  213 1    
   182   91  214 1    
   183   92   93 2    
   184   92   94 am   BACKBONE|DICT|INTERRES
   185   94   95 1    
   186   94  215 1    
   187   95   96 1    
   188   95   97 1    
   189   95  216 1    
   190   96  217 1    
   191   96  218 1    
   192   96  219 1    
   193   97   98 2    
   194   97   99 am   BACKBONE|DICT|INTERRES
   195   99  100 1    
   196   99  220 1    
   197  100  101 1    
   198  100  102 1    
   199  100  221 1    
   200  101  222 1    
   201  101  223 1    
   202  101  224 1    
   203  102  103 2    
   204  102  104 am   BACKBONE|DICT|INTERRES
   205  104  105 1    
   206  104  225 1    
   207  105  106 1    
   208  105  107 1    
   209  105  226 1    
   210  106  227 1    
   211  106  228 1    
   212  106  229 1    
   213  107  108 2    
   214  107  109 am   BACKBONE|DICT|INTERRES
   215  109  110 1    
   216  109  230 1    
   217  110  111 1    
   218  110  112 1    
   219  110  231 1    
   220  111  232 1    
   221  111  233 1    
   222  111  234 1    
   223  112  113 2    
   224  112  114 am   BACKBONE|DICT|INTERRES
   225  114  115 1    
   226  114  235 1    
   227  115  116 1    
   228  115  117 1    
   229  115  236 1    
   230  116  237 1    
   231  116  238 1    
   232  116  239 1    
   233  117  118 2    
   234  117  119 am   BACKBONE|DICT|INTERRES
   235  119  120 1    
   236  119  240 1    
   237  120  121 1    
   238  120  124 1    
   239  120  241 1    
   240  121  122 am   BACKBONE|DICT|INTERRES
   241  121  123 2    
   242  122  242 1    
   243  122  243 1    
   244  124  125 1    
   245  124  244 1    
   246  124  245 1    
   247  125  126 1    
   248  126  246 1    
   249  126  247 1    
@<TRIPOS>SUBSTRUCTURE
     1 UNK         1 GROUP             0       ****    0 ROOT    
