@<TRIPOS>MOLECULE
3R540
247   249    1
SMALL
USER_CHARGES


@<TRIPOS>ATOM
      1 CA         -1.3456  -14.6372  -53.0270 C.3       0 UNK        -0.1800 
      2 C          -0.8166  -14.4967  -51.6076 C.2       0 UNK         0.5000 
      3 O          -0.0403  -13.5836  -51.3288 O.2       0 UNK        -0.5000 
      4 N          -1.2148  -15.4138  -50.7165 N.am      1 UNK        -0.5000 
      5 CA         -0.8830  -15.5018  -49.2848 C.3       1 UNK         0.1400 
      6 C6         -1.3261  -14.2512  -48.4752 C.3       23 UNK        -0.0398 
      7 S7         -1.7986  -14.6747  -46.7602 S.3       23 UNK        -0.2404 
      8 C8         -3.6200  -14.6118  -46.8264 C.3       23 UNK        -0.0205 
      9 C9         -4.1913  -15.5015  -47.9210 C.ar      23 UNK        -0.0193 
     10 C10        -4.7617  -14.9312  -49.0615 C.ar      23 UNK        -0.1150 
     11 C11        -5.2426  -15.7359  -50.0990 C.ar      23 UNK        -0.0193 
     12 C12        -5.1816  -17.1270  -49.9690 C.ar      23 UNK        -0.1150 
     13 C13        -4.6273  -17.7101  -48.8258 C.ar      23 UNK        -0.0193 
     14 C14        -4.1322  -16.8921  -47.8062 C.ar      23 UNK        -0.1150 
     15 C15        -4.5217  -19.2199  -48.6974 C.3       23 UNK        -0.0205 
     16 S16        -5.7679  -19.8857  -47.5529 S.3       23 UNK        -0.2404 
     17 C17        -5.1590  -21.5903  -47.2821 C.3       23 UNK        -0.0398 
     18 CA         -3.7685  -21.6677  -46.5995 C.3       11 UNK         0.1400 
     19 N          -3.6449  -20.7564  -45.4586 N.am      11 UNK        -0.5000 
     20 C          -2.5122  -20.4912  -44.7974 C.2       10 UNK         0.5000 
     21 O          -1.4485  -21.0662  -45.0294 O.2       10 UNK        -0.5000 
     22 CA         -2.5737  -19.4326  -43.6784 C.3       10 UNK         0.1400 
     23 CB         -3.8730  -18.5968  -43.6763 C.3       10 UNK        -0.1800 
     24 N          -2.3503  -20.0065  -42.3495 N.am      10 UNK        -0.5000 
     25 C          -3.0144  -21.0249  -41.7767 C.2       9 UNK         0.5000 
     26 O          -3.8540  -21.7108  -42.3627 O.2       9 UNK        -0.5000 
     27 CA         -2.7085  -21.3284  -40.2931 C.3       9 UNK         0.1400 
     28 CB         -1.9508  -22.6553  -40.1403 C.3       9 UNK        -0.1800 
     29 N          -1.9450  -20.2734  -39.6235 N.am      9 UNK        -0.5000 
     30 C          -2.4311  -19.0763  -39.2662 C.2       8 UNK         0.5000 
     31 O          -3.6119  -18.7526  -39.3963 O.2       8 UNK        -0.5000 
     32 CA         -1.4258  -18.0616  -38.6842 C.3       8 UNK         0.1400 
     33 CB         -1.5424  -18.0085  -37.1531 C.3       8 UNK        -0.1800 
     34 N          -0.0287  -18.3291  -39.0453 N.am      8 UNK        -0.5000 
     35 C           0.4767  -18.2473  -40.2833 C.2       7 UNK         0.5000 
     36 O          -0.1961  -17.9868  -41.2837 O.2       7 UNK        -0.5000 
     37 CA          1.9742  -18.5692  -40.4301 C.3       7 UNK         0.1400 
     38 CB          2.1591  -19.9709  -41.0259 C.3       7 UNK        -0.1800 
     39 N           2.6595  -17.5932  -41.2766 N.am      7 UNK        -0.5000 
     40 C           2.9179  -16.3284  -40.9087 C.2       6 UNK         0.5000 
     41 O           2.6121  -15.8759  -39.8038 O.2       6 UNK        -0.5000 
     42 CA          3.6557  -15.4239  -41.9165 C.3       6 UNK         0.1400 
     43 CB          4.6543  -14.4705  -41.2334 C.3       6 UNK        -0.1800 
     44 N           4.3579  -16.2130  -42.9265 N.am      6 UNK        -0.5000 
     45 C           4.4210  -15.9214  -44.2295 C.2       5 UNK         0.5000 
     46 O           3.9422  -14.9030  -44.7306 O.2       5 UNK        -0.5000 
     47 CA          5.1022  -16.9587  -45.1427 C.3       5 UNK         0.1400 
     48 CB          6.2114  -17.7802  -44.4480 C.3       5 UNK        -0.1800 
     49 N           4.1033  -17.8296  -45.7649 N.am      5 UNK        -0.5000 
     50 C           3.2359  -18.6490  -45.1480 C.2       4 UNK         0.5000 
     51 O           3.2425  -18.8570  -43.9337 O.2       4 UNK        -0.5000 
     52 CA          2.1437  -19.3152  -46.0090 C.3       4 UNK         0.1400 
     53 CB          0.7665  -18.7861  -45.5808 C.3       4 UNK        -0.1800 
     54 N           2.3183  -19.0744  -47.4433 N.am      4 UNK        -0.5000 
     55 C           3.1586  -19.7576  -48.2352 C.2       3 UNK         0.5000 
     56 O           3.8151  -20.7250  -47.8509 O.2       3 UNK        -0.5000 
     57 CA          3.3264  -19.2689  -49.6911 C.3       3 UNK         0.1400 
     58 CB          2.5275  -20.1508  -50.6626 C.3       3 UNK        -0.1800 
     59 N           2.9563  -17.8651  -49.8962 N.am      3 UNK        -0.5000 
     60 C           3.5873  -16.8215  -49.3398 C.2       2 UNK         0.5000 
     61 O           4.5822  -16.9349  -48.6232 O.2       2 UNK        -0.5000 
     62 CA          2.9900  -15.4210  -49.5782 C.3       2 UNK         0.1400 
     63 CB          3.6775  -14.7468  -50.7748 C.3       2 UNK        -0.1800 
     64 N           1.5369  -15.3650  -49.7768 N.am      2 UNK        -0.5000 
     65 C           0.5875  -15.8776  -48.9819 C.2       1 UNK         0.5000 
     66 O           0.8304  -16.6338  -48.0426 O.2       1 UNK        -0.5000 
     67 C          -3.3832  -23.1259  -46.2720 C.2       11 UNK         0.5000 
     68 O          -2.9219  -23.8352  -47.1671 O.2       11 UNK        -0.5000 
     69 N          -3.5240  -23.5344  -45.0020 N.am      12 UNK        -0.5000 
     70 CA         -3.0819  -24.8406  -44.5139 C.3       12 UNK         0.1400 
     71 CB         -3.7704  -25.1516  -43.1780 C.3       12 UNK        -0.1800 
     72 C          -1.5494  -24.9359  -44.3823 C.2       12 UNK         0.5000 
     73 O          -0.9926  -26.0014  -44.6458 O.2       12 UNK        -0.5000 
     74 N          -0.8870  -23.8241  -44.0257 N.am      13 UNK        -0.5000 
     75 CA          0.5759  -23.7188  -43.9840 C.3       13 UNK         0.1400 
     76 CB          0.9984  -22.5121  -43.1348 C.3       13 UNK        -0.1800 
     77 C           1.1816  -23.6221  -45.3937 C.2       13 UNK         0.5000 
     78 O           2.2489  -24.1840  -45.6388 O.2       13 UNK        -0.5000 
     79 N           0.4617  -22.9522  -46.3042 N.am      14 UNK        -0.5000 
     80 CA          0.7776  -22.8806  -47.7315 C.3       14 UNK         0.1400 
     81 CB         -0.0741  -21.7759  -48.3759 C.3       14 UNK        -0.1800 
     82 C           0.5478  -24.2064  -48.4842 C.2       14 UNK         0.5000 
     83 O           0.9438  -24.3034  -49.6442 O.2       14 UNK        -0.5000 
     84 N          -0.1367  -25.1733  -47.8523 N.am      15 UNK        -0.5000 
     85 CA         -0.5800  -26.4551  -48.4146 C.3       15 UNK         0.1400 
     86 CB          0.6260  -27.3789  -48.6816 C.3       15 UNK        -0.1800 
     87 C          -1.4858  -26.2645  -49.6512 C.2       15 UNK         0.5000 
     88 O          -1.3632  -26.9939  -50.6363 O.2       15 UNK        -0.5000 
     89 N          -2.3538  -25.2453  -49.5729 N.am      16 UNK        -0.5000 
     90 CA         -3.2785  -24.7586  -50.5983 C.3       16 UNK         0.1400 
     91 CB         -4.3191  -25.8356  -50.9666 C.3       16 UNK        -0.1800 
     92 C          -2.6059  -24.1395  -51.8440 C.2       16 UNK         0.5000 
     93 O          -3.3086  -23.8577  -52.8134 O.2       16 UNK        -0.5000 
     94 N          -1.2891  -23.8756  -51.8115 N.am      17 UNK        -0.5000 
     95 CA         -0.5616  -23.2421  -52.9210 C.3       17 UNK         0.1400 
     96 CB          0.9508  -23.3512  -52.6806 C.3       17 UNK        -0.1800 
     97 C          -0.9598  -21.7696  -53.1464 C.2       17 UNK         0.5000 
     98 O          -0.9077  -21.2895  -54.2787 O.2       17 UNK        -0.5000 
     99 N          -1.3637  -21.0902  -52.0649 N.am      18 UNK        -0.5000 
    100 CA        -1.8524  -19.7117  -52.0782 C.3       18 UNK         0.1400 
    101 CB        -1.5370  -19.0604  -50.7202 C.3       18 UNK        -0.1800 
    102 C         -3.3569  -19.5998  -52.3937 C.2       18 UNK         0.5000 
    103 O         -3.8312  -18.4872  -52.6263 O.2       18 UNK        -0.5000 
    104 N         -4.0963  -20.7200  -52.3725 N.am      19 UNK        -0.5000 
    105 CA        -5.5442  -20.7533  -52.5868 C.3       19 UNK         0.1400 
    106 CB        -6.0895  -22.1589  -52.2922 C.3       19 UNK        -0.1800 
    107 C         -5.9072  -20.2939  -54.0101 C.2       19 UNK         0.5000 
    108 O         -5.4487  -20.8964  -54.9821 O.2       19 UNK        -0.5000 
    109 N         -6.6833  -19.2042  -54.0867 N.am      20 UNK        -0.5000 
    110 CA        -7.1009  -18.4783  -55.2932 C.3       20 UNK         0.1400 
    111 CB        -7.9254  -19.3810  -56.2343 C.3       20 UNK        -0.1800 
    112 C         -5.9594  -17.7500  -56.0394 C.2       20 UNK         0.5000 
    113 O         -6.2173  -17.1550  -57.0875 O.2       20 UNK        -0.5000 
    114 N         -4.7359  -17.7422  -55.4850 N.am      21 UNK        -0.5000 
    115 CA        -3.5727  -17.0542  -56.0589 C.3       21 UNK         0.1400 
    116 CB        -2.2866  -17.5760  -55.4005 C.3       21 UNK        -0.1800 
    117 C         -3.6669  -15.5192  -55.9470 C.2       21 UNK         0.5000 
    118 O         -2.9683  -14.8130  -56.6746 O.2       21 UNK        -0.5000 
    119 N         -4.5469  -15.0365  -55.0604 N.am      22 UNK        -0.5000 
    120 CA        -4.9246  -13.6232  -54.9124 C.3       22 UNK         0.1400 
    121 C         -5.7558  -13.0514  -56.1014 C.2       22 UNK         0.5000 
    122 N         -6.2782  -13.8665  -57.0122 N.am      22 UNK        -0.7600 
    123 O         -5.9282  -11.8397  -56.2004 O.2       22 UNK        -0.5000 
    124 C124       -5.6589  -13.3617  -53.5714 C.3       23 UNK        -0.0398 
    125 S125       -4.6998  -13.8963  -52.1138 S.3       23 UNK        -0.2404 
    126 C126       -5.8345  -15.1031  -51.3523 C.3       23 UNK        -0.0205 
    127 H127       -2.1689  -15.3492  -53.0756 H         1 UNK         0.0600 
    128 H128       -0.5549  -14.9777  -53.6951 H         1 UNK         0.0600 
    129 H129       -1.7128  -13.6773  -53.3902 H         1 UNK         0.0600 
    130 H130       -1.8582  -16.1242  -51.0348 H         1 UNK         0.3000 
    131 H131       -1.4775  -16.3487  -48.9395 H         1 UNK         0.0600 
    132 H132       -2.1743  -13.7656  -48.9582 H         1 UNK         0.0800 
    133 H133       -0.5411  -13.4932  -48.4529 H         1 UNK         0.0800 
    134 H134       -3.9349  -13.5764  -46.9656 H         1 UNK         0.0800 
    135 H135       -4.0208  -14.9261  -45.8617 H         1 UNK         0.0800 
    136 H136       -4.8101  -13.8555  -49.1565 H         1 UNK         0.1150 
    137 H137       -5.5564  -17.7571  -50.7623 H         1 UNK         0.1150 
    138 H138       -3.6860  -17.3379  -46.9287 H         1 UNK         0.1150 
    139 H139       -4.6292  -19.7048  -49.6674 H         1 UNK         0.0800 
    140 H140       -3.5213  -19.4514  -48.3375 H         1 UNK         0.0800 
    141 H141       -5.1405  -22.1081  -48.2429 H         1 UNK         0.0800 
    142 H142       -5.9061  -22.1050  -46.6751 H         1 UNK         0.0800 
    143 H143       -3.0291  -21.3373  -47.3271 H         1 UNK         0.0600 
    144 H144       -4.4850  -20.2611  -45.1966 H         1 UNK         0.3000 
    145 H145       -1.7457  -18.7472  -43.8615 H         1 UNK         0.0600 
    146 H146       -3.8187  -17.8031  -42.9309 H         1 UNK         0.0600 
    147 H147       -4.0382  -18.1158  -44.6410 H         1 UNK         0.0600 
    148 H148       -4.7521  -19.2000  -43.4463 H         1 UNK         0.0600 
    149 H149       -1.6577  -19.5198  -41.7932 H         1 UNK         0.3000 
    150 H150       -3.6694  -21.4297  -39.7843 H         1 UNK         0.0600 
    151 H151       -2.5035  -23.4802  -40.5882 H         1 UNK         0.0600 
    152 H152       -1.8025  -22.9039  -39.0893 H         1 UNK         0.0600 
    153 H153       -0.9722  -22.6167  -40.6146 H         1 UNK         0.0600 
    154 H154       -0.9653  -20.4545  -39.4637 H         1 UNK         0.3000 
    155 H155       -1.6913  -17.0796  -39.0814 H         1 UNK         0.0600 
    156 H156       -1.2671  -18.9595  -36.6953 H         1 UNK         0.0600 
    157 H157       -2.5639  -17.7801  -36.8459 H         1 UNK         0.0600 
    158 H158       -0.8991  -17.2343  -36.7345 H         1 UNK         0.0600 
    159 H159        0.5905  -18.5584  -38.2809 H         1 UNK         0.3000 
    160 H160        2.4426  -18.5540  -39.4436 H         1 UNK         0.0600 
    161 H161        1.7159  -20.0349  -42.0194 H         1 UNK         0.0600 
    162 H162        1.6872  -20.7315  -40.4028 H         1 UNK         0.0600 
    163 H163        3.2146  -20.2286  -41.1145 H         1 UNK         0.0600 
    164 H164        2.8756  -17.8974  -42.2214 H         1 UNK         0.3000 
    165 H165        2.8801  -14.8226  -42.3952 H         1 UNK         0.0600 
    166 H166        5.1400  -13.8210  -41.9617 H         1 UNK         0.0600 
    167 H167        4.1544  -13.8247  -40.5106 H         1 UNK         0.0600 
    168 H168        5.4325  -15.0205  -40.7032 H         1 UNK         0.0600 
    169 H169        4.7513  -17.0892  -42.6115 H         1 UNK         0.3000 
    170 H170        5.5709  -16.3981  -45.9529 H         1 UNK         0.0600 
    171 H171        6.9571  -17.1236  -43.9981 H         1 UNK         0.0600 
    172 H172        5.8289  -18.4311  -43.6620 H         1 UNK         0.0600 
    173 H173        6.7318  -18.4109  -45.1687 H         1 UNK         0.0600 
    174 H174        4.0089  -17.7090  -46.7667 H         1 UNK         0.3000 
    175 H175        2.1721  -20.3905  -45.8203 H         1 UNK         0.0600 
    176 H176        0.7269  -17.6965  -45.6007 H         1 UNK         0.0600 
    177 H177       -0.0264  -19.1567  -46.2285 H         1 UNK         0.0600 
    178 H178        0.5357  -19.1008  -44.5626 H         1 UNK         0.0600 
    179 H179        1.8224  -18.2692  -47.8180 H         1 UNK         0.3000 
    180 H180        4.3849  -19.3712  -49.9393 H         1 UNK         0.0600 
    181 H181        2.7515  -19.8996  -51.6994 H         1 UNK         0.0600 
    182 H182        1.4551  -20.0389  -50.5170 H         1 UNK         0.0600 
    183 H183        2.7702  -21.2054  -50.5251 H         1 UNK         0.0600 
    184 H184        2.1392  -17.6831  -50.4595 H         1 UNK         0.3000 
    185 H185        3.2072  -14.8306  -48.6860 H         1 UNK         0.0600 
    186 H186        3.3558  -13.7106  -50.8825 H         1 UNK         0.0600 
    187 H187        4.7615  -14.7379  -50.6519 H         1 UNK         0.0600 
    188 H188        3.4559  -15.2655  -51.7083 H         1 UNK         0.0600 
    189 H189        1.2118  -14.7334  -50.5036 H         1 UNK         0.3000 
    190 H190       -3.8739  -22.8816  -44.3101 H         1 UNK         0.3000 
    191 H191       -3.3963  -25.5999  -45.2335 H         1 UNK         0.0600 
    192 H192       -3.4629  -26.1258  -42.7959 H         1 UNK         0.0600 
    193 H193       -4.8545  -25.1734  -43.2902 H         1 UNK         0.0600 
    194 H194       -3.5292  -24.4094  -42.4192 H         1 UNK         0.0600 
    195 H195       -1.4036  -22.9623  -43.9097 H         1 UNK         0.3000 
    196 H196        0.9777  -24.6180  -43.5119 H         1 UNK         0.0600 
    197 H197        0.5617  -21.5823  -43.4976 H         1 UNK         0.0600 
    198 H198        0.7060  -22.6414  -42.0952 H         1 UNK         0.0600 
    199 H199        2.0821  -22.3876  -43.1468 H         1 UNK         0.0600 
    200 H200       -0.3641  -22.4538  -45.9882 H         1 UNK         0.3000 
    201 H201        1.8312  -22.6178  -47.8391 H         1 UNK         0.0600 
    202 H202        0.0601  -20.8192  -47.8743 H         1 UNK         0.0600 
    203 H203       -1.1332  -22.0255  -48.3528 H         1 UNK         0.0600 
    204 H204        0.1992  -21.6377  -49.4211 H         1 UNK         0.0600 
    205 H205       -0.4448  -24.9838  -46.9092 H         1 UNK         0.3000 
    206 H206       -1.1988  -26.9284  -47.6509 H         1 UNK         0.0600 
    207 H207        1.2380  -27.4943  -47.7870 H         1 UNK         0.0600 
    208 H208        0.2967  -28.3748  -48.9799 H         1 UNK         0.0600 
    209 H209        1.2645  -26.9937  -49.4772 H         1 UNK         0.0600 
    210 H210       -2.3897  -24.7304  -48.6945 H         1 UNK         0.3000 
    211 H211       -3.8211  -23.9384  -50.1262 H         1 UNK         0.0600 
    212 H212       -5.1077  -25.4202  -51.5953 H         1 UNK         0.0600 
    213 H213       -4.7985  -26.2416  -50.0758 H         1 UNK         0.0600 
    214 H214       -3.8700  -26.6641  -51.5146 H         1 UNK         0.0600 
    215 H215       -0.7404  -24.1517  -51.0054 H         1 UNK         0.3000 
    216 H216       -0.7977  -23.7916  -53.8347 H         1 UNK         0.0600 
    217 H217        1.2603  -22.7817  -51.8041 H         1 UNK         0.0600 
    218 H218        1.5101  -22.9654  -53.5337 H         1 UNK         0.0600 
    219 H219        1.2550  -24.3877  -52.5333 H         1 UNK         0.0600 
    220 H220       -1.3729  -21.5714  -51.1790 H         1 UNK         0.3000 
    221 H221       -1.3266  -19.1462  -52.8502 H         1 UNK         0.0600 
    222 H222       -0.4784  -18.8207  -50.6353 H         1 UNK         0.0600 
    223 H223       -1.7980  -19.7129  -49.8880 H         1 UNK         0.0600 
    224 H224       -2.0854  -18.1282  -50.5864 H         1 UNK         0.0600 
    225 H225       -3.6323  -21.6135  -52.2923 H         1 UNK         0.3000 
    226 H226       -5.9961  -20.0690  -51.8655 H         1 UNK         0.0600 
    227 H227       -5.7287  -22.8921  -53.0136 H         1 UNK         0.0600 
    228 H228       -5.8050  -22.4958  -51.2953 H         1 UNK         0.0600 
    229 H229       -7.1789  -22.1679  -52.3402 H         1 UNK         0.0600 
    230 H230       -6.9816  -18.7813  -53.2189 H         1 UNK         0.3000 
    231 H231       -7.7667  -17.6891  -54.9413 H         1 UNK         0.0600 
    232 H232       -7.3120  -20.1510  -56.7026 H         1 UNK         0.0600 
    233 H233       -8.3787  -18.7978  -57.0367 H         1 UNK         0.0600 
    234 H234       -8.7354  -19.8755  -55.6983 H         1 UNK         0.0600 
    235 H235       -4.5931  -18.2071  -54.5957 H         1 UNK         0.3000 
    236 H236       -3.5264  -17.2997  -57.1220 H         1 UNK         0.0600 
    237 H237       -2.2395  -17.3141  -54.3449 H         1 UNK         0.0600 
    238 H238       -2.2102  -18.6606  -55.4824 H         1 UNK         0.0600 
    239 H239       -1.4041  -17.1504  -55.8796 H         1 UNK         0.0600 
    240 H240       -5.0518  -15.6955  -54.4887 H         1 UNK         0.3000 
    241 H241       -3.9973  -13.0474  -54.8937 H         1 UNK         0.0600 
    242 H242       -6.8095  -13.4765  -57.7749 H         1 UNK         0.3800 
    243 H243       -6.1453  -14.8671  -56.9587 H         1 UNK         0.3800 
    244 H244       -6.6330  -13.8539  -53.5711 H         1 UNK         0.0800 
    245 H245       -5.8609  -12.2958  -53.4519 H         1 UNK         0.0800 
    246 H246       -6.7694  -14.6063  -51.0895 H         1 UNK         0.0800 
    247 H247       -6.0790  -15.8705  -52.0883 H         1 UNK         0.0800 
@<TRIPOS>BOND
     1    1    2 1    
     2    1  127 1    
     3    1  128 1    
     4    1  129 1    
     5    2    3 2    
     6    2    4 am   BACKBONE|DICT|INTERRES
     7    4    5 1    
     8    4  130 1    
     9    5    6 1    
    10    5   65 1    
    11    5  131 1    
    12    6    7 1    
    13    6  132 1    
    14    6  133 1    
    15    7    8 1    
    16    8    9 1    
    17    8  134 1    
    18    8  135 1    
    19    9   10 ar   
    20    9   14 ar   
    21   10   11 ar   
    22   10  136 1    
    23   11   12 ar   
    24   11  126 1    
    25   12   13 ar   
    26   12  137 1    
    27   13   14 ar   
    28   13   15 1    
    29   14  138 1    
    30   15   16 1    
    31   15  139 1    
    32   15  140 1    
    33   16   17 1    
    34   17   18 1    
    35   17  141 1    
    36   17  142 1    
    37   18   19 1    
    38   18   67 1    
    39   18  143 1    
    40   19   20 am   BACKBONE|DICT|INTERRES
    41   19  144 1    
    42   20   21 2    
    43   20   22 1    
    44   22   23 1    
    45   22   24 1    
    46   22  145 1    
    47   23  146 1    
    48   23  147 1    
    49   23  148 1    
    50   24   25 am   BACKBONE|DICT|INTERRES
    51   24  149 1    
    52   25   26 2    
    53   25   27 1    
    54   27   28 1    
    55   27   29 1    
    56   27  150 1    
    57   28  151 1    
    58   28  152 1    
    59   28  153 1    
    60   29   30 am   BACKBONE|DICT|INTERRES
    61   29  154 1    
    62   30   31 2    
    63   30   32 1    
    64   32   33 1    
    65   32   34 1    
    66   32  155 1    
    67   33  156 1    
    68   33  157 1    
    69   33  158 1    
    70   34   35 am   BACKBONE|DICT|INTERRES
    71   34  159 1    
    72   35   36 2    
    73   35   37 1    
    74   37   38 1    
    75   37   39 1    
    76   37  160 1    
    77   38  161 1    
    78   38  162 1    
    79   38  163 1    
    80   39   40 am   BACKBONE|DICT|INTERRES
    81   39  164 1    
    82   40   41 2    
    83   40   42 1    
    84   42   43 1    
    85   42   44 1    
    86   42  165 1    
    87   43  166 1    
    88   43  167 1    
    89   43  168 1    
    90   44   45 am   BACKBONE|DICT|INTERRES
    91   44  169 1    
    92   45   46 2    
    93   45   47 1    
    94   47   48 1    
    95   47   49 1    
    96   47  170 1    
    97   48  171 1    
    98   48  172 1    
    99   48  173 1    
   100   49   50 am   BACKBONE|DICT|INTERRES
   101   49  174 1    
   102   50   51 2    
   103   50   52 1    
   104   52   53 1    
   105   52   54 1    
   106   52  175 1    
   107   53  176 1    
   108   53  177 1    
   109   53  178 1    
   110   54   55 am   BACKBONE|DICT|INTERRES
   111   54  179 1    
   112   55   56 2    
   113   55   57 1    
   114   57   58 1    
   115   57   59 1    
   116   57  180 1    
   117   58  181 1    
   118   58  182 1    
   119   58  183 1    
   120   59   60 am   BACKBONE|DICT|INTERRES
   121   59  184 1    
   122   60   61 2    
   123   60   62 1    
   124   62   63 1    
   125   62   64 1    
   126   62  185 1    
   127   63  186 1    
   128   63  187 1    
   129   63  188 1    
   130   64   65 am   BACKBONE|DICT|INTERRES
   131   64  189 1    
   132   65   66 2    
   133   67   68 2    
   134   67   69 am   BACKBONE|DICT|INTERRES
   135   69   70 1    
   136   69  190 1    
   137   70   71 1    
   138   70   72 1    
   139   70  191 1    
   140   71  192 1    
   141   71  193 1    
   142   71  194 1    
   143   72   73 2    
   144   72   74 am   BACKBONE|DICT|INTERRES
   145   74   75 1    
   146   74  195 1    
   147   75   76 1    
   148   75   77 1    
   149   75  196 1    
   150   76  197 1    
   151   76  198 1    
   152   76  199 1    
   153   77   78 2    
   154   77   79 am   BACKBONE|DICT|INTERRES
   155   79   80 1    
   156   79  200 1    
   157   80   81 1    
   158   80   82 1    
   159   80  201 1    
   160   81  202 1    
   161   81  203 1    
   162   81  204 1    
   163   82   83 2    
   164   82   84 am   BACKBONE|DICT|INTERRES
   165   84   85 1    
   166   84  205 1    
   167   85   86 1    
   168   85   87 1    
   169   85  206 1    
   170   86  207 1    
   171   86  208 1    
   172   86  209 1    
   173   87   88 2    
   174   87   89 am   BACKBONE|DICT|INTERRES
   175   89   90 1    
   176   89  210 1    
   177   90   91 1    
   178   90   92 1    
   179   90  211 1    
   180   91  212 1    
   181   91  213 1    
   182   91  214 1    
   183   92   93 2    
   184   92   94 am   BACKBONE|DICT|INTERRES
   185   94   95 1    
   186   94  215 1    
   187   95   96 1    
   188   95   97 1    
   189   95  216 1    
   190   96  217 1    
   191   96  218 1    
   192   96  219 1    
   193   97   98 2    
   194   97   99 am   BACKBONE|DICT|INTERRES
   195   99  100 1    
   196   99  220 1    
   197  100  101 1    
   198  100  102 1    
   199  100  221 1    
   200  101  222 1    
   201  101  223 1    
   202  101  224 1    
   203  102  103 2    
   204  102  104 am   BACKBONE|DICT|INTERRES
   205  104  105 1    
   206  104  225 1    
   207  105  106 1    
   208  105  107 1    
   209  105  226 1    
   210  106  227 1    
   211  106  228 1    
   212  106  229 1    
   213  107  108 2    
   214  107  109 am   BACKBONE|DICT|INTERRES
   215  109  110 1    
   216  109  230 1    
   217  110  111 1    
   218  110  112 1    
   219  110  231 1    
   220  111  232 1    
   221  111  233 1    
   222  111  234 1    
   223  112  113 2    
   224  112  114 am   BACKBONE|DICT|INTERRES
   225  114  115 1    
   226  114  235 1    
   227  115  116 1    
   228  115  117 1    
   229  115  236 1    
   230  116  237 1    
   231  116  238 1    
   232  116  239 1    
   233  117  118 2    
   234  117  119 am   BACKBONE|DICT|INTERRES
   235  119  120 1    
   236  119  240 1    
   237  120  121 1    
   238  120  124 1    
   239  120  241 1    
   240  121  122 am   BACKBONE|DICT|INTERRES
   241  121  123 2    
   242  122  242 1    
   243  122  243 1    
   244  124  125 1    
   245  124  244 1    
   246  124  245 1    
   247  125  126 1    
   248  126  246 1    
   249  126  247 1    
@<TRIPOS>SUBSTRUCTURE
     1 UNK         1 GROUP             0       ****    0 ROOT    
