@<TRIPOS>MOLECULE
3R540
247   249    1
SMALL
USER_CHARGES


@<TRIPOS>ATOM
      1 CA          3.4377  -20.2477  -48.1837 C.3       0 UNK        -0.1800 
      2 C           2.7964  -18.8826  -47.9778 C.2       0 UNK         0.5000 
      3 O           1.9576  -18.7317  -47.0923 O.2       0 UNK        -0.5000 
      4 N           3.1684  -17.8990  -48.8047 N.am      1 UNK        -0.5000 
      5 CA          2.6815  -16.5191  -48.7310 C.3       1 UNK         0.1400 
      6 C6          2.7908  -15.8191  -50.1096 C.3       23 UNK        -0.0398 
      7 S7          1.6033  -14.4464  -50.3344 S.3       23 UNK        -0.2404 
      8 C8         -0.0133  -15.2917  -50.4226 C.3       23 UNK        -0.0205 
      9 C9         -0.0111  -16.4632  -51.3925 C.ar      23 UNK        -0.0193 
     10 C10        -0.0927  -16.2422  -52.7699 C.ar      23 UNK        -0.1150 
     11 C11        -0.0656  -17.3175  -53.6677 C.ar      23 UNK        -0.0193 
     12 C12         0.0574  -18.6164  -53.1635 C.ar      23 UNK        -0.1150 
     13 C13         0.1450  -18.8511  -51.7888 C.ar      23 UNK        -0.0193 
     14 C14         0.1006  -17.7689  -50.9083 C.ar      23 UNK        -0.1150 
     15 C15         0.3180  -20.2689  -51.2637 C.3       23 UNK        -0.0205 
     16 S16        -1.1898  -20.8794  -50.4520 S.3       23 UNK        -0.2404 
     17 C17        -0.8572  -20.5267  -48.6885 C.3       23 UNK        -0.0398 
     18 CA         -0.5507  -21.8155  -47.8884 C.3       11 UNK         0.1400 
     19 N           0.1254  -21.5376  -46.6178 N.am      11 UNK        -0.5000 
     20 C           0.7382  -22.4748  -45.8766 C.2       10 UNK         0.5000 
     21 O           0.8405  -23.6499  -46.2240 O.2       10 UNK        -0.5000 
     22 CA          1.2616  -22.0607  -44.4868 C.3       10 UNK         0.1400 
     23 CB          2.6867  -21.5009  -44.5889 C.3       10 UNK        -0.1800 
     24 N           0.3962  -21.0865  -43.8216 N.am      10 UNK        -0.5000 
     25 C          -0.8961  -21.2996  -43.5274 C.2       9 UNK         0.5000 
     26 O          -1.4359  -22.3986  -43.6487 O.2       9 UNK        -0.5000 
     27 CA         -1.7533  -20.0926  -43.0881 C.3       9 UNK         0.1400 
     28 CB         -2.0575  -20.1686  -41.5854 C.3       9 UNK        -0.1800 
     29 N          -1.1562  -18.7907  -43.3883 N.am      9 UNK        -0.5000 
     30 C          -0.7991  -18.3383  -44.5994 C.2       8 UNK         0.5000 
     31 O          -1.0504  -18.9351  -45.6476 O.2       8 UNK        -0.5000 
     32 CA          0.0333  -17.0393  -44.6332 C.3       8 UNK         0.1400 
     33 CB         -0.8432  -15.8492  -45.0445 C.3       8 UNK        -0.1800 
     34 N           0.7037  -16.7337  -43.3625 N.am      8 UNK        -0.5000 
     35 C           1.6465  -17.4917  -42.7790 C.2       7 UNK         0.5000 
     36 O           2.0579  -18.5500  -43.2531 O.2       7 UNK        -0.5000 
     37 CA          2.1673  -17.0284  -41.4075 C.3       7 UNK         0.1400 
     38 CB          3.2674  -15.9669  -41.5446 C.3       7 UNK        -0.1800 
     39 N           1.0831  -16.4980  -40.5837 N.am      7 UNK        -0.5000 
     40 C           0.3108  -17.2432  -39.7818 C.2       6 UNK         0.5000 
     41 O           0.4791  -18.4483  -39.5974 O.2       6 UNK        -0.5000 
     42 CA         -0.8535  -16.5272  -39.0698 C.3       6 UNK         0.1400 
     43 CB         -0.4225  -16.0639  -37.6700 C.3       6 UNK        -0.1800 
     44 N          -1.3678  -15.3769  -39.8152 N.am      6 UNK        -0.5000 
     45 C          -2.0297  -15.4546  -40.9781 C.2       5 UNK         0.5000 
     46 O          -2.2983  -16.5140  -41.5437 O.2       5 UNK        -0.5000 
     47 CA         -2.4175  -14.1173  -41.6380 C.3       5 UNK         0.1400 
     48 CB         -3.7894  -13.6470  -41.1321 C.3       5 UNK        -0.1800 
     49 N          -1.4331  -13.0488  -41.4327 N.am      5 UNK        -0.5000 
     50 C          -0.1607  -13.0893  -41.8489 C.2       4 UNK         0.5000 
     51 O           0.3504  -14.0668  -42.4002 O.2       4 UNK        -0.5000 
     52 CA          0.7040  -11.8559  -41.5548 C.3       4 UNK         0.1400 
     53 CB          1.7027  -12.1600  -40.4269 C.3       4 UNK        -0.1800 
     54 N           1.4394  -11.4658  -42.7548 N.am      4 UNK        -0.5000 
     55 C           0.9534  -10.6731  -43.7198 C.2       3 UNK         0.5000 
     56 O          -0.1537  -10.1351  -43.6702 O.2       3 UNK        -0.5000 
     57 CA          1.8571  -10.4362  -44.9459 C.3       3 UNK         0.1400 
     58 CB          2.7544   -9.2084  -44.7240 C.3       3 UNK        -0.1800 
     59 N           2.6968  -11.5950  -45.2600 N.am      3 UNK        -0.5000 
     60 C           2.2459  -12.7028  -45.8606 C.2       2 UNK         0.5000 
     61 O           1.0884  -12.8440  -46.2655 O.2       2 UNK        -0.5000 
     62 CA          3.2545  -13.8490  -46.0193 C.3       2 UNK         0.1400 
     63 CB          3.4773  -14.5603  -44.6753 C.3       2 UNK        -0.1800 
     64 N           2.7332  -14.7868  -47.0060 N.am      2 UNK        -0.5000 
     65 C           3.4340  -15.7299  -47.6416 C.2       1 UNK         0.5000 
     66 O           4.6286  -15.9576  -47.4321 O.2       1 UNK        -0.5000 
     67 C          -1.8224  -22.6622  -47.6759 C.2       11 UNK         0.5000 
     68 O          -2.0805  -23.5764  -48.4573 O.2       11 UNK        -0.5000 
     69 N          -2.5826  -22.3712  -46.6101 N.am      12 UNK        -0.5000 
     70 CA         -3.7797  -23.1272  -46.2318 C.3       12 UNK         0.1400 
     71 CB         -4.5353  -22.3870  -45.1173 C.3       12 UNK        -0.1800 
     72 C          -3.4565  -24.5741  -45.8158 C.2       12 UNK         0.5000 
     73 O          -4.2454  -25.4742  -46.0967 O.2       12 UNK        -0.5000 
     74 N          -2.2918  -24.7768  -45.1884 N.am      13 UNK        -0.5000 
     75 CA         -1.7541  -26.0925  -44.8582 C.3       13 UNK         0.1400 
     76 CB         -0.6514  -25.9405  -43.7983 C.3       13 UNK        -0.1800 
     77 C          -1.2301  -26.8387  -46.1005 C.2       13 UNK         0.5000 
     78 O          -1.5829  -28.0015  -46.3005 O.2       13 UNK        -0.5000 
     79 N          -0.3822  -26.1718  -46.8962 N.am      14 UNK        -0.5000 
     80 CA          0.3504  -26.7833  -48.0053 C.3       14 UNK         0.1400 
     81 CB          1.5897  -25.9339  -48.3289 C.3       14 UNK        -0.1800 
     82 C          -0.4922  -26.9964  -49.2738 C.2       14 UNK         0.5000 
     83 O          -0.4320  -28.0780  -49.8605 O.2       14 UNK        -0.5000 
     84 N          -1.2257  -25.9603  -49.6987 N.am      15 UNK        -0.5000 
     85 CA         -1.9255  -25.9195  -50.9854 C.3       15 UNK         0.1400 
     86 CB         -1.6706  -24.5529  -51.6446 C.3       15 UNK        -0.1800 
     87 C          -3.4366  -26.1688  -50.8550 C.2       15 UNK         0.5000 
     88 O          -4.1053  -26.2971  -51.8811 O.2       15 UNK        -0.5000 
     89 N          -3.9606  -26.1935  -49.6199 N.am      16 UNK        -0.5000 
     90 CA         -5.3651  -26.3727  -49.2155 C.3       16 UNK         0.1400 
     91 CB         -5.9364  -27.7105  -49.7237 C.3       16 UNK        -0.1800 
     92 C          -6.2934  -25.1959  -49.5821 C.2       16 UNK         0.5000 
     93 O          -7.1444  -24.8214  -48.7755 O.2       16 UNK        -0.5000 
     94 N          -6.1104  -24.6259  -50.7787 N.am      17 UNK        -0.5000 
     95 CA         -6.8798  -23.5100  -51.3297 C.3       17 UNK         0.1400 
     96 CB         -6.5927  -23.4227  -52.8365 C.3       17 UNK        -0.1800 
     97 C          -6.5946  -22.1554  -50.6518 C.2       17 UNK         0.5000 
     98 O          -7.4103  -21.2426  -50.7792 O.2       17 UNK        -0.5000 
     99 N          -5.4423  -22.0417  -49.9718 N.am      18 UNK        -0.5000 
    100 CA        -4.9647  -20.8707  -49.2212 C.3       18 UNK         0.1400 
    101 CB        -5.9181  -20.5395  -48.0543 C.3       18 UNK        -0.1800 
    102 C         -4.6477  -19.6327  -50.0897 C.2       18 UNK         0.5000 
    103 O         -4.5445  -18.5274  -49.5563 O.2       18 UNK        -0.5000 
    104 N         -4.4655  -19.8456  -51.3977 N.am      19 UNK        -0.5000 
    105 CA        -4.0826  -18.8477  -52.3952 C.3       19 UNK         0.1400 
    106 CB        -5.1910  -17.7968  -52.6000 C.3       19 UNK        -0.1800 
    107 C         -3.7585  -19.5455  -53.7222 C.2       19 UNK         0.5000 
    108 O         -2.8072  -19.1530  -54.3953 O.2       19 UNK        -0.5000 
    109 N         -4.5465  -20.5769  -54.0714 N.am      20 UNK        -0.5000 
    110 CA        -4.4033  -21.4239  -55.2615 C.3       20 UNK         0.1400 
    111 CB        -3.1762  -22.3513  -55.1086 C.3       20 UNK        -0.1800 
    112 C         -4.4027  -20.5842  -56.5560 C.2       20 UNK         0.5000 
    113 O         -5.4452  -20.0315  -56.9108 O.2       20 UNK        -0.5000 
    114 N         -3.2356  -20.4510  -57.2014 N.am      21 UNK        -0.5000 
    115 CA        -3.0023  -19.6153  -58.3830 C.3       21 UNK         0.1400 
    116 CB        -1.5581  -19.8277  -58.8623 C.3       21 UNK        -0.1800 
    117 C         -3.2765  -18.1131  -58.1578 C.2       21 UNK         0.5000 
    118 O         -3.6096  -17.4134  -59.1152 O.2       21 UNK        -0.5000 
    119 N         -3.1564  -17.6529  -56.9062 N.am      22 UNK        -0.5000 
    120 CA        -3.5255  -16.2982  -56.4695 C.3       22 UNK         0.1400 
    121 C         -5.0426  -16.1352  -56.1509 C.2       22 UNK         0.5000 
    122 N         -5.8726  -17.1694  -56.2361 N.am      22 UNK        -0.7600 
    123 O         -5.4849  -15.0358  -55.8295 O.2       22 UNK        -0.5000 
    124 C124       -2.6420  -15.8220  -55.2866 C.3       23 UNK        -0.0398 
    125 S125       -0.8983  -15.5828  -55.7700 S.3       23 UNK        -0.2404 
    126 C126       -0.1174  -17.1272  -55.1848 C.3       23 UNK        -0.0205 
    127 H127        2.6677  -21.0137  -48.2778 H         1 UNK         0.0600 
    128 H128        4.0542  -20.2744  -49.0824 H         1 UNK         0.0600 
    129 H129        4.0668  -20.4988  -47.3299 H         1 UNK         0.0600 
    130 H130        3.8969  -18.0710  -49.4824 H         1 UNK         0.3000 
    131 H131        1.6296  -16.5632  -48.4437 H         1 UNK         0.0600 
    132 H132        2.6319  -16.5340  -50.9172 H         1 UNK         0.0800 
    133 H133        3.7992  -15.4356  -50.2768 H         1 UNK         0.0800 
    134 H134       -0.3069  -15.6213  -49.4251 H         1 UNK         0.0800 
    135 H135       -0.7699  -14.5688  -50.7311 H         1 UNK         0.0800 
    136 H136       -0.1594  -15.2272  -53.1334 H         1 UNK         0.1150 
    137 H137        0.0878  -19.4514  -53.8496 H         1 UNK         0.1150 
    138 H138        0.1735  -17.9402  -49.8450 H         1 UNK         0.1150 
    139 H139        0.5572  -20.9463  -52.0848 H         1 UNK         0.0800 
    140 H140        1.1687  -20.3144  -50.5827 H         1 UNK         0.0800 
    141 H141       -1.7052  -19.9859  -48.2642 H         1 UNK         0.0800 
    142 H142       -0.0134  -19.8430  -48.6156 H         1 UNK         0.0800 
    143 H143        0.1404  -22.4173  -48.4834 H         1 UNK         0.0600 
    144 H144        0.0497  -20.5901  -46.2606 H         1 UNK         0.3000 
    145 H145        1.2914  -22.9578  -43.8651 H         1 UNK         0.0600 
    146 H146        3.1045  -21.3065  -43.6010 H         1 UNK         0.0600 
    147 H147        3.3510  -22.2046  -45.0921 H         1 UNK         0.0600 
    148 H148        2.7099  -20.5657  -45.1490 H         1 UNK         0.0600 
    149 H149        0.7887  -20.1619  -43.6790 H         1 UNK         0.3000 
    150 H150       -2.6973  -20.1506  -43.6329 H         1 UNK         0.0600 
    151 H151       -2.5671  -21.1004  -41.3365 H         1 UNK         0.0600 
    152 H152       -2.7049  -19.3501  -41.2696 H         1 UNK         0.0600 
    153 H153       -1.1451  -20.1249  -40.9902 H         1 UNK         0.0600 
    154 H154       -0.9621  -18.1947  -42.5949 H         1 UNK         0.3000 
    155 H155        0.8108  -17.1625  -45.3877 H         1 UNK         0.0600 
    156 H156       -1.6743  -15.7104  -44.3540 H         1 UNK         0.0600 
    157 H157       -1.2644  -16.0016  -46.0390 H         1 UNK         0.0600 
    158 H158       -0.2686  -14.9234  -45.0720 H         1 UNK         0.0600 
    159 H159        0.4565  -15.8473  -42.9294 H         1 UNK         0.3000 
    160 H160        2.6107  -17.8969  -40.9151 H         1 UNK         0.0600 
    161 H161        3.7299  -15.7584  -40.5798 H         1 UNK         0.0600 
    162 H162        2.8753  -15.0273  -41.9311 H         1 UNK         0.0600 
    163 H163        4.0571  -16.3030  -42.2180 H         1 UNK         0.0600 
    164 H164        0.8471  -15.5248  -40.7193 H         1 UNK         0.3000 
    165 H165       -1.6649  -17.2497  -38.9575 H         1 UNK         0.0600 
    166 H166       -1.2581  -15.6237  -37.1252 H         1 UNK         0.0600 
    167 H167       -0.0554  -16.9025  -37.0766 H         1 UNK         0.0600 
    168 H168        0.3758  -15.3221  -37.7192 H         1 UNK         0.0600 
    169 H169       -1.1927  -14.4636  -39.4228 H         1 UNK         0.3000 
    170 H170       -2.4962  -14.2894  -42.7124 H         1 UNK         0.0600 
    171 H171       -4.5486  -14.4139  -41.2922 H         1 UNK         0.0600 
    172 H172       -3.7705  -13.4215  -40.0650 H         1 UNK         0.0600 
    173 H173       -4.1190  -12.7515  -41.6595 H         1 UNK         0.0600 
    174 H174       -1.7710  -12.2127  -40.9780 H         1 UNK         0.3000 
    175 H175        0.0644  -11.0312  -41.2328 H         1 UNK         0.0600 
    176 H176        2.3839  -12.9688  -40.6933 H         1 UNK         0.0600 
    177 H177        2.3043  -11.2826  -40.1887 H         1 UNK         0.0600 
    178 H178        1.1840  -12.4551  -39.5137 H         1 UNK         0.0600 
    179 H179        2.3334  -11.9098  -42.8988 H         1 UNK         0.3000 
    180 H180        1.2092  -10.2302  -45.8011 H         1 UNK         0.0600 
    181 H181        3.4381   -9.3533  -43.8864 H         1 UNK         0.0600 
    182 H182        2.1560   -8.3218  -44.5098 H         1 UNK         0.0600 
    183 H183        3.3502   -8.9899  -45.6106 H         1 UNK         0.0600 
    184 H184        3.6633  -11.5463  -44.9703 H         1 UNK         0.3000 
    185 H185        4.1977  -13.4364  -46.3834 H         1 UNK         0.0600 
    186 H186        3.8997  -13.8811  -43.9343 H         1 UNK         0.0600 
    187 H187        2.5355  -14.9371  -44.2794 H         1 UNK         0.0600 
    188 H188        4.1631  -15.4022  -44.7686 H         1 UNK         0.0600 
    189 H189        1.7685  -14.6056  -47.2578 H         1 UNK         0.3000 
    190 H190       -2.2892  -21.6333  -45.9873 H         1 UNK         0.3000 
    191 H191       -4.4311  -23.1774  -47.1067 H         1 UNK         0.0600 
    192 H192       -3.9848  -22.3916  -44.1772 H         1 UNK         0.0600 
    193 H193       -5.5000  -22.8594  -44.9284 H         1 UNK         0.0600 
    194 H194       -4.7288  -21.3488  -45.3861 H         1 UNK         0.0600 
    195 H195       -1.7407  -23.9693  -44.9189 H         1 UNK         0.3000 
    196 H196       -2.5557  -26.6919  -44.4209 H         1 UNK         0.0600 
    197 H197        0.1800  -25.3353  -44.1599 H         1 UNK         0.0600 
    198 H198       -0.2496  -26.9130  -43.5114 H         1 UNK         0.0600 
    199 H199       -1.0376  -25.4678  -42.8950 H         1 UNK         0.0600 
    200 H200       -0.1119  -25.2231  -46.6487 H         1 UNK         0.3000 
    201 H201        0.7039  -27.7638  -47.6785 H         1 UNK         0.0600 
    202 H202        2.2432  -25.8443  -47.4610 H         1 UNK         0.0600 
    203 H203        1.3171  -24.9267  -48.6468 H         1 UNK         0.0600 
    204 H204        2.1751  -26.3844  -49.1313 H         1 UNK         0.0600 
    205 H205       -1.2816  -25.1126  -49.1389 H         1 UNK         0.3000 
    206 H206       -1.5294  -26.6868  -51.6536 H         1 UNK         0.0600 
    207 H207       -0.6043  -24.3371  -51.7128 H         1 UNK         0.0600 
    208 H208       -2.0707  -24.5290  -52.6586 H         1 UNK         0.0600 
    209 H209       -2.1416  -23.7408  -51.0910 H         1 UNK         0.0600 
    210 H210       -3.3173  -26.0329  -48.8570 H         1 UNK         0.3000 
    211 H211       -5.3575  -26.4327  -48.1287 H         1 UNK         0.0600 
    212 H212       -6.0332  -27.7317  -50.8092 H         1 UNK         0.0600 
    213 H213       -6.9288  -27.8892  -49.3081 H         1 UNK         0.0600 
    214 H214       -5.3044  -28.5471  -49.4257 H         1 UNK         0.0600 
    215 H215       -5.4104  -25.0477  -51.3833 H         1 UNK         0.3000 
    216 H216       -7.9412  -23.7263  -51.1927 H         1 UNK         0.0600 
    217 H217       -7.1445  -22.6027  -53.2979 H         1 UNK         0.0600 
    218 H218       -6.8904  -24.3392  -53.3462 H         1 UNK         0.0600 
    219 H219       -5.5320  -23.2637  -53.0317 H         1 UNK         0.0600 
    220 H220       -4.8403  -22.8526  -49.9468 H         1 UNK         0.3000 
    221 H221       -4.0126  -21.1690  -48.7868 H         1 UNK         0.0600 
    222 H222       -6.8486  -20.0943  -48.4072 H         1 UNK         0.0600 
    223 H223       -6.1731  -21.4314  -47.4828 H         1 UNK         0.0600 
    224 H224       -5.4596  -19.8300  -47.3648 H         1 UNK         0.0600 
    225 H225       -4.4890  -20.8005  -51.7234 H         1 UNK         0.3000 
    226 H226       -3.1737  -18.3489  -52.0506 H         1 UNK         0.0600 
    227 H227       -5.3821  -17.2264  -51.6918 H         1 UNK         0.0600 
    228 H228       -4.9071  -17.0778  -53.3674 H         1 UNK         0.0600 
    229 H229       -6.1301  -18.2566  -52.9099 H         1 UNK         0.0600 
    230 H230       -5.3749  -20.7444  -53.5202 H         1 UNK         0.3000 
    231 H231       -5.2911  -22.0559  -55.3108 H         1 UNK         0.0600 
    232 H232       -3.2858  -22.9946  -54.2359 H         1 UNK         0.0600 
    233 H233       -2.2459  -21.7954  -54.9870 H         1 UNK         0.0600 
    234 H234       -3.0656  -23.0051  -55.9746 H         1 UNK         0.0600 
    235 H235       -2.4250  -20.9070  -56.8092 H         1 UNK         0.3000 
    236 H236       -3.6797  -19.9567  -59.1682 H         1 UNK         0.0600 
    237 H237       -1.3544  -19.2435  -59.7608 H         1 UNK         0.0600 
    238 H238       -0.8351  -19.5253  -58.1035 H         1 UNK         0.0600 
    239 H239       -1.3723  -20.8735  -59.1075 H         1 UNK         0.0600 
    240 H240       -2.9056  -18.2996  -56.1640 H         1 UNK         0.3000 
    241 H241       -3.3406  -15.6133  -57.2992 H         1 UNK         0.0600 
    242 H242       -6.8496  -17.0274  -56.0358 H         1 UNK         0.3800 
    243 H243       -5.5550  -18.0885  -56.5242 H         1 UNK         0.3800 
    244 H244       -2.9917  -14.8600  -54.9083 H         1 UNK         0.0800 
    245 H245       -2.7066  -16.5126  -54.4458 H         1 UNK         0.0800 
    246 H246       -0.6328  -17.9706  -55.6458 H         1 UNK         0.0800 
    247 H247        0.9055  -17.1532  -55.5616 H         1 UNK         0.0800 
@<TRIPOS>BOND
     1    1    2 1    
     2    1  127 1    
     3    1  128 1    
     4    1  129 1    
     5    2    3 2    
     6    2    4 am   BACKBONE|DICT|INTERRES
     7    4    5 1    
     8    4  130 1    
     9    5    6 1    
    10    5   65 1    
    11    5  131 1    
    12    6    7 1    
    13    6  132 1    
    14    6  133 1    
    15    7    8 1    
    16    8    9 1    
    17    8  134 1    
    18    8  135 1    
    19    9   10 ar   
    20    9   14 ar   
    21   10   11 ar   
    22   10  136 1    
    23   11   12 ar   
    24   11  126 1    
    25   12   13 ar   
    26   12  137 1    
    27   13   14 ar   
    28   13   15 1    
    29   14  138 1    
    30   15   16 1    
    31   15  139 1    
    32   15  140 1    
    33   16   17 1    
    34   17   18 1    
    35   17  141 1    
    36   17  142 1    
    37   18   19 1    
    38   18   67 1    
    39   18  143 1    
    40   19   20 am   BACKBONE|DICT|INTERRES
    41   19  144 1    
    42   20   21 2    
    43   20   22 1    
    44   22   23 1    
    45   22   24 1    
    46   22  145 1    
    47   23  146 1    
    48   23  147 1    
    49   23  148 1    
    50   24   25 am   BACKBONE|DICT|INTERRES
    51   24  149 1    
    52   25   26 2    
    53   25   27 1    
    54   27   28 1    
    55   27   29 1    
    56   27  150 1    
    57   28  151 1    
    58   28  152 1    
    59   28  153 1    
    60   29   30 am   BACKBONE|DICT|INTERRES
    61   29  154 1    
    62   30   31 2    
    63   30   32 1    
    64   32   33 1    
    65   32   34 1    
    66   32  155 1    
    67   33  156 1    
    68   33  157 1    
    69   33  158 1    
    70   34   35 am   BACKBONE|DICT|INTERRES
    71   34  159 1    
    72   35   36 2    
    73   35   37 1    
    74   37   38 1    
    75   37   39 1    
    76   37  160 1    
    77   38  161 1    
    78   38  162 1    
    79   38  163 1    
    80   39   40 am   BACKBONE|DICT|INTERRES
    81   39  164 1    
    82   40   41 2    
    83   40   42 1    
    84   42   43 1    
    85   42   44 1    
    86   42  165 1    
    87   43  166 1    
    88   43  167 1    
    89   43  168 1    
    90   44   45 am   BACKBONE|DICT|INTERRES
    91   44  169 1    
    92   45   46 2    
    93   45   47 1    
    94   47   48 1    
    95   47   49 1    
    96   47  170 1    
    97   48  171 1    
    98   48  172 1    
    99   48  173 1    
   100   49   50 am   BACKBONE|DICT|INTERRES
   101   49  174 1    
   102   50   51 2    
   103   50   52 1    
   104   52   53 1    
   105   52   54 1    
   106   52  175 1    
   107   53  176 1    
   108   53  177 1    
   109   53  178 1    
   110   54   55 am   BACKBONE|DICT|INTERRES
   111   54  179 1    
   112   55   56 2    
   113   55   57 1    
   114   57   58 1    
   115   57   59 1    
   116   57  180 1    
   117   58  181 1    
   118   58  182 1    
   119   58  183 1    
   120   59   60 am   BACKBONE|DICT|INTERRES
   121   59  184 1    
   122   60   61 2    
   123   60   62 1    
   124   62   63 1    
   125   62   64 1    
   126   62  185 1    
   127   63  186 1    
   128   63  187 1    
   129   63  188 1    
   130   64   65 am   BACKBONE|DICT|INTERRES
   131   64  189 1    
   132   65   66 2    
   133   67   68 2    
   134   67   69 am   BACKBONE|DICT|INTERRES
   135   69   70 1    
   136   69  190 1    
   137   70   71 1    
   138   70   72 1    
   139   70  191 1    
   140   71  192 1    
   141   71  193 1    
   142   71  194 1    
   143   72   73 2    
   144   72   74 am   BACKBONE|DICT|INTERRES
   145   74   75 1    
   146   74  195 1    
   147   75   76 1    
   148   75   77 1    
   149   75  196 1    
   150   76  197 1    
   151   76  198 1    
   152   76  199 1    
   153   77   78 2    
   154   77   79 am   BACKBONE|DICT|INTERRES
   155   79   80 1    
   156   79  200 1    
   157   80   81 1    
   158   80   82 1    
   159   80  201 1    
   160   81  202 1    
   161   81  203 1    
   162   81  204 1    
   163   82   83 2    
   164   82   84 am   BACKBONE|DICT|INTERRES
   165   84   85 1    
   166   84  205 1    
   167   85   86 1    
   168   85   87 1    
   169   85  206 1    
   170   86  207 1    
   171   86  208 1    
   172   86  209 1    
   173   87   88 2    
   174   87   89 am   BACKBONE|DICT|INTERRES
   175   89   90 1    
   176   89  210 1    
   177   90   91 1    
   178   90   92 1    
   179   90  211 1    
   180   91  212 1    
   181   91  213 1    
   182   91  214 1    
   183   92   93 2    
   184   92   94 am   BACKBONE|DICT|INTERRES
   185   94   95 1    
   186   94  215 1    
   187   95   96 1    
   188   95   97 1    
   189   95  216 1    
   190   96  217 1    
   191   96  218 1    
   192   96  219 1    
   193   97   98 2    
   194   97   99 am   BACKBONE|DICT|INTERRES
   195   99  100 1    
   196   99  220 1    
   197  100  101 1    
   198  100  102 1    
   199  100  221 1    
   200  101  222 1    
   201  101  223 1    
   202  101  224 1    
   203  102  103 2    
   204  102  104 am   BACKBONE|DICT|INTERRES
   205  104  105 1    
   206  104  225 1    
   207  105  106 1    
   208  105  107 1    
   209  105  226 1    
   210  106  227 1    
   211  106  228 1    
   212  106  229 1    
   213  107  108 2    
   214  107  109 am   BACKBONE|DICT|INTERRES
   215  109  110 1    
   216  109  230 1    
   217  110  111 1    
   218  110  112 1    
   219  110  231 1    
   220  111  232 1    
   221  111  233 1    
   222  111  234 1    
   223  112  113 2    
   224  112  114 am   BACKBONE|DICT|INTERRES
   225  114  115 1    
   226  114  235 1    
   227  115  116 1    
   228  115  117 1    
   229  115  236 1    
   230  116  237 1    
   231  116  238 1    
   232  116  239 1    
   233  117  118 2    
   234  117  119 am   BACKBONE|DICT|INTERRES
   235  119  120 1    
   236  119  240 1    
   237  120  121 1    
   238  120  124 1    
   239  120  241 1    
   240  121  122 am   BACKBONE|DICT|INTERRES
   241  121  123 2    
   242  122  242 1    
   243  122  243 1    
   244  124  125 1    
   245  124  244 1    
   246  124  245 1    
   247  125  126 1    
   248  126  246 1    
   249  126  247 1    
@<TRIPOS>SUBSTRUCTURE
     1 UNK         1 GROUP             0       ****    0 ROOT    
