@<TRIPOS>MOLECULE
3R540
247   249    1
SMALL
USER_CHARGES


@<TRIPOS>ATOM
      1 CA          4.3420   -8.8435  -49.2685 C.3       0 UNK        -0.1800 
      2 C           4.3485   -9.7840  -50.4721 C.2       0 UNK         0.5000 
      3 O           4.1197   -9.3333  -51.5923 O.2       0 UNK        -0.5000 
      4 N           4.6008  -11.0894  -50.3003 N.am      1 UNK        -0.5000 
      5 CA          4.8602  -11.7870  -49.0329 C.3       1 UNK         0.1400 
      6 C6          5.7404  -13.0472  -49.2420 C.3       23 UNK        -0.0398 
      7 S7          5.0128  -14.2926  -50.3654 S.3       23 UNK        -0.2404 
      8 C8          4.3714  -15.4993  -49.1616 C.3       23 UNK        -0.0205 
      9 C9          3.2440  -16.3282  -49.7520 C.ar      23 UNK        -0.0193 
     10 C10         2.0193  -15.7253  -50.0485 C.ar      23 UNK        -0.1150 
     11 C11         0.9551  -16.4804  -50.5465 C.ar      23 UNK        -0.0193 
     12 C12         1.1254  -17.8525  -50.7573 C.ar      23 UNK        -0.1150 
     13 C13         2.3510  -18.4644  -50.4761 C.ar      23 UNK        -0.0193 
     14 C14         3.4068  -17.6974  -49.9743 C.ar      23 UNK        -0.1150 
     15 C15         2.5442  -19.9536  -50.7107 C.3       23 UNK        -0.0205 
     16 S16         2.3374  -20.9008  -49.1719 S.3       23 UNK        -0.2404 
     17 C17         0.5206  -20.9615  -49.0235 C.3       23 UNK        -0.0398 
     18 CA          0.0774  -22.1907  -48.1971 C.3       11 UNK         0.1400 
     19 N           0.3310  -22.0129  -46.7656 N.am      11 UNK        -0.5000 
     20 C           0.2299  -22.9835  -45.8480 C.2       10 UNK         0.5000 
     21 O          -0.0623  -24.1499  -46.1117 O.2       10 UNK        -0.5000 
     22 CA          0.4433  -22.5729  -44.3812 C.3       10 UNK         0.1400 
     23 CB          1.9378  -22.4003  -44.0720 C.3       10 UNK        -0.1800 
     24 N          -0.2873  -21.3547  -44.0272 N.am      10 UNK        -0.5000 
     25 C          -1.6240  -21.2459  -44.0528 C.2       9 UNK         0.5000 
     26 O          -2.3786  -22.1716  -44.3465 O.2       9 UNK        -0.5000 
     27 CA         -2.2277  -19.8701  -43.7286 C.3       9 UNK         0.1400 
     28 CB         -2.2750  -19.6454  -42.2101 C.3       9 UNK        -0.1800 
     29 N          -1.5179  -18.7661  -44.3710 N.am      9 UNK        -0.5000 
     30 C          -1.3994  -18.5955  -45.6966 C.2       8 UNK         0.5000 
     31 O          -1.8802  -19.3582  -46.5361 O.2       8 UNK        -0.5000 
     32 CA         -0.5390  -17.4033  -46.1534 C.3       8 UNK         0.1400 
     33 CB         -1.2635  -16.0729  -45.8944 C.3       8 UNK        -0.1800 
     34 N           0.7667  -17.3759  -45.4945 N.am      8 UNK        -0.5000 
     35 C           1.6684  -18.3677  -45.5320 C.2       7 UNK         0.5000 
     36 O           1.5199  -19.4170  -46.1567 O.2       7 UNK        -0.5000 
     37 CA          2.9213  -18.1781  -44.6640 C.3       7 UNK         0.1400 
     38 CB          3.9330  -17.2495  -45.3550 C.3       7 UNK        -0.1800 
     39 N           2.5795  -17.6572  -43.3389 N.am      7 UNK        -0.5000 
     40 C           1.9207  -18.3572  -42.4027 C.2       6 UNK         0.5000 
     41 O           1.5642  -19.5262  -42.5468 O.2       6 UNK        -0.5000 
     42 CA          1.5666  -17.6165  -41.1001 C.3       6 UNK         0.1400 
     43 CB          2.7694  -17.5909  -40.1452 C.3       6 UNK        -0.1800 
     44 N           1.1041  -16.2490  -41.3363 N.am      6 UNK        -0.5000 
     45 C          -0.0302  -15.9327  -41.9767 C.2       5 UNK         0.5000 
     46 O          -0.8317  -16.7653  -42.3970 O.2       5 UNK        -0.5000 
     47 CA         -0.2948  -14.4365  -42.2279 C.3       5 UNK         0.1400 
     48 CB         -1.0859  -13.8265  -41.0616 C.3       5 UNK        -0.1800 
     49 N           0.9192  -13.6477  -42.4530 N.am      5 UNK        -0.5000 
     50 C           1.8101  -13.8644  -43.4291 C.2       4 UNK         0.5000 
     51 O           1.7277  -14.7908  -44.2389 O.2       4 UNK        -0.5000 
     52 CA          2.9708  -12.8594  -43.5188 C.3       4 UNK         0.1400 
     53 CB          4.2778  -13.5295  -43.9765 C.3       4 UNK        -0.1800 
     54 N           2.6147  -11.7945  -44.4510 N.am      4 UNK        -0.5000 
     55 C           1.7871  -10.7768  -44.1668 C.2       3 UNK         0.5000 
     56 O           1.3507  -10.5546  -43.0363 O.2       3 UNK        -0.5000 
     57 CA          1.3558   -9.8596  -45.3319 C.3       3 UNK         0.1400 
     58 CB          2.2257   -8.5938  -45.3704 C.3       3 UNK        -0.1800 
     59 N           1.4186  -10.5135  -46.6391 N.am      3 UNK        -0.5000 
     60 C           0.6752  -11.5616  -47.0199 C.2       2 UNK         0.5000 
     61 O          -0.2636  -12.0039  -46.3577 O.2       2 UNK        -0.5000 
     62 CA          1.0578  -12.2507  -48.3476 C.3       2 UNK         0.1400 
     63 CB          0.0177  -11.9392  -49.4348 C.3       2 UNK        -0.1800 
     64 N           2.3927  -11.9255  -48.8727 N.am      2 UNK        -0.5000 
     65 C           3.5675  -12.1185  -48.2515 C.2       1 UNK         0.5000 
     66 O           3.6594  -12.5264  -47.0953 O.2       1 UNK        -0.5000 
     67 C          -1.3898  -22.5682  -48.4792 C.2       11 UNK         0.5000 
     68 O          -1.6292  -23.4887  -49.2619 O.2       11 UNK        -0.5000 
     69 N          -2.3393  -21.8996  -47.8069 N.am      12 UNK        -0.5000 
     70 CA         -3.7662  -22.2161  -47.8776 C.3       12 UNK         0.1400 
     71 CB         -4.5831  -21.1730  -47.1003 C.3       12 UNK        -0.1800 
     72 C          -4.0788  -23.6346  -47.3720 C.2       12 UNK         0.5000 
     73 O          -4.7913  -24.3686  -48.0541 O.2       12 UNK        -0.5000 
     74 N          -3.5171  -24.0084  -46.2134 N.am      13 UNK        -0.5000 
     75 CA         -3.6651  -25.3306  -45.6040 C.3       13 UNK         0.1400 
     76 CB         -3.0324  -25.3351  -44.2045 C.3       13 UNK        -0.1800 
     77 C          -3.0801  -26.4589  -46.4699 C.2       13 UNK         0.5000 
     78 O          -3.7389  -27.4841  -46.6466 O.2       13 UNK        -0.5000 
     79 N          -1.8829  -26.2367  -47.0318 N.am      14 UNK        -0.5000 
     80 CA         -1.2037  -27.1639  -47.9414 C.3       14 UNK         0.1400 
     81 CB          0.2045  -26.6350  -48.2528 C.3       14 UNK        -0.1800 
     82 C          -1.9854  -27.4179  -49.2446 C.2       14 UNK         0.5000 
     83 O          -1.9793  -28.5409  -49.7497 O.2       14 UNK        -0.5000 
     84 N          -2.6671  -26.3797  -49.7428 N.am      15 UNK        -0.5000 
     85 CA         -3.5334  -26.4310  -50.9193 C.3       15 UNK         0.1400 
     86 CB         -3.5058  -25.0533  -51.5925 C.3       15 UNK        -0.1800 
     87 C          -4.9840  -26.8449  -50.5980 C.2       15 UNK         0.5000 
     88 O          -5.8084  -26.8713  -51.5125 O.2       15 UNK        -0.5000 
     89 N          -5.2942  -27.1126  -49.3191 N.am      16 UNK        -0.5000 
     90 CA         -6.6193  -27.4411  -48.7739 C.3       16 UNK         0.1400 
     91 CB         -7.0471  -28.8523  -49.2257 C.3       16 UNK        -0.1800 
     92 C          -7.6898  -26.3659  -49.0760 C.2       16 UNK         0.5000 
     93 O          -8.8603  -26.6942  -49.2763 O.2       16 UNK        -0.5000 
     94 N          -7.2469  -25.1013  -49.1384 N.am      17 UNK        -0.5000 
     95 CA         -7.9782  -23.8864  -49.5122 C.3       17 UNK         0.1400 
     96 CB         -9.0819  -23.5784  -48.4801 C.3       17 UNK        -0.1800 
     97 C          -8.5109  -23.8695  -50.9644 C.2       17 UNK         0.5000 
     98 O          -9.2966  -22.9829  -51.3036 O.2       17 UNK        -0.5000 
     99 N          -8.0816  -24.8218  -51.8049 N.am      18 UNK        -0.5000 
    100 CA        -8.5333  -24.9690  -53.1902 C.3       18 UNK         0.1400 
    101 CB        -8.5609  -26.4651  -53.5420 C.3       18 UNK        -0.1800 
    102 C         -7.6561  -24.1977  -54.1942 C.2       18 UNK         0.5000 
    103 O         -8.0631  -24.0385  -55.3462 O.2       18 UNK        -0.5000 
    104 N         -6.4743  -23.7448  -53.7610 N.am      19 UNK        -0.5000 
    105 CA        -5.4809  -23.0416  -54.5672 C.3       19 UNK         0.1400 
    106 CB        -4.7327  -24.0443  -55.4746 C.3       19 UNK        -0.1800 
    107 C         -4.5357  -22.2532  -53.6416 C.2       19 UNK         0.5000 
    108 O         -4.8519  -22.0607  -52.4651 O.2       19 UNK        -0.5000 
    109 N         -3.3942  -21.8197  -54.1964 N.am      20 UNK        -0.5000 
    110 CA        -2.3011  -21.0863  -53.5435 C.3       20 UNK         0.1400 
    111 CB        -1.6422  -21.9285  -52.4344 C.3       20 UNK        -0.1800 
    112 C         -2.6861  -19.6668  -53.0780 C.2       20 UNK         0.5000 
    113 O         -2.1101  -19.1576  -52.1132 O.2       20 UNK        -0.5000 
    114 N         -3.6266  -19.0474  -53.8087 N.am      21 UNK        -0.5000 
    115 CA        -4.0977  -17.6654  -53.6879 C.3       21 UNK         0.1400 
    116 CB        -3.0392  -16.7014  -54.2711 C.3       21 UNK        -0.1800 
    117 C         -4.5381  -17.3077  -52.2534 C.2       21 UNK         0.5000 
    118 O         -5.6323  -17.6942  -51.8404 O.2       21 UNK        -0.5000 
    119 N         -3.6797  -16.5763  -51.5351 N.am      22 UNK        -0.5000 
    120 CA        -3.8532  -16.1750  -50.1348 C.3       22 UNK         0.1400 
    121 C         -3.7700  -17.3385  -49.0996 C.2       22 UNK         0.5000 
    122 N         -3.1851  -18.4841  -49.4319 N.am      22 UNK        -0.7600 
    123 O         -4.2473  -17.1915  -47.9783 O.2       22 UNK        -0.5000 
    124 C124       -2.9198  -14.9775  -49.7906 C.3       23 UNK        -0.0398 
    125 S125       -1.2161  -15.3984  -49.2742 S.3       23 UNK        -0.2404 
    126 C126       -0.3805  -15.8137  -50.8319 C.3       23 UNK        -0.0205 
    127 H127        5.3305   -8.7940  -48.8121 H         1 UNK         0.0600 
    128 H128        4.0688   -7.8338  -49.5757 H         1 UNK         0.0600 
    129 H129        3.6218   -9.1643  -48.5174 H         1 UNK         0.0600 
    130 H130        4.6068  -11.6888  -51.1143 H         1 UNK         0.3000 
    131 H131        5.4353  -11.1205  -48.3882 H         1 UNK         0.0600 
    132 H132        6.6993  -12.7458  -49.6654 H         1 UNK         0.0800 
    133 H133        5.9853  -13.5104  -48.2842 H         1 UNK         0.0800 
    134 H134        5.1906  -16.1357  -48.8235 H         1 UNK         0.0800 
    135 H135        3.9928  -14.9923  -48.2737 H         1 UNK         0.0800 
    136 H136        1.8902  -14.6665  -49.8797 H         1 UNK         0.1150 
    137 H137        0.3036  -18.4453  -51.1343 H         1 UNK         0.1150 
    138 H138        4.3504  -18.1726  -49.7451 H         1 UNK         0.1150 
    139 H139        1.8581  -20.3198  -51.4760 H         1 UNK         0.0800 
    140 H140        3.5488  -20.1308  -51.0974 H         1 UNK         0.0800 
    141 H141        0.0989  -20.9980  -50.0273 H         1 UNK         0.0800 
    142 H142        0.1612  -20.0332  -48.5751 H         1 UNK         0.0800 
    143 H143        0.6725  -23.0471  -48.5227 H         1 UNK         0.0600 
    144 H144        0.6116  -21.0802  -46.4716 H         1 UNK         0.3000 
    145 H145        0.0616  -23.3813  -43.7542 H         1 UNK         0.0600 
    146 H146        2.1007  -22.2149  -43.0104 H         1 UNK         0.0600 
    147 H147        2.4975  -23.2989  -44.3344 H         1 UNK         0.0600 
    148 H148        2.3717  -21.5685  -44.6274 H         1 UNK         0.0600 
    149 H149        0.2704  -20.5563  -43.7423 H         1 UNK         0.3000 
    150 H150       -3.2529  -19.8625  -44.1039 H         1 UNK         0.0600 
    151 H151       -2.8025  -20.4586  -41.7099 H         1 UNK         0.0600 
    152 H152       -2.7974  -18.7205  -41.9653 H         1 UNK         0.0600 
    153 H153       -1.2740  -19.5880  -41.7808 H         1 UNK         0.0600 
    154 H154       -1.1061  -18.0759  -43.7484 H         1 UNK         0.3000 
    155 H155       -0.3661  -17.5038  -47.2269 H         1 UNK         0.0600 
    156 H156       -0.6650  -15.2238  -46.2262 H         1 UNK         0.0600 
    157 H157       -1.4884  -15.9294  -44.8391 H         1 UNK         0.0600 
    158 H158       -2.2103  -16.0366  -46.4339 H         1 UNK         0.0600 
    159 H159        0.9946  -16.5394  -44.9666 H         1 UNK         0.3000 
    160 H160        3.3929  -19.1546  -44.5341 H         1 UNK         0.0600 
    161 H161        3.5114  -16.2645  -45.5543 H         1 UNK         0.0600 
    162 H162        4.2466  -17.6658  -46.3133 H         1 UNK         0.0600 
    163 H163        4.8285  -17.1163  -44.7481 H         1 UNK         0.0600 
    164 H164        2.7665  -16.6787  -43.1753 H         1 UNK         0.3000 
    165 H165        0.7577  -18.1671  -40.6148 H         1 UNK         0.0600 
    166 H166        3.6050  -17.0272  -40.5620 H         1 UNK         0.0600 
    167 H167        2.5037  -17.1403  -39.1887 H         1 UNK         0.0600 
    168 H168        3.1249  -18.6015  -39.9395 H         1 UNK         0.0600 
    169 H169        1.7034  -15.5003  -41.0223 H         1 UNK         0.3000 
    170 H170       -0.9047  -14.3574  -43.1296 H         1 UNK         0.0600 
    171 H171       -2.0102  -14.3787  -40.8856 H         1 UNK         0.0600 
    172 H172       -0.5122  -13.8418  -40.1340 H         1 UNK         0.0600 
    173 H173       -1.3615  -12.7925  -41.2699 H         1 UNK         0.0600 
    174 H174        1.0381  -12.8310  -41.8695 H         1 UNK         0.3000 
    175 H175        3.1468  -12.4311  -42.5297 H         1 UNK         0.0600 
    176 H176        4.5732  -14.3193  -43.2850 H         1 UNK         0.0600 
    177 H177        5.0950  -12.8094  -44.0185 H         1 UNK         0.0600 
    178 H178        4.1819  -13.9803  -44.9643 H         1 UNK         0.0600 
    179 H179        2.9074  -11.9394  -45.4134 H         1 UNK         0.3000 
    180 H180        0.3206   -9.5626  -45.1520 H         1 UNK         0.0600 
    181 H181        3.2724   -8.8306  -45.5662 H         1 UNK         0.0600 
    182 H182        2.1820   -8.0610  -44.4196 H         1 UNK         0.0600 
    183 H183        1.8863   -7.9042  -46.1436 H         1 UNK         0.0600 
    184 H184        2.1622  -10.2209  -47.2530 H         1 UNK         0.3000 
    185 H185        1.0372  -13.3244  -48.1515 H         1 UNK         0.0600 
    186 H186        0.2088  -12.5150  -50.3405 H         1 UNK         0.0600 
    187 H187       -0.9888  -12.1939  -49.0997 H         1 UNK         0.0600 
    188 H188        0.0183  -10.8814  -49.7000 H         1 UNK         0.0600 
    189 H189        2.4220  -11.5819  -49.8219 H         1 UNK         0.3000 
    190 H190       -2.0694  -21.1370  -47.1901 H         1 UNK         0.3000 
    191 H191       -4.0643  -22.1655  -48.9273 H         1 UNK         0.0600 
    192 H192       -4.4486  -20.1734  -47.5110 H         1 UNK         0.0600 
    193 H193       -5.6491  -21.3995  -47.1468 H         1 UNK         0.0600 
    194 H194       -4.3001  -21.1405  -46.0483 H         1 UNK         0.0600 
    195 H195       -2.9690  -23.3298  -45.6893 H         1 UNK         0.3000 
    196 H196       -4.7341  -25.5227  -45.4914 H         1 UNK         0.0600 
    197 H197       -3.1321  -26.3132  -43.7322 H         1 UNK         0.0600 
    198 H198       -3.5167  -24.6086  -43.5520 H         1 UNK         0.0600 
    199 H199       -1.9696  -25.0937  -44.2422 H         1 UNK         0.0600 
    200 H200       -1.3862  -25.3784  -46.8061 H         1 UNK         0.3000 
    201 H201       -1.1025  -28.1208  -47.4255 H         1 UNK         0.0600 
    202 H202        0.7998  -26.5415  -47.3445 H         1 UNK         0.0600 
    203 H203        0.1682  -25.6555  -48.7312 H         1 UNK         0.0600 
    204 H204        0.7379  -27.3101  -48.9231 H         1 UNK         0.0600 
    205 H205       -2.5842  -25.4784  -49.2853 H         1 UNK         0.3000 
    206 H206       -3.1391  -27.1608  -51.6292 H         1 UNK         0.0600 
    207 H207       -2.4889  -24.7742  -51.8650 H         1 UNK         0.0600 
    208 H208       -4.0982  -25.0527  -52.5065 H         1 UNK         0.0600 
    209 H209       -3.9027  -24.2763  -50.9374 H         1 UNK         0.0600 
    210 H210       -4.5553  -27.0366  -48.6307 H         1 UNK         0.3000 
    211 H211       -6.5057  -27.4589  -47.6892 H         1 UNK         0.0600 
    212 H212       -7.2324  -28.8939  -50.2996 H         1 UNK         0.0600 
    213 H213       -7.9630  -29.1647  -48.7228 H         1 UNK         0.0600 
    214 H214       -6.2808  -29.5903  -48.9885 H         1 UNK         0.0600 
    215 H215       -6.2682  -24.9453  -48.8979 H         1 UNK         0.3000 
    216 H216       -7.2467  -23.0788  -49.4584 H         1 UNK         0.0600 
    217 H217       -8.6815  -23.5702  -47.4663 H         1 UNK         0.0600 
    218 H218       -9.8878  -24.3117  -48.5176 H         1 UNK         0.0600 
    219 H219       -9.5250  -22.5981  -48.6591 H         1 UNK         0.0600 
    220 H220       -7.4210  -25.5165  -51.4731 H         1 UNK         0.3000 
    221 H221       -9.5520  -24.5872  -53.2845 H         1 UNK         0.0600 
    222 H222       -7.5615  -26.9009  -53.5309 H         1 UNK         0.0600 
    223 H223       -9.1788  -27.0249  -52.8395 H         1 UNK         0.0600 
    224 H224       -8.9752  -26.6244  -54.5383 H         1 UNK         0.0600 
    225 H225       -6.2387  -23.8383  -52.7820 H         1 UNK         0.3000 
    226 H226       -5.9951  -22.3098  -55.1934 H         1 UNK         0.0600 
    227 H227       -5.4250  -24.6251  -56.0839 H         1 UNK         0.0600 
    228 H228       -4.0617  -23.5366  -56.1678 H         1 UNK         0.0600 
    229 H229       -4.1371  -24.7476  -54.8922 H         1 UNK         0.0600 
    230 H230       -3.2386  -22.0333  -55.1718 H         1 UNK         0.3000 
    231 H231       -1.5460  -20.9383  -54.3167 H         1 UNK         0.0600 
    232 H232       -0.7242  -21.4559  -52.0883 H         1 UNK         0.0600 
    233 H233       -1.3706  -22.9179  -52.8002 H         1 UNK         0.0600 
    234 H234       -2.2982  -22.0516  -51.5721 H         1 UNK         0.0600 
    235 H235       -4.0536  -19.5831  -54.5501 H         1 UNK         0.3000 
    236 H236       -4.9911  -17.5845  -54.3089 H         1 UNK         0.0600 
    237 H237       -3.3629  -15.6628  -54.1899 H         1 UNK         0.0600 
    238 H238       -2.0742  -16.7924  -53.7716 H         1 UNK         0.0600 
    239 H239       -2.8767  -16.9022  -55.3301 H         1 UNK         0.0600 
    240 H240       -2.7948  -16.3434  -51.9565 H         1 UNK         0.3000 
    241 H241       -4.8756  -15.7990  -50.0606 H         1 UNK         0.0600 
    242 H242       -2.7979  -18.6254  -50.3600 H         1 UNK         0.3800 
    243 H243       -3.0924  -19.1972  -48.7269 H         1 UNK         0.3800 
    244 H244       -2.8782  -14.2664  -50.6168 H         1 UNK         0.0800 
    245 H245       -3.3604  -14.4234  -48.9605 H         1 UNK         0.0800 
    246 H246       -0.2308  -14.9103  -51.4244 H         1 UNK         0.0800 
    247 H247       -1.0032  -16.4839  -51.4225 H         1 UNK         0.0800 
@<TRIPOS>BOND
     1    1    2 1    
     2    1  127 1    
     3    1  128 1    
     4    1  129 1    
     5    2    3 2    
     6    2    4 am   BACKBONE|DICT|INTERRES
     7    4    5 1    
     8    4  130 1    
     9    5    6 1    
    10    5   65 1    
    11    5  131 1    
    12    6    7 1    
    13    6  132 1    
    14    6  133 1    
    15    7    8 1    
    16    8    9 1    
    17    8  134 1    
    18    8  135 1    
    19    9   10 ar   
    20    9   14 ar   
    21   10   11 ar   
    22   10  136 1    
    23   11   12 ar   
    24   11  126 1    
    25   12   13 ar   
    26   12  137 1    
    27   13   14 ar   
    28   13   15 1    
    29   14  138 1    
    30   15   16 1    
    31   15  139 1    
    32   15  140 1    
    33   16   17 1    
    34   17   18 1    
    35   17  141 1    
    36   17  142 1    
    37   18   19 1    
    38   18   67 1    
    39   18  143 1    
    40   19   20 am   BACKBONE|DICT|INTERRES
    41   19  144 1    
    42   20   21 2    
    43   20   22 1    
    44   22   23 1    
    45   22   24 1    
    46   22  145 1    
    47   23  146 1    
    48   23  147 1    
    49   23  148 1    
    50   24   25 am   BACKBONE|DICT|INTERRES
    51   24  149 1    
    52   25   26 2    
    53   25   27 1    
    54   27   28 1    
    55   27   29 1    
    56   27  150 1    
    57   28  151 1    
    58   28  152 1    
    59   28  153 1    
    60   29   30 am   BACKBONE|DICT|INTERRES
    61   29  154 1    
    62   30   31 2    
    63   30   32 1    
    64   32   33 1    
    65   32   34 1    
    66   32  155 1    
    67   33  156 1    
    68   33  157 1    
    69   33  158 1    
    70   34   35 am   BACKBONE|DICT|INTERRES
    71   34  159 1    
    72   35   36 2    
    73   35   37 1    
    74   37   38 1    
    75   37   39 1    
    76   37  160 1    
    77   38  161 1    
    78   38  162 1    
    79   38  163 1    
    80   39   40 am   BACKBONE|DICT|INTERRES
    81   39  164 1    
    82   40   41 2    
    83   40   42 1    
    84   42   43 1    
    85   42   44 1    
    86   42  165 1    
    87   43  166 1    
    88   43  167 1    
    89   43  168 1    
    90   44   45 am   BACKBONE|DICT|INTERRES
    91   44  169 1    
    92   45   46 2    
    93   45   47 1    
    94   47   48 1    
    95   47   49 1    
    96   47  170 1    
    97   48  171 1    
    98   48  172 1    
    99   48  173 1    
   100   49   50 am   BACKBONE|DICT|INTERRES
   101   49  174 1    
   102   50   51 2    
   103   50   52 1    
   104   52   53 1    
   105   52   54 1    
   106   52  175 1    
   107   53  176 1    
   108   53  177 1    
   109   53  178 1    
   110   54   55 am   BACKBONE|DICT|INTERRES
   111   54  179 1    
   112   55   56 2    
   113   55   57 1    
   114   57   58 1    
   115   57   59 1    
   116   57  180 1    
   117   58  181 1    
   118   58  182 1    
   119   58  183 1    
   120   59   60 am   BACKBONE|DICT|INTERRES
   121   59  184 1    
   122   60   61 2    
   123   60   62 1    
   124   62   63 1    
   125   62   64 1    
   126   62  185 1    
   127   63  186 1    
   128   63  187 1    
   129   63  188 1    
   130   64   65 am   BACKBONE|DICT|INTERRES
   131   64  189 1    
   132   65   66 2    
   133   67   68 2    
   134   67   69 am   BACKBONE|DICT|INTERRES
   135   69   70 1    
   136   69  190 1    
   137   70   71 1    
   138   70   72 1    
   139   70  191 1    
   140   71  192 1    
   141   71  193 1    
   142   71  194 1    
   143   72   73 2    
   144   72   74 am   BACKBONE|DICT|INTERRES
   145   74   75 1    
   146   74  195 1    
   147   75   76 1    
   148   75   77 1    
   149   75  196 1    
   150   76  197 1    
   151   76  198 1    
   152   76  199 1    
   153   77   78 2    
   154   77   79 am   BACKBONE|DICT|INTERRES
   155   79   80 1    
   156   79  200 1    
   157   80   81 1    
   158   80   82 1    
   159   80  201 1    
   160   81  202 1    
   161   81  203 1    
   162   81  204 1    
   163   82   83 2    
   164   82   84 am   BACKBONE|DICT|INTERRES
   165   84   85 1    
   166   84  205 1    
   167   85   86 1    
   168   85   87 1    
   169   85  206 1    
   170   86  207 1    
   171   86  208 1    
   172   86  209 1    
   173   87   88 2    
   174   87   89 am   BACKBONE|DICT|INTERRES
   175   89   90 1    
   176   89  210 1    
   177   90   91 1    
   178   90   92 1    
   179   90  211 1    
   180   91  212 1    
   181   91  213 1    
   182   91  214 1    
   183   92   93 2    
   184   92   94 am   BACKBONE|DICT|INTERRES
   185   94   95 1    
   186   94  215 1    
   187   95   96 1    
   188   95   97 1    
   189   95  216 1    
   190   96  217 1    
   191   96  218 1    
   192   96  219 1    
   193   97   98 2    
   194   97   99 am   BACKBONE|DICT|INTERRES
   195   99  100 1    
   196   99  220 1    
   197  100  101 1    
   198  100  102 1    
   199  100  221 1    
   200  101  222 1    
   201  101  223 1    
   202  101  224 1    
   203  102  103 2    
   204  102  104 am   BACKBONE|DICT|INTERRES
   205  104  105 1    
   206  104  225 1    
   207  105  106 1    
   208  105  107 1    
   209  105  226 1    
   210  106  227 1    
   211  106  228 1    
   212  106  229 1    
   213  107  108 2    
   214  107  109 am   BACKBONE|DICT|INTERRES
   215  109  110 1    
   216  109  230 1    
   217  110  111 1    
   218  110  112 1    
   219  110  231 1    
   220  111  232 1    
   221  111  233 1    
   222  111  234 1    
   223  112  113 2    
   224  112  114 am   BACKBONE|DICT|INTERRES
   225  114  115 1    
   226  114  235 1    
   227  115  116 1    
   228  115  117 1    
   229  115  236 1    
   230  116  237 1    
   231  116  238 1    
   232  116  239 1    
   233  117  118 2    
   234  117  119 am   BACKBONE|DICT|INTERRES
   235  119  120 1    
   236  119  240 1    
   237  120  121 1    
   238  120  124 1    
   239  120  241 1    
   240  121  122 am   BACKBONE|DICT|INTERRES
   241  121  123 2    
   242  122  242 1    
   243  122  243 1    
   244  124  125 1    
   245  124  244 1    
   246  124  245 1    
   247  125  126 1    
   248  126  246 1    
   249  126  247 1    
@<TRIPOS>SUBSTRUCTURE
     1 UNK         1 GROUP             0       ****    0 ROOT    
