@<TRIPOS>MOLECULE
3R540
247   249    1
SMALL
USER_CHARGES


@<TRIPOS>ATOM
      1 CA          4.2346  -10.7258  -49.6214 C.3       0 UNK        -0.1800 
      2 C           4.3292  -12.0066  -48.8062 C.2       0 UNK         0.5000 
      3 O           3.3411  -12.4219  -48.2055 O.2       0 UNK        -0.5000 
      4 N           5.5168  -12.6244  -48.7668 N.am      1 UNK        -0.5000 
      5 CA          5.8681  -13.8805  -48.0803 C.3       1 UNK         0.1400 
      6 C6          5.0351  -15.1118  -48.5287 C.3       23 UNK        -0.0398 
      7 S7          5.3134  -15.5072  -50.2889 S.3       23 UNK        -0.2404 
      8 C8          3.6831  -15.1463  -51.0290 C.3       23 UNK        -0.0205 
      9 C9          2.5798  -16.1449  -50.6784 C.ar      23 UNK        -0.0193 
     10 C10         1.2565  -15.6996  -50.6111 C.ar      23 UNK        -0.1150 
     11 C11         0.2157  -16.5859  -50.3181 C.ar      23 UNK        -0.0193 
     12 C12         0.5021  -17.9363  -50.1020 C.ar      23 UNK        -0.1150 
     13 C13         1.8202  -18.4000  -50.1643 C.ar      23 UNK        -0.0193 
     14 C14         2.8497  -17.5015  -50.4608 C.ar      23 UNK        -0.1150 
     15 C15         2.1434  -19.8681  -49.9215 C.3       23 UNK        -0.0205 
     16 S16         1.8304  -20.3569  -48.1937 S.3       23 UNK        -0.2404 
     17 C17         0.1206  -20.9869  -48.2895 C.3       23 UNK        -0.0398 
     18 CA         -0.0122  -22.3519  -47.5754 C.3       11 UNK         0.1400 
     19 N          -0.0180  -22.2172  -46.1190 N.am      11 UNK        -0.5000 
     20 C          -0.0117  -23.2336  -45.2465 C.2       10 UNK         0.5000 
     21 O           0.0552  -24.4193  -45.5684 O.2       10 UNK        -0.5000 
     22 CA         -0.1681  -22.8604  -43.7642 C.3       10 UNK         0.1400 
     23 CB          1.1651  -22.3812  -43.1700 C.3       10 UNK        -0.1800 
     24 N          -1.1937  -21.8354  -43.5726 N.am      10 UNK        -0.5000 
     25 C          -2.5054  -22.0341  -43.7639 C.2       9 UNK         0.5000 
     26 O          -2.9952  -23.1148  -44.0933 O.2       9 UNK        -0.5000 
     27 CA         -3.4174  -20.8069  -43.5904 C.3       9 UNK         0.1400 
     28 CB         -3.7281  -20.5650  -42.1057 C.3       9 UNK        -0.1800 
     29 N          -2.8482  -19.5907  -44.1737 N.am      9 UNK        -0.5000 
     30 C          -2.6730  -19.4009  -45.4883 C.2       8 UNK         0.5000 
     31 O          -2.9560  -20.2355  -46.3468 O.2       8 UNK        -0.5000 
     32 CA         -2.0548  -18.0614  -45.9194 C.3       8 UNK         0.1400 
     33 CB         -3.1116  -16.9492  -45.8780 C.3       8 UNK        -0.1800 
     34 N          -0.8883  -17.6353  -45.1447 N.am      8 UNK        -0.5000 
     35 C           0.2168  -18.3583  -44.8998 C.2       7 UNK         0.5000 
     36 O           0.3106  -19.5630  -45.1339 O.2       7 UNK        -0.5000 
     37 CA          1.4162  -17.5991  -44.2880 C.3       7 UNK         0.1400 
     38 CB          2.7708  -18.2740  -44.5885 C.3       7 UNK        -0.1800 
     39 N           1.4344  -16.1820  -44.6703 N.am      7 UNK        -0.5000 
     40 C           1.5199  -15.6739  -45.9107 C.2       6 UNK         0.5000 
     41 O           1.7862  -16.3457  -46.9052 O.2       6 UNK        -0.5000 
     42 CA          1.2483  -14.1621  -46.0750 C.3       6 UNK         0.1400 
     43 CB          0.3317  -13.8771  -47.2810 C.3       6 UNK        -0.1800 
     44 N           0.7331  -13.4747  -44.8829 N.am      6 UNK        -0.5000 
     45 C          -0.4073  -13.7076  -44.2168 C.2       5 UNK         0.5000 
     46 O          -1.1599  -14.6552  -44.4439 O.2       5 UNK        -0.5000 
     47 CA         -0.7465  -12.7131  -43.0940 C.3       5 UNK         0.1400 
     48 CB         -0.0275  -13.0985  -41.7920 C.3       5 UNK        -0.1800 
     49 N          -0.3967  -11.3383  -43.4599 N.am      5 UNK        -0.5000 
     50 C          -1.1160  -10.5823  -44.3030 C.2       4 UNK         0.5000 
     51 O          -2.1719  -10.9534  -44.8172 O.2       4 UNK        -0.5000 
     52 CA         -0.5867   -9.1700  -44.6214 C.3       4 UNK         0.1400 
     53 CB         -1.2797   -8.1255  -43.7326 C.3       4 UNK        -0.1800 
     54 N           0.8624   -9.0373  -44.4645 N.am      4 UNK        -0.5000 
     55 C           1.7719   -9.5441  -45.3074 C.2       3 UNK         0.5000 
     56 O           1.4776  -10.1737  -46.3239 O.2       3 UNK        -0.5000 
     57 CA          3.2626   -9.3129  -44.9681 C.3       3 UNK         0.1400 
     58 CB          3.5000   -8.5756  -43.6301 C.3       3 UNK        -0.1800 
     59 N           4.0453  -10.5534  -44.9979 N.am      3 UNK        -0.5000 
     60 C           3.7952  -11.6769  -44.3105 C.2       2 UNK         0.5000 
     61 O           2.8107  -11.8354  -43.5852 O.2       2 UNK        -0.5000 
     62 CA          4.7988  -12.8218  -44.5147 C.3       2 UNK         0.1400 
     63 CB          4.4394  -14.0937  -43.7197 C.3       2 UNK        -0.1800 
     64 N           4.9072  -13.1075  -45.9435 N.am      2 UNK        -0.5000 
     65 C           5.9121  -13.7548  -46.5408 C.2       1 UNK         0.5000 
     66 O           6.8740  -14.2222  -45.9296 O.2       1 UNK        -0.5000 
     67 C          -1.2438  -23.1252  -48.0777 C.2       11 UNK         0.5000 
     68 O          -1.0759  -24.0781  -48.8361 O.2       11 UNK        -0.5000 
     69 N          -2.4480  -22.7403  -47.6287 N.am      12 UNK        -0.5000 
     70 CA         -3.7032  -23.4118  -47.9716 C.3       12 UNK         0.1400 
     71 CB         -4.8940  -22.6259  -47.4057 C.3       12 UNK        -0.1800 
     72 C          -3.7429  -24.8814  -47.5184 C.2       12 UNK         0.5000 
     73 O          -4.1994  -25.7298  -48.2841 O.2       12 UNK        -0.5000 
     74 N          -3.2278  -25.1662  -46.3145 N.am      13 UNK        -0.5000 
     75 CA         -3.0851  -26.5230  -45.7873 C.3       13 UNK         0.1400 
     76 CB         -2.6771  -26.4659  -44.3072 C.3       13 UNK        -0.1800 
     77 C          -2.0934  -27.3729  -46.6040 C.2       13 UNK         0.5000 
     78 O          -2.4313  -28.4928  -46.9893 O.2       13 UNK        -0.5000 
     79 N          -0.9034  -26.8189  -46.8765 N.am      14 UNK        -0.5000 
     80 CA          0.1690  -27.4726  -47.6304 C.3       14 UNK         0.1400 
     81 CB          1.4486  -26.6281  -47.5331 C.3       14 UNK        -0.1800 
     82 C          -0.1905  -27.7350  -49.1040 C.2       14 UNK         0.5000 
     83 O           0.1373  -28.7989  -49.6304 O.2       14 UNK        -0.5000 
     84 N          -0.8679  -26.7695  -49.7369 N.am      15 UNK        -0.5000 
     85 CA         -1.2957  -26.8243  -51.1351 C.3       15 UNK         0.1400 
     86 CB         -1.4375  -25.3870  -51.6581 C.3       15 UNK        -0.1800 
     87 C          -2.6054  -27.6082  -51.3513 C.2       15 UNK         0.5000 
     88 O          -3.0378  -27.7289  -52.4972 O.2       15 UNK        -0.5000 
     89 N          -3.2307  -28.0970  -50.2690 N.am      16 UNK        -0.5000 
     90 CA         -4.5042  -28.8261  -50.2397 C.3       16 UNK         0.1400 
     91 CB         -4.3577  -30.2120  -50.9017 C.3       16 UNK        -0.1800 
     92 C          -5.6638  -27.9902  -50.8221 C.2       16 UNK         0.5000 
     93 O          -6.3863  -28.4453  -51.7100 O.2       16 UNK        -0.5000 
     94 N          -5.7810  -26.7572  -50.3130 N.am      17 UNK        -0.5000 
     95 CA         -6.7546  -25.7123  -50.6400 C.3       17 UNK         0.1400 
     96 CB         -8.2047  -26.2016  -50.4514 C.3       17 UNK        -0.1800 
     97 C          -6.5448  -25.0259  -52.0043 C.2       17 UNK         0.5000 
     98 O          -7.3041  -24.1129  -52.3257 O.2       17 UNK        -0.5000 
     99 N          -5.5090  -25.3996  -52.7707 N.am      18 UNK        -0.5000 
    100 CA        -5.1858  -24.7609  -54.0533 C.3       18 UNK         0.1400 
    101 CB        -4.1879  -25.6302  -54.8308 C.3       18 UNK        -0.1800 
    102 C         -4.6577  -23.3186  -53.8986 C.2       18 UNK         0.5000 
    103 O         -4.8467  -22.5036  -54.8017 O.2       18 UNK        -0.5000 
    104 N         -4.0374  -23.0213  -52.7477 N.am      19 UNK        -0.5000 
    105 CA        -3.5290  -21.6955  -52.3838 C.3       19 UNK         0.1400 
    106 CB        -2.2262  -21.8542  -51.5852 C.3       19 UNK        -0.1800 
    107 C         -4.5548  -20.8511  -51.6006 C.2       19 UNK         0.5000 
    108 O         -4.2343  -19.7257  -51.2142 O.2       19 UNK        -0.5000 
    109 N         -5.7796  -21.3641  -51.3939 N.am      20 UNK        -0.5000 
    110 CA        -6.8698  -20.6770  -50.6838 C.3       20 UNK         0.1400 
    111 CB        -8.0075  -21.6688  -50.3998 C.3       20 UNK        -0.1800 
    112 C         -7.4037  -19.4168  -51.4019 C.2       20 UNK         0.5000 
    113 O         -8.1872  -18.6715  -50.8132 O.2       20 UNK        -0.5000 
    114 N         -6.9420  -19.1770  -52.6385 N.am      21 UNK        -0.5000 
    115 CA        -7.1010  -17.9297  -53.3871 C.3       21 UNK         0.1400 
    116 CB        -6.5270  -18.1229  -54.7989 C.3       21 UNK        -0.1800 
    117 C         -6.4440  -16.7134  -52.6982 C.2       21 UNK         0.5000 
    118 O         -6.8914  -15.5882  -52.9256 O.2       21 UNK        -0.5000 
    119 N         -5.4304  -16.9535  -51.8542 N.am      22 UNK        -0.5000 
    120 CA        -4.8598  -15.9561  -50.9373 C.3       22 UNK         0.1400 
    121 C         -4.6723  -16.4762  -49.4860 C.2       22 UNK         0.5000 
    122 N         -4.5572  -17.7773  -49.2426 N.am      22 UNK        -0.7600 
    123 O         -4.6556  -15.6769  -48.5552 O.2       22 UNK        -0.5000 
    124 C124       -3.5860  -15.2717  -51.4960 C.3       23 UNK        -0.0398 
    125 S125       -2.1511  -16.3791  -51.7458 S.3       23 UNK        -0.2404 
    126 C126       -1.2126  -16.0766  -50.2135 C.3       23 UNK        -0.0205 
    127 H127        5.1937  -10.4519  -50.0614 H         1 UNK         0.0600 
    128 H128        3.9021   -9.9036  -48.9875 H         1 UNK         0.0600 
    129 H129        3.5118  -10.8494  -50.4277 H         1 UNK         0.0600 
    130 H130        6.2856  -12.2033  -49.2695 H         1 UNK         0.3000 
    131 H131        6.9003  -14.0743  -48.3775 H         1 UNK         0.0600 
    132 H132        5.3211  -15.9955  -47.9553 H         1 UNK         0.0800 
    133 H133        3.9709  -14.9670  -48.3367 H         1 UNK         0.0800 
    134 H134        3.7945  -15.1331  -52.1137 H         1 UNK         0.0800 
    135 H135        3.3856  -14.1378  -50.7385 H         1 UNK         0.0800 
    136 H136        1.0344  -14.6558  -50.7837 H         1 UNK         0.1150 
    137 H137       -0.3021  -18.6216  -49.8771 H         1 UNK         0.1150 
    138 H138        3.8651  -17.8647  -50.5225 H         1 UNK         0.1150 
    139 H139        1.5821  -20.4923  -50.6173 H         1 UNK         0.0800 
    140 H140        3.1955  -20.0612  -50.1363 H         1 UNK         0.0800 
    141 H141       -0.5540  -20.2496  -47.8526 H         1 UNK         0.0800 
    142 H142       -0.1669  -21.0730  -49.3382 H         1 UNK         0.0800 
    143 H143        0.8563  -22.9606  -47.8370 H         1 UNK         0.0600 
    144 H144       -0.0233  -21.2658  -45.7562 H         1 UNK         0.3000 
    145 H145       -0.4777  -23.7575  -43.2238 H         1 UNK         0.0600 
    146 H146        1.0673  -22.1643  -42.1062 H         1 UNK         0.0600 
    147 H147        1.9346  -23.1467  -43.2765 H         1 UNK         0.0600 
    148 H148        1.5299  -21.4804  -43.6640 H         1 UNK         0.0600 
    149 H149       -0.8691  -20.8993  -43.3793 H         1 UNK         0.3000 
    150 H150       -4.3579  -21.0195  -44.1033 H         1 UNK         0.0600 
    151 H151       -4.1681  -21.4530  -41.6499 H         1 UNK         0.0600 
    152 H152       -4.4408  -19.7497  -41.9801 H         1 UNK         0.0600 
    153 H153       -2.8296  -20.3162  -41.5396 H         1 UNK         0.0600 
    154 H154       -2.5765  -18.8554  -43.5378 H         1 UNK         0.3000 
    155 H155       -1.7261  -18.1762  -46.9542 H         1 UNK         0.0600 
    156 H156       -2.7564  -16.0516  -46.3851 H         1 UNK         0.0600 
    157 H157       -3.3672  -16.6740  -44.8541 H         1 UNK         0.0600 
    158 H158       -4.0338  -17.2570  -46.3709 H         1 UNK         0.0600 
    159 H159       -0.8734  -16.6518  -44.8942 H         1 UNK         0.3000 
    160 H160        1.2693  -17.6218  -43.2075 H         1 UNK         0.0600 
    161 H161        2.9409  -18.3826  -45.6602 H         1 UNK         0.0600 
    162 H162        2.8143  -19.2723  -44.1521 H         1 UNK         0.0600 
    163 H163        3.5992  -17.7008  -44.1725 H         1 UNK         0.0600 
    164 H164        1.2071  -15.5324  -43.9317 H         1 UNK         0.3000 
    165 H165        2.2155  -13.7092  -46.2799 H         1 UNK         0.0600 
    166 H166       -0.6368  -14.3681  -47.1801 H         1 UNK         0.0600 
    167 H167        0.1598  -12.8070  -47.3990 H         1 UNK         0.0600 
    168 H168        0.7865  -14.2310  -48.2058 H         1 UNK         0.0600 
    169 H169        1.3055  -12.7047  -44.5508 H         1 UNK         0.3000 
    170 H170       -1.8224  -12.7667  -42.9138 H         1 UNK         0.0600 
    171 H171       -0.2922  -14.1115  -41.4860 H         1 UNK         0.0600 
    172 H172        1.0570  -13.0610  -41.8993 H         1 UNK         0.0600 
    173 H173       -0.3061  -12.4306  -40.9767 H         1 UNK         0.0600 
    174 H174        0.4808  -10.9797  -43.1093 H         1 UNK         0.3000 
    175 H175       -0.8406   -8.9522  -45.6611 H         1 UNK         0.0600 
    176 H176       -1.0526   -8.2804  -42.6770 H         1 UNK         0.0600 
    177 H177       -0.9719   -7.1140  -43.9984 H         1 UNK         0.0600 
    178 H178       -2.3636   -8.1736  -43.8454 H         1 UNK         0.0600 
    179 H179        1.1855   -8.5362  -43.6498 H         1 UNK         0.3000 
    180 H180        3.6561   -8.6820  -45.7663 H         1 UNK         0.0600 
    181 H181        3.1167   -9.1384  -42.7778 H         1 UNK         0.0600 
    182 H182        3.0269   -7.5929  -43.6268 H         1 UNK         0.0600 
    183 H183        4.5646   -8.4125  -43.4615 H         1 UNK         0.0600 
    184 H184        4.8544  -10.5402  -45.6023 H         1 UNK         0.3000 
    185 H185        5.7645  -12.4587  -44.1573 H         1 UNK         0.0600 
    186 H186        5.1904  -14.8733  -43.8443 H         1 UNK         0.0600 
    187 H187        3.4809  -14.5019  -44.0300 H         1 UNK         0.0600 
    188 H188        4.3730  -13.8798  -42.6523 H         1 UNK         0.0600 
    189 H189        4.1699  -12.7372  -46.5406 H         1 UNK         0.3000 
    190 H190       -2.5226  -21.9215  -47.0290 H         1 UNK         0.3000 
    191 H191       -3.7936  -23.4098  -49.0591 H         1 UNK         0.0600 
    192 H192       -4.9301  -21.6176  -47.8191 H         1 UNK         0.0600 
    193 H193       -5.8386  -23.1117  -47.6535 H         1 UNK         0.0600 
    194 H194       -4.8393  -22.5412  -46.3198 H         1 UNK         0.0600 
    195 H195       -2.9044  -24.4082  -45.7230 H         1 UNK         0.3000 
    196 H196       -4.0620  -27.0075  -45.8463 H         1 UNK         0.0600 
    197 H197       -2.5747  -27.4688  -43.8909 H         1 UNK         0.0600 
    198 H198       -3.4264  -25.9421  -43.7134 H         1 UNK         0.0600 
    199 H199       -1.7252  -25.9532  -44.1683 H         1 UNK         0.0600 
    200 H200       -0.6942  -25.8949  -46.5058 H         1 UNK         0.3000 
    201 H201        0.3644  -28.4389  -47.1611 H         1 UNK         0.0600 
    202 H202        1.7680  -26.5154  -46.4969 H         1 UNK         0.0600 
    203 H203        1.3027  -25.6297  -47.9478 H         1 UNK         0.0600 
    204 H204        2.2699  -27.0952  -48.0779 H         1 UNK         0.0600 
    205 H205       -1.0545  -25.8970  -49.2463 H         1 UNK         0.3000 
    206 H206       -0.5194  -27.3206  -51.7211 H         1 UNK         0.0600 
    207 H207       -0.5279  -24.8116  -51.4848 H         1 UNK         0.0600 
    208 H208       -1.6229  -25.3720  -52.7311 H         1 UNK         0.0600 
    209 H209       -2.2614  -24.8679  -51.1686 H         1 UNK         0.0600 
    210 H210       -2.8105  -27.9174  -49.3665 H         1 UNK         0.3000 
    211 H211       -4.7401  -28.9880  -49.1867 H         1 UNK         0.0600 
    212 H212       -4.1538  -30.1347  -51.9700 H         1 UNK         0.0600 
    213 H213       -5.2706  -30.7971  -50.7854 H         1 UNK         0.0600 
    214 H214       -3.5473  -30.7811  -50.4462 H         1 UNK         0.0600 
    215 H215       -5.1141  -26.4874  -49.5888 H         1 UNK         0.3000 
    216 H216       -6.5850  -24.9312  -49.8976 H         1 UNK         0.0600 
    217 H217       -8.3431  -26.6589  -49.4717 H         1 UNK         0.0600 
    218 H218       -8.4909  -26.9317  -51.2085 H         1 UNK         0.0600 
    219 H219       -8.9083  -25.3711  -50.5220 H         1 UNK         0.0600 
    220 H220       -4.9314  -26.1777  -52.4808 H         1 UNK         0.3000 
    221 H221       -6.1043  -24.7079  -54.6419 H         1 UNK         0.0600 
    222 H222       -3.2293  -25.7028  -54.3200 H         1 UNK         0.0600 
    223 H223       -4.5699  -26.6417  -54.9702 H         1 UNK         0.0600 
    224 H224       -3.9986  -25.2143  -55.8211 H         1 UNK         0.0600 
    225 H225       -3.9363  -23.7520  -52.0601 H         1 UNK         0.3000 
    226 H226       -3.2903  -21.1355  -53.2902 H         1 UNK         0.0600 
    227 H227       -1.4753  -22.3972  -52.1590 H         1 UNK         0.0600 
    228 H228       -1.7974  -20.8835  -51.3324 H         1 UNK         0.0600 
    229 H229       -2.3917  -22.3920  -50.6544 H         1 UNK         0.0600 
    230 H230       -6.0038  -22.2695  -51.7846 H         1 UNK         0.3000 
    231 H231       -6.4726  -20.3446  -49.7224 H         1 UNK         0.0600 
    232 H232       -8.7738  -21.2134  -49.7714 H         1 UNK         0.0600 
    233 H233       -7.6439  -22.5522  -49.8752 H         1 UNK         0.0600 
    234 H234       -8.4941  -21.9940  -51.3196 H         1 UNK         0.0600 
    235 H235       -6.3236  -19.8633  -53.0439 H         1 UNK         0.3000 
    236 H236       -8.1699  -17.7240  -53.4722 H         1 UNK         0.0600 
    237 H237       -7.0321  -18.9341  -55.3236 H         1 UNK         0.0600 
    238 H238       -6.6535  -17.2206  -55.3988 H         1 UNK         0.0600 
    239 H239       -5.4608  -18.3522  -54.7713 H         1 UNK         0.0600 
    240 H240       -5.1015  -17.9034  -51.7340 H         1 UNK         0.3000 
    241 H241       -5.5993  -15.1609  -50.8221 H         1 UNK         0.0600 
    242 H242       -4.4650  -18.0850  -48.2901 H         1 UNK         0.3800 
    243 H243       -4.4614  -18.4588  -49.9920 H         1 UNK         0.3800 
    244 H244       -3.8207  -14.8204  -52.4608 H         1 UNK         0.0800 
    245 H245       -3.2981  -14.4370  -50.8552 H         1 UNK         0.0800 
    246 H246       -1.7131  -16.5631  -49.3752 H         1 UNK         0.0800 
    247 H247       -1.2054  -15.0094  -49.9875 H         1 UNK         0.0800 
@<TRIPOS>BOND
     1    1    2 1    
     2    1  127 1    
     3    1  128 1    
     4    1  129 1    
     5    2    3 2    
     6    2    4 am   BACKBONE|DICT|INTERRES
     7    4    5 1    
     8    4  130 1    
     9    5    6 1    
    10    5   65 1    
    11    5  131 1    
    12    6    7 1    
    13    6  132 1    
    14    6  133 1    
    15    7    8 1    
    16    8    9 1    
    17    8  134 1    
    18    8  135 1    
    19    9   10 ar   
    20    9   14 ar   
    21   10   11 ar   
    22   10  136 1    
    23   11   12 ar   
    24   11  126 1    
    25   12   13 ar   
    26   12  137 1    
    27   13   14 ar   
    28   13   15 1    
    29   14  138 1    
    30   15   16 1    
    31   15  139 1    
    32   15  140 1    
    33   16   17 1    
    34   17   18 1    
    35   17  141 1    
    36   17  142 1    
    37   18   19 1    
    38   18   67 1    
    39   18  143 1    
    40   19   20 am   BACKBONE|DICT|INTERRES
    41   19  144 1    
    42   20   21 2    
    43   20   22 1    
    44   22   23 1    
    45   22   24 1    
    46   22  145 1    
    47   23  146 1    
    48   23  147 1    
    49   23  148 1    
    50   24   25 am   BACKBONE|DICT|INTERRES
    51   24  149 1    
    52   25   26 2    
    53   25   27 1    
    54   27   28 1    
    55   27   29 1    
    56   27  150 1    
    57   28  151 1    
    58   28  152 1    
    59   28  153 1    
    60   29   30 am   BACKBONE|DICT|INTERRES
    61   29  154 1    
    62   30   31 2    
    63   30   32 1    
    64   32   33 1    
    65   32   34 1    
    66   32  155 1    
    67   33  156 1    
    68   33  157 1    
    69   33  158 1    
    70   34   35 am   BACKBONE|DICT|INTERRES
    71   34  159 1    
    72   35   36 2    
    73   35   37 1    
    74   37   38 1    
    75   37   39 1    
    76   37  160 1    
    77   38  161 1    
    78   38  162 1    
    79   38  163 1    
    80   39   40 am   BACKBONE|DICT|INTERRES
    81   39  164 1    
    82   40   41 2    
    83   40   42 1    
    84   42   43 1    
    85   42   44 1    
    86   42  165 1    
    87   43  166 1    
    88   43  167 1    
    89   43  168 1    
    90   44   45 am   BACKBONE|DICT|INTERRES
    91   44  169 1    
    92   45   46 2    
    93   45   47 1    
    94   47   48 1    
    95   47   49 1    
    96   47  170 1    
    97   48  171 1    
    98   48  172 1    
    99   48  173 1    
   100   49   50 am   BACKBONE|DICT|INTERRES
   101   49  174 1    
   102   50   51 2    
   103   50   52 1    
   104   52   53 1    
   105   52   54 1    
   106   52  175 1    
   107   53  176 1    
   108   53  177 1    
   109   53  178 1    
   110   54   55 am   BACKBONE|DICT|INTERRES
   111   54  179 1    
   112   55   56 2    
   113   55   57 1    
   114   57   58 1    
   115   57   59 1    
   116   57  180 1    
   117   58  181 1    
   118   58  182 1    
   119   58  183 1    
   120   59   60 am   BACKBONE|DICT|INTERRES
   121   59  184 1    
   122   60   61 2    
   123   60   62 1    
   124   62   63 1    
   125   62   64 1    
   126   62  185 1    
   127   63  186 1    
   128   63  187 1    
   129   63  188 1    
   130   64   65 am   BACKBONE|DICT|INTERRES
   131   64  189 1    
   132   65   66 2    
   133   67   68 2    
   134   67   69 am   BACKBONE|DICT|INTERRES
   135   69   70 1    
   136   69  190 1    
   137   70   71 1    
   138   70   72 1    
   139   70  191 1    
   140   71  192 1    
   141   71  193 1    
   142   71  194 1    
   143   72   73 2    
   144   72   74 am   BACKBONE|DICT|INTERRES
   145   74   75 1    
   146   74  195 1    
   147   75   76 1    
   148   75   77 1    
   149   75  196 1    
   150   76  197 1    
   151   76  198 1    
   152   76  199 1    
   153   77   78 2    
   154   77   79 am   BACKBONE|DICT|INTERRES
   155   79   80 1    
   156   79  200 1    
   157   80   81 1    
   158   80   82 1    
   159   80  201 1    
   160   81  202 1    
   161   81  203 1    
   162   81  204 1    
   163   82   83 2    
   164   82   84 am   BACKBONE|DICT|INTERRES
   165   84   85 1    
   166   84  205 1    
   167   85   86 1    
   168   85   87 1    
   169   85  206 1    
   170   86  207 1    
   171   86  208 1    
   172   86  209 1    
   173   87   88 2    
   174   87   89 am   BACKBONE|DICT|INTERRES
   175   89   90 1    
   176   89  210 1    
   177   90   91 1    
   178   90   92 1    
   179   90  211 1    
   180   91  212 1    
   181   91  213 1    
   182   91  214 1    
   183   92   93 2    
   184   92   94 am   BACKBONE|DICT|INTERRES
   185   94   95 1    
   186   94  215 1    
   187   95   96 1    
   188   95   97 1    
   189   95  216 1    
   190   96  217 1    
   191   96  218 1    
   192   96  219 1    
   193   97   98 2    
   194   97   99 am   BACKBONE|DICT|INTERRES
   195   99  100 1    
   196   99  220 1    
   197  100  101 1    
   198  100  102 1    
   199  100  221 1    
   200  101  222 1    
   201  101  223 1    
   202  101  224 1    
   203  102  103 2    
   204  102  104 am   BACKBONE|DICT|INTERRES
   205  104  105 1    
   206  104  225 1    
   207  105  106 1    
   208  105  107 1    
   209  105  226 1    
   210  106  227 1    
   211  106  228 1    
   212  106  229 1    
   213  107  108 2    
   214  107  109 am   BACKBONE|DICT|INTERRES
   215  109  110 1    
   216  109  230 1    
   217  110  111 1    
   218  110  112 1    
   219  110  231 1    
   220  111  232 1    
   221  111  233 1    
   222  111  234 1    
   223  112  113 2    
   224  112  114 am   BACKBONE|DICT|INTERRES
   225  114  115 1    
   226  114  235 1    
   227  115  116 1    
   228  115  117 1    
   229  115  236 1    
   230  116  237 1    
   231  116  238 1    
   232  116  239 1    
   233  117  118 2    
   234  117  119 am   BACKBONE|DICT|INTERRES
   235  119  120 1    
   236  119  240 1    
   237  120  121 1    
   238  120  124 1    
   239  120  241 1    
   240  121  122 am   BACKBONE|DICT|INTERRES
   241  121  123 2    
   242  122  242 1    
   243  122  243 1    
   244  124  125 1    
   245  124  244 1    
   246  124  245 1    
   247  125  126 1    
   248  126  246 1    
   249  126  247 1    
@<TRIPOS>SUBSTRUCTURE
     1 UNK         1 GROUP             0       ****    0 ROOT    
