@<TRIPOS>MOLECULE
3R540
247   249    1
SMALL
USER_CHARGES


@<TRIPOS>ATOM
      1 CA          0.7926  -11.0904  -42.8521 C.3       0 UNK        -0.1800 
      2 C           0.3475  -10.7295  -44.2628 C.2       0 UNK         0.5000 
      3 O           0.6377   -9.6306  -44.7366 O.2       0 UNK        -0.5000 
      4 N          -0.3623  -11.6482  -44.9290 N.am      1 UNK        -0.5000 
      5 CA         -0.8102  -11.5244  -46.3190 C.3       1 UNK         0.1400 
      6 C6         -1.8584  -12.6155  -46.6592 C.3       23 UNK        -0.0398 
      7 S7         -2.8963  -12.1753  -48.0957 S.3       23 UNK        -0.2404 
      8 C8         -4.3809  -13.1881  -47.8037 C.3       23 UNK        -0.0205 
      9 C9         -4.1731  -14.6314  -48.2370 C.ar      23 UNK        -0.0193 
     10 C10        -4.5451  -15.0385  -49.5210 C.ar      23 UNK        -0.1150 
     11 C11        -4.3694  -16.3653  -49.9236 C.ar      23 UNK        -0.0193 
     12 C12        -3.7971  -17.2823  -49.0398 C.ar      23 UNK        -0.1150 
     13 C13        -3.4283  -16.8920  -47.7478 C.ar      23 UNK        -0.0193 
     14 C14        -3.6253  -15.5647  -47.3530 C.ar      23 UNK        -0.1150 
     15 C15        -2.7976  -17.8825  -46.7779 C.3       23 UNK        -0.0205 
     16 S16        -3.6895  -19.4706  -46.6980 S.3       23 UNK        -0.2404 
     17 C17        -2.8875  -20.2526  -45.2612 C.3       23 UNK        -0.0398 
     18 CA         -2.0408  -21.4988  -45.6256 C.3       11 UNK         0.1400 
     19 N          -0.9714  -21.6818  -44.6398 N.am      11 UNK        -0.5000 
     20 C          -0.1427  -22.7179  -44.4592 C.2       10 UNK         0.5000 
     21 O          -0.1673  -23.7455  -45.1321 O.2       10 UNK        -0.5000 
     22 CA          0.8749  -22.5932  -43.3077 C.3       10 UNK         0.1400 
     23 CB          2.2618  -22.2200  -43.8513 C.3       10 UNK        -0.1800 
     24 N           0.4845  -21.6220  -42.2802 N.am      10 UNK        -0.5000 
     25 C          -0.5750  -21.7465  -41.4663 C.2       9 UNK         0.5000 
     26 O          -1.3413  -22.7119  -41.4990 O.2       9 UNK        -0.5000 
     27 CA         -0.8292  -20.5894  -40.4733 C.3       9 UNK         0.1400 
     28 CB         -1.7291  -21.0007  -39.2895 C.3       9 UNK        -0.1800 
     29 N           0.3991  -19.9482  -39.9909 N.am      9 UNK        -0.5000 
     30 C           1.4200  -20.5266  -39.3366 C.2       8 UNK         0.5000 
     31 O           1.4266  -21.7102  -38.9949 O.2       8 UNK        -0.5000 
     32 CA          2.6374  -19.6348  -38.9952 C.3       8 UNK         0.1400 
     33 CB          3.9739  -20.3889  -39.1602 C.3       8 UNK        -0.1800 
     34 N           2.6761  -18.3513  -39.7122 N.am      8 UNK        -0.5000 
     35 C           2.7678  -18.1635  -41.0362 C.2       7 UNK         0.5000 
     36 O           2.8430  -19.0756  -41.8627 O.2       7 UNK        -0.5000 
     37 CA          2.7324  -16.7007  -41.5144 C.3       7 UNK         0.1400 
     38 CB          4.1103  -16.2622  -42.0315 C.3       7 UNK        -0.1800 
     39 N           1.7373  -16.5213  -42.5692 N.am      7 UNK        -0.5000 
     40 C           0.4128  -16.6629  -42.4004 C.2       6 UNK         0.5000 
     41 O          -0.1169  -16.8714  -41.3077 O.2       6 UNK        -0.5000 
     42 CA         -0.4671  -16.5947  -43.6674 C.3       6 UNK         0.1400 
     43 CB         -0.9284  -15.1529  -43.9237 C.3       6 UNK        -0.1800 
     44 N           0.2194  -17.0905  -44.8609 N.am      6 UNK        -0.5000 
     45 C           0.6810  -18.3396  -45.0057 C.2       5 UNK         0.5000 
     46 O           0.3916  -19.2481  -44.2295 O.2       5 UNK        -0.5000 
     47 CA          1.6401  -18.6192  -46.1833 C.3       5 UNK         0.1400 
     48 CB          1.0461  -19.6500  -47.1555 C.3       5 UNK        -0.1800 
     49 N           2.0517  -17.4250  -46.9327 N.am      5 UNK        -0.5000 
     50 C           2.8155  -16.4324  -46.4575 C.2       4 UNK         0.5000 
     51 O           3.2065  -16.3842  -45.2911 O.2       4 UNK        -0.5000 
     52 CA          3.1682  -15.2758  -47.4105 C.3       4 UNK         0.1400 
     53 CB          4.4656  -15.5717  -48.1856 C.3       4 UNK        -0.1800 
     54 N           2.0878  -14.8503  -48.3111 N.am      4 UNK        -0.5000 
     55 C           1.5530  -15.4871  -49.3659 C.2       3 UNK         0.5000 
     56 O           1.8361  -16.6452  -49.6726 O.2       3 UNK        -0.5000 
     57 CA          0.5147  -14.7193  -50.2172 C.3       3 UNK         0.1400 
     58 CB         -0.8868  -15.3109  -50.0165 C.3       3 UNK        -0.1800 
     59 N           0.4447  -13.2881  -49.9225 N.am      3 UNK        -0.5000 
     60 C           1.3944  -12.3786  -50.1832 C.2       2 UNK         0.5000 
     61 O           2.4142  -12.6209  -50.8287 O.2       2 UNK        -0.5000 
     62 CA          1.1875  -10.9710  -49.5811 C.3       2 UNK         0.1400 
     63 CB          0.7126   -9.9885  -50.6623 C.3       2 UNK        -0.1800 
     64 N           0.2398  -10.9360  -48.4589 N.am      2 UNK        -0.5000 
     65 C           0.3841  -11.5880  -47.2963 C.2       1 UNK         0.5000 
     66 O           1.3669  -12.2825  -47.0230 O.2       1 UNK        -0.5000 
     67 C          -2.9449  -22.7344  -45.8275 C.2       11 UNK         0.5000 
     68 O          -3.2828  -23.0575  -46.9676 O.2       11 UNK        -0.5000 
     69 N          -3.2999  -23.4086  -44.7241 N.am      12 UNK        -0.5000 
     70 CA         -4.1325  -24.6113  -44.7216 C.3       12 UNK         0.1400 
     71 CB         -4.5988  -24.9025  -43.2872 C.3       12 UNK        -0.1800 
     72 C          -3.4128  -25.8326  -45.3211 C.2       12 UNK         0.5000 
     73 O          -4.0040  -26.5522  -46.1262 O.2       12 UNK        -0.5000 
     74 N          -2.1415  -26.0253  -44.9439 N.am      13 UNK        -0.5000 
     75 CA         -1.2753  -27.0925  -45.4514 C.3       13 UNK         0.1400 
     76 CB         -0.0577  -27.2423  -44.5264 C.3       13 UNK        -0.1800 
     77 C          -0.8310  -26.8339  -46.9021 C.2       13 UNK         0.5000 
     78 O          -0.7255  -27.7744  -47.6894 O.2       13 UNK        -0.5000 
     79 N          -0.6184  -25.5539  -47.2324 N.am      14 UNK        -0.5000 
     80 CA         -0.2947  -25.0557  -48.5675 C.3       14 UNK         0.1400 
     81 CB          0.3023  -23.6447  -48.4351 C.3       14 UNK        -0.1800 
     82 C          -1.4972  -25.0456  -49.5330 C.2       14 UNK         0.5000 
     83 O          -1.3001  -24.7465  -50.7087 O.2       14 UNK        -0.5000 
     84 N          -2.7067  -25.3462  -49.0360 N.am      15 UNK        -0.5000 
     85 CA         -3.9762  -25.4106  -49.7664 C.3       15 UNK         0.1400 
     86 CB         -3.9708  -26.5909  -50.7603 C.3       15 UNK        -0.1800 
     87 C          -4.3407  -24.0639  -50.4236 C.2       15 UNK         0.5000 
     88 O          -4.5239  -23.9911  -51.6401 O.2       15 UNK        -0.5000 
     89 N          -4.4167  -23.0212  -49.5850 N.am      16 UNK        -0.5000 
     90 CA         -4.6739  -21.6211  -49.9330 C.3       16 UNK         0.1400 
     91 CB         -6.0376  -21.4413  -50.6294 C.3       16 UNK        -0.1800 
     92 C          -3.4949  -20.9998  -50.7046 C.2       16 UNK         0.5000 
     93 O          -3.6877  -20.3717  -51.7471 O.2       16 UNK        -0.5000 
     94 N          -2.2933  -21.1870  -50.1401 N.am      17 UNK        -0.5000 
     95 CA         -1.0110  -20.6235  -50.5702 C.3       17 UNK         0.1400 
     96 CB         -1.0042  -19.0918  -50.4063 C.3       17 UNK        -0.1800 
     97 C          -0.5564  -21.0893  -51.9687 C.2       17 UNK         0.5000 
     98 O          -0.1266  -20.2712  -52.7846 O.2       17 UNK        -0.5000 
     99 N          -0.6214  -22.4095  -52.1936 N.am      18 UNK        -0.5000 
    100 CA        -0.0349  -23.1673  -53.3019 C.3       18 UNK         0.1400 
    101 CB         1.4911  -23.2885  -53.0972 C.3       18 UNK        -0.1800 
    102 C         -0.4253  -22.6357  -54.6934 C.2       18 UNK         0.5000 
    103 O         -1.5006  -22.9709  -55.1884 O.2       18 UNK        -0.5000 
    104 N          0.4555  -21.8270  -55.2972 N.am      19 UNK        -0.5000 
    105 CA         0.2827  -21.2124  -56.6120 C.3       19 UNK         0.1400 
    106 CB         1.6168  -20.5844  -57.0440 C.3       19 UNK        -0.1800 
    107 C         -0.8495  -20.1691  -56.6724 C.2       19 UNK         0.5000 
    108 O         -1.3703  -19.9247  -57.7618 O.2       19 UNK        -0.5000 
    109 N         -1.2126  -19.5718  -55.5263 N.am      20 UNK        -0.5000 
    110 CA        -2.3389  -18.6432  -55.4189 C.3       20 UNK         0.1400 
    111 CB        -2.2679  -17.8826  -54.0868 C.3       20 UNK        -0.1800 
    112 C         -3.6841  -19.3746  -55.5746 C.2       20 UNK         0.5000 
    113 O         -4.4921  -18.9805  -56.4163 O.2       20 UNK        -0.5000 
    114 N         -3.8706  -20.4389  -54.7771 N.am      21 UNK        -0.5000 
    115 CA        -5.0155  -21.3576  -54.7549 C.3       21 UNK         0.1400 
    116 CB        -4.9801  -22.2743  -55.9951 C.3       21 UNK        -0.1800 
    117 C         -6.3704  -20.6353  -54.5896 C.2       21 UNK         0.5000 
    118 O         -7.3342  -20.9580  -55.2872 O.2       21 UNK        -0.5000 
    119 N         -6.4068  -19.6370  -53.6979 N.am      22 UNK        -0.5000 
    120 CA        -7.5347  -18.7021  -53.5449 C.3       22 UNK         0.1400 
    121 C         -8.8151  -19.2661  -52.8546 C.2       22 UNK         0.5000 
    122 N         -8.8267  -20.5010  -52.3695 N.am      22 UNK        -0.7600 
    123 O         -9.8268  -18.5741  -52.7764 O.2       22 UNK        -0.5000 
    124 C124       -7.0756  -17.3453  -52.9528 C.3       23 UNK        -0.0398 
    125 S125       -6.5388  -17.4264  -51.2095 S.3       23 UNK        -0.2404 
    126 C126       -4.8303  -16.8126  -51.2996 C.3       23 UNK        -0.0205 
    127 H127        0.3840  -10.3779  -42.1355 H         1 UNK         0.0600 
    128 H128        0.4627  -12.0891  -42.5646 H         1 UNK         0.0600 
    129 H129        1.8800  -11.0596  -42.7832 H         1 UNK         0.0600 
    130 H130       -0.5504  -12.5333  -44.4845 H         1 UNK         0.3000 
    131 H131       -1.2816  -10.5436  -46.4151 H         1 UNK         0.0600 
    132 H132       -1.3880  -13.5851  -46.8340 H         1 UNK         0.0800 
    133 H133       -2.5251  -12.7538  -45.8068 H         1 UNK         0.0800 
    134 H134       -4.6711  -13.1426  -46.7531 H         1 UNK         0.0800 
    135 H135       -5.2116  -12.7534  -48.3616 H         1 UNK         0.0800 
    136 H136       -4.9854  -14.3253  -50.2036 H         1 UNK         0.1150 
    137 H137       -3.6604  -18.3066  -49.3535 H         1 UNK         0.1150 
    138 H138       -3.3489  -15.2525  -46.3569 H         1 UNK         0.1150 
    139 H139       -1.7652  -18.0573  -47.0756 H         1 UNK         0.0800 
    140 H140       -2.7652  -17.4492  -45.7773 H         1 UNK         0.0800 
    141 H141       -2.2607  -19.5025  -44.7786 H         1 UNK         0.0800 
    142 H142       -3.6530  -20.4935  -44.5210 H         1 UNK         0.0800 
    143 H143       -1.5365  -21.3098  -46.5744 H         1 UNK         0.0600 
    144 H144       -0.7453  -20.8569  -44.0938 H         1 UNK         0.3000 
    145 H145        0.9468  -23.5735  -42.8324 H         1 UNK         0.0600 
    146 H146        3.0064  -22.2090  -43.0551 H         1 UNK         0.0600 
    147 H147        2.5957  -22.9390  -44.6006 H         1 UNK         0.0600 
    148 H148        2.2600  -21.2350  -44.3185 H         1 UNK         0.0600 
    149 H149        1.0482  -20.7825  -42.2198 H         1 UNK         0.3000 
    150 H150       -1.3626  -19.8247  -41.0399 H         1 UNK         0.0600 
    151 H151       -2.7032  -21.3452  -39.6386 H         1 UNK         0.0600 
    152 H152       -1.9062  -20.1602  -38.6185 H         1 UNK         0.0600 
    153 H153       -1.2868  -21.8088  -38.7062 H         1 UNK         0.0600 
    154 H154        0.4946  -18.9693  -40.2287 H         1 UNK         0.3000 
    155 H155        2.5322  -19.3841  -37.9388 H         1 UNK         0.0600 
    156 H156        4.8211  -19.7507  -38.9092 H         1 UNK         0.0600 
    157 H157        4.1141  -20.7476  -40.1803 H         1 UNK         0.0600 
    158 H158        4.0190  -21.2571  -38.5017 H         1 UNK         0.0600 
    159 H159        2.5936  -17.5340  -39.1228 H         1 UNK         0.3000 
    160 H160        2.4580  -16.0529  -40.6792 H         1 UNK         0.0600 
    161 H161        4.4425  -16.8823  -42.8653 H         1 UNK         0.0600 
    162 H162        4.8635  -16.3376  -41.2464 H         1 UNK         0.0600 
    163 H163        4.0943  -15.2263  -42.3709 H         1 UNK         0.0600 
    164 H164        2.1033  -16.4172  -43.5091 H         1 UNK         0.3000 
    165 H165       -1.3473  -17.2178  -43.4964 H         1 UNK         0.0600 
    166 H166       -0.0829  -14.4967  -44.1324 H         1 UNK         0.0600 
    167 H167       -1.6119  -15.1050  -44.7700 H         1 UNK         0.0600 
    168 H168       -1.4550  -14.7505  -43.0572 H         1 UNK         0.0600 
    169 H169        0.5060  -16.4043  -45.5420 H         1 UNK         0.3000 
    170 H170        2.5419  -19.0545  -45.7481 H         1 UNK         0.0600 
    171 H171        0.8508  -20.5961  -46.6503 H         1 UNK         0.0600 
    172 H172        0.1079  -19.3051  -47.5843 H         1 UNK         0.0600 
    173 H173        1.7318  -19.8616  -47.9761 H         1 UNK         0.0600 
    174 H174        1.7988  -17.3813  -47.9163 H         1 UNK         0.3000 
    175 H175        3.3643  -14.4096  -46.7764 H         1 UNK         0.0600 
    176 H176        4.3674  -16.4458  -48.8298 H         1 UNK         0.0600 
    177 H177        4.7531  -14.7252  -48.8093 H         1 UNK         0.0600 
    178 H178        5.2914  -15.7658  -47.4999 H         1 UNK         0.0600 
    179 H179        1.7426  -13.9172  -48.1094 H         1 UNK         0.3000 
    180 H180        0.7958  -14.8392  -51.2652 H         1 UNK         0.0600 
    181 H181       -0.9147  -16.3592  -50.3066 H         1 UNK         0.0600 
    182 H182       -1.2020  -15.2493  -48.9748 H         1 UNK         0.0600 
    183 H183       -1.6297  -14.7919  -50.6227 H         1 UNK         0.0600 
    184 H184       -0.3702  -12.9791  -49.4135 H         1 UNK         0.3000 
    185 H185        2.1564  -10.6323  -49.2087 H         1 UNK         0.0600 
    186 H186        1.4083   -9.9642  -51.5022 H         1 UNK         0.0600 
    187 H187       -0.2666  -10.2657  -51.0549 H         1 UNK         0.0600 
    188 H188        0.6436   -8.9733  -50.2710 H         1 UNK         0.0600 
    189 H189       -0.6095  -10.4113  -48.6154 H         1 UNK         0.3000 
    190 H190       -2.9518  -23.0922  -43.8297 H         1 UNK         0.3000 
    191 H191       -5.0167  -24.4142  -45.3318 H         1 UNK         0.0600 
    192 H192       -5.2279  -25.7930  -43.2539 H         1 UNK         0.0600 
    193 H193       -5.1868  -24.0753  -42.8892 H         1 UNK         0.0600 
    194 H194       -3.7567  -25.0688  -42.6139 H         1 UNK         0.0600 
    195 H195       -1.7062  -25.3411  -44.3412 H         1 UNK         0.3000 
    196 H196       -1.8348  -28.0302  -45.4339 H         1 UNK         0.0600 
    197 H197        0.5916  -28.0505  -44.8653 H         1 UNK         0.0600 
    198 H198       -0.3638  -27.4774  -43.5070 H         1 UNK         0.0600 
    199 H199        0.5417  -26.3316  -44.4952 H         1 UNK         0.0600 
    200 H200       -0.6523  -24.8591  -46.4888 H         1 UNK         0.3000 
    201 H201        0.4649  -25.7083  -49.0023 H         1 UNK         0.0600 
    202 H202        1.1654  -23.6422  -47.7691 H         1 UNK         0.0600 
    203 H203       -0.4257  -22.9371  -48.0388 H         1 UNK         0.0600 
    204 H204        0.6408  -23.2701  -49.4017 H         1 UNK         0.0600 
    205 H205       -2.7671  -25.5355  -48.0451 H         1 UNK         0.3000 
    206 H206       -4.7488  -25.6121  -49.0227 H         1 UNK         0.0600 
    207 H207       -3.7451  -27.5295  -50.2542 H         1 UNK         0.0600 
    208 H208       -4.9460  -26.7038  -51.2352 H         1 UNK         0.0600 
    209 H209       -3.2357  -26.4530  -51.5538 H         1 UNK         0.0600 
    210 H210       -4.1745  -23.1811  -48.6088 H         1 UNK         0.3000 
    211 H211       -4.7307  -21.0839  -48.9861 H         1 UNK         0.0600 
    212 H212       -6.0536  -21.8883  -51.6225 H         1 UNK         0.0600 
    213 H213       -6.2720  -20.3832  -50.7439 H         1 UNK         0.0600 
    214 H214       -6.8411  -21.8887  -50.0447 H         1 UNK         0.0600 
    215 H215       -2.2657  -21.7501  -49.3028 H         1 UNK         0.3000 
    216 H216       -0.2649  -21.0129  -49.8771 H         1 UNK         0.0600 
    217 H217       -1.7193  -18.6061  -51.0678 H         1 UNK         0.0600 
    218 H218       -0.0191  -18.6784  -50.6261 H         1 UNK         0.0600 
    219 H219       -1.2537  -18.8038  -49.3870 H         1 UNK         0.0600 
    220 H220       -1.0496  -23.0025  -51.4887 H         1 UNK         0.3000 
    221 H221       -0.4506  -24.1740  -53.2387 H         1 UNK         0.0600 
    222 H222        1.9804  -22.3157  -53.0376 H         1 UNK         0.0600 
    223 H223        1.7141  -23.8237  -52.1740 H         1 UNK         0.0600 
    224 H224        1.9550  -23.8470  -53.9113 H         1 UNK         0.0600 
    225 H225        1.2909  -21.5747  -54.7898 H         1 UNK         0.3000 
    226 H226        0.0327  -22.0049  -57.3204 H         1 UNK         0.0600 
    227 H227        2.4101  -21.3311  -57.0859 H         1 UNK         0.0600 
    228 H228        1.5371  -20.1411  -58.0375 H         1 UNK         0.0600 
    229 H229        1.9308  -19.7971  -56.3574 H         1 UNK         0.0600 
    230 H230       -0.7418  -19.8303  -54.6641 H         1 UNK         0.3000 
    231 H231       -2.2572  -17.9106  -56.2248 H         1 UNK         0.0600 
    232 H232       -2.3531  -18.5591  -53.2385 H         1 UNK         0.0600 
    233 H233       -1.3273  -17.3405  -53.9886 H         1 UNK         0.0600 
    234 H234       -3.0760  -17.1544  -54.0099 H         1 UNK         0.0600 
    235 H235       -3.1622  -20.6328  -54.0819 H         1 UNK         0.3000 
    236 H236       -4.8890  -21.9868  -53.8726 H         1 UNK         0.0600 
    237 H237       -4.0278  -22.7977  -56.0722 H         1 UNK         0.0600 
    238 H238       -5.7610  -23.0340  -55.9444 H         1 UNK         0.0600 
    239 H239       -5.1269  -21.7112  -56.9174 H         1 UNK         0.0600 
    240 H240       -5.5871  -19.4584  -53.1329 H         1 UNK         0.3000 
    241 H241       -7.8675  -18.4735  -54.5595 H         1 UNK         0.0600 
    242 H242       -8.0131  -21.0868  -52.4521 H         1 UNK         0.3800 
    243 H243       -9.6636  -20.8556  -51.9343 H         1 UNK         0.3800 
    244 H244       -7.8842  -16.6154  -53.0191 H         1 UNK         0.0800 
    245 H245       -6.2710  -16.9386  -53.5666 H         1 UNK         0.0800 
    246 H246       -4.7651  -15.9782  -51.9994 H         1 UNK         0.0800 
    247 H247       -4.1792  -17.5992  -51.6831 H         1 UNK         0.0800 
@<TRIPOS>BOND
     1    1    2 1    
     2    1  127 1    
     3    1  128 1    
     4    1  129 1    
     5    2    3 2    
     6    2    4 am   BACKBONE|DICT|INTERRES
     7    4    5 1    
     8    4  130 1    
     9    5    6 1    
    10    5   65 1    
    11    5  131 1    
    12    6    7 1    
    13    6  132 1    
    14    6  133 1    
    15    7    8 1    
    16    8    9 1    
    17    8  134 1    
    18    8  135 1    
    19    9   10 ar   
    20    9   14 ar   
    21   10   11 ar   
    22   10  136 1    
    23   11   12 ar   
    24   11  126 1    
    25   12   13 ar   
    26   12  137 1    
    27   13   14 ar   
    28   13   15 1    
    29   14  138 1    
    30   15   16 1    
    31   15  139 1    
    32   15  140 1    
    33   16   17 1    
    34   17   18 1    
    35   17  141 1    
    36   17  142 1    
    37   18   19 1    
    38   18   67 1    
    39   18  143 1    
    40   19   20 am   BACKBONE|DICT|INTERRES
    41   19  144 1    
    42   20   21 2    
    43   20   22 1    
    44   22   23 1    
    45   22   24 1    
    46   22  145 1    
    47   23  146 1    
    48   23  147 1    
    49   23  148 1    
    50   24   25 am   BACKBONE|DICT|INTERRES
    51   24  149 1    
    52   25   26 2    
    53   25   27 1    
    54   27   28 1    
    55   27   29 1    
    56   27  150 1    
    57   28  151 1    
    58   28  152 1    
    59   28  153 1    
    60   29   30 am   BACKBONE|DICT|INTERRES
    61   29  154 1    
    62   30   31 2    
    63   30   32 1    
    64   32   33 1    
    65   32   34 1    
    66   32  155 1    
    67   33  156 1    
    68   33  157 1    
    69   33  158 1    
    70   34   35 am   BACKBONE|DICT|INTERRES
    71   34  159 1    
    72   35   36 2    
    73   35   37 1    
    74   37   38 1    
    75   37   39 1    
    76   37  160 1    
    77   38  161 1    
    78   38  162 1    
    79   38  163 1    
    80   39   40 am   BACKBONE|DICT|INTERRES
    81   39  164 1    
    82   40   41 2    
    83   40   42 1    
    84   42   43 1    
    85   42   44 1    
    86   42  165 1    
    87   43  166 1    
    88   43  167 1    
    89   43  168 1    
    90   44   45 am   BACKBONE|DICT|INTERRES
    91   44  169 1    
    92   45   46 2    
    93   45   47 1    
    94   47   48 1    
    95   47   49 1    
    96   47  170 1    
    97   48  171 1    
    98   48  172 1    
    99   48  173 1    
   100   49   50 am   BACKBONE|DICT|INTERRES
   101   49  174 1    
   102   50   51 2    
   103   50   52 1    
   104   52   53 1    
   105   52   54 1    
   106   52  175 1    
   107   53  176 1    
   108   53  177 1    
   109   53  178 1    
   110   54   55 am   BACKBONE|DICT|INTERRES
   111   54  179 1    
   112   55   56 2    
   113   55   57 1    
   114   57   58 1    
   115   57   59 1    
   116   57  180 1    
   117   58  181 1    
   118   58  182 1    
   119   58  183 1    
   120   59   60 am   BACKBONE|DICT|INTERRES
   121   59  184 1    
   122   60   61 2    
   123   60   62 1    
   124   62   63 1    
   125   62   64 1    
   126   62  185 1    
   127   63  186 1    
   128   63  187 1    
   129   63  188 1    
   130   64   65 am   BACKBONE|DICT|INTERRES
   131   64  189 1    
   132   65   66 2    
   133   67   68 2    
   134   67   69 am   BACKBONE|DICT|INTERRES
   135   69   70 1    
   136   69  190 1    
   137   70   71 1    
   138   70   72 1    
   139   70  191 1    
   140   71  192 1    
   141   71  193 1    
   142   71  194 1    
   143   72   73 2    
   144   72   74 am   BACKBONE|DICT|INTERRES
   145   74   75 1    
   146   74  195 1    
   147   75   76 1    
   148   75   77 1    
   149   75  196 1    
   150   76  197 1    
   151   76  198 1    
   152   76  199 1    
   153   77   78 2    
   154   77   79 am   BACKBONE|DICT|INTERRES
   155   79   80 1    
   156   79  200 1    
   157   80   81 1    
   158   80   82 1    
   159   80  201 1    
   160   81  202 1    
   161   81  203 1    
   162   81  204 1    
   163   82   83 2    
   164   82   84 am   BACKBONE|DICT|INTERRES
   165   84   85 1    
   166   84  205 1    
   167   85   86 1    
   168   85   87 1    
   169   85  206 1    
   170   86  207 1    
   171   86  208 1    
   172   86  209 1    
   173   87   88 2    
   174   87   89 am   BACKBONE|DICT|INTERRES
   175   89   90 1    
   176   89  210 1    
   177   90   91 1    
   178   90   92 1    
   179   90  211 1    
   180   91  212 1    
   181   91  213 1    
   182   91  214 1    
   183   92   93 2    
   184   92   94 am   BACKBONE|DICT|INTERRES
   185   94   95 1    
   186   94  215 1    
   187   95   96 1    
   188   95   97 1    
   189   95  216 1    
   190   96  217 1    
   191   96  218 1    
   192   96  219 1    
   193   97   98 2    
   194   97   99 am   BACKBONE|DICT|INTERRES
   195   99  100 1    
   196   99  220 1    
   197  100  101 1    
   198  100  102 1    
   199  100  221 1    
   200  101  222 1    
   201  101  223 1    
   202  101  224 1    
   203  102  103 2    
   204  102  104 am   BACKBONE|DICT|INTERRES
   205  104  105 1    
   206  104  225 1    
   207  105  106 1    
   208  105  107 1    
   209  105  226 1    
   210  106  227 1    
   211  106  228 1    
   212  106  229 1    
   213  107  108 2    
   214  107  109 am   BACKBONE|DICT|INTERRES
   215  109  110 1    
   216  109  230 1    
   217  110  111 1    
   218  110  112 1    
   219  110  231 1    
   220  111  232 1    
   221  111  233 1    
   222  111  234 1    
   223  112  113 2    
   224  112  114 am   BACKBONE|DICT|INTERRES
   225  114  115 1    
   226  114  235 1    
   227  115  116 1    
   228  115  117 1    
   229  115  236 1    
   230  116  237 1    
   231  116  238 1    
   232  116  239 1    
   233  117  118 2    
   234  117  119 am   BACKBONE|DICT|INTERRES
   235  119  120 1    
   236  119  240 1    
   237  120  121 1    
   238  120  124 1    
   239  120  241 1    
   240  121  122 am   BACKBONE|DICT|INTERRES
   241  121  123 2    
   242  122  242 1    
   243  122  243 1    
   244  124  125 1    
   245  124  244 1    
   246  124  245 1    
   247  125  126 1    
   248  126  246 1    
   249  126  247 1    
@<TRIPOS>SUBSTRUCTURE
     1 UNK         1 GROUP             0       ****    0 ROOT    
