@<TRIPOS>MOLECULE
3R540
247   249    1
SMALL
USER_CHARGES


@<TRIPOS>ATOM
      1 CA          2.3792  -11.8194  -45.7877 C.3       0 UNK        -0.1800 
      2 C           1.7993  -12.7050  -46.8803 C.2       0 UNK         0.5000 
      3 O           0.6330  -12.5512  -47.2431 O.2       0 UNK        -0.5000 
      4 N           2.6102  -13.6364  -47.3972 N.am      1 UNK        -0.5000 
      5 CA          2.3051  -14.6041  -48.4578 C.3       1 UNK         0.1400 
      6 C6          1.9931  -13.9423  -49.8287 C.3       23 UNK        -0.0398 
      7 S7          2.3907  -15.0367  -51.2362 S.3       23 UNK        -0.2404 
      8 C8          0.7441  -15.6358  -51.7302 C.3       23 UNK        -0.0205 
      9 C9          0.7557  -17.1363  -51.9755 C.ar      23 UNK        -0.0193 
     10 C10         0.8280  -17.6490  -53.2727 C.ar      23 UNK        -0.1150 
     11 C11         0.7890  -19.0309  -53.4957 C.ar      23 UNK        -0.0193 
     12 C12         0.7066  -19.9014  -52.4022 C.ar      23 UNK        -0.1150 
     13 C13         0.6514  -19.3985  -51.0993 C.ar      23 UNK        -0.0193 
     14 C14         0.6706  -18.0185  -50.8977 C.ar      23 UNK        -0.1150 
     15 C15         0.5142  -20.3280  -49.9045 C.3       23 UNK        -0.0205 
     16 S16         2.1302  -20.7900  -49.1967 S.3       23 UNK        -0.2404 
     17 C17         1.8570  -20.5251  -47.4063 C.3       23 UNK        -0.0398 
     18 CA          1.1965  -21.7339  -46.6910 C.3       11 UNK         0.1400 
     19 N           1.4109  -21.7169  -45.2393 N.am      11 UNK        -0.5000 
     20 C           1.0189  -22.6825  -44.3917 C.2       10 UNK         0.5000 
     21 O           0.5008  -23.7395  -44.7493 O.2       10 UNK        -0.5000 
     22 CA          1.1634  -22.3951  -42.8853 C.3       10 UNK         0.1400 
     23 CB          2.5997  -22.6462  -42.4043 C.3       10 UNK        -0.1800 
     24 N           0.7432  -21.0370  -42.5366 N.am      10 UNK        -0.5000 
     25 C          -0.5060  -20.5739  -42.6943 C.2       9 UNK         0.5000 
     26 O          -1.4470  -21.2613  -43.0883 O.2       9 UNK        -0.5000 
     27 CA         -0.7348  -19.0821  -42.4086 C.3       9 UNK         0.1400 
     28 CB         -0.9839  -18.8570  -40.9110 C.3       9 UNK        -0.1800 
     29 N           0.3794  -18.2580  -42.8785 N.am      9 UNK        -0.5000 
     30 C           0.6937  -18.0926  -44.1725 C.2       8 UNK         0.5000 
     31 O           0.0424  -18.5759  -45.1002 O.2       8 UNK        -0.5000 
     32 CA          2.0061  -17.3454  -44.4748 C.3       8 UNK         0.1400 
     33 CB          1.8236  -15.8206  -44.4881 C.3       8 UNK        -0.1800 
     34 N           3.0660  -17.7073  -43.5360 N.am      8 UNK        -0.5000 
     35 C           3.6620  -18.9072  -43.5186 C.2       7 UNK         0.5000 
     36 O           3.4113  -19.7988  -44.3293 O.2       7 UNK        -0.5000 
     37 CA          4.6863  -19.1740  -42.4002 C.3       7 UNK         0.1400 
     38 CB          6.1115  -18.9030  -42.9040 C.3       7 UNK        -0.1800 
     39 N           4.4505  -18.3901  -41.1872 N.am      7 UNK        -0.5000 
     40 C           3.3903  -18.5143  -40.3767 C.2       6 UNK         0.5000 
     41 O           2.4811  -19.3230  -40.5740 O.2       6 UNK        -0.5000 
     42 CA          3.3380  -17.5833  -39.1406 C.3       6 UNK         0.1400 
     43 CB          4.5067  -16.5740  -39.0714 C.3       6 UNK        -0.1800 
     44 N           2.0738  -16.8535  -38.9756 N.am      6 UNK        -0.5000 
     45 C           1.4006  -16.1600  -39.9043 C.2       5 UNK         0.5000 
     46 O           1.6694  -16.1655  -41.1062 O.2       5 UNK        -0.5000 
     47 CA          0.2622  -15.2675  -39.3898 C.3       5 UNK         0.1400 
     48 CB          0.7662  -13.8335  -39.1501 C.3       5 UNK        -0.1800 
     49 N          -0.8349  -15.2537  -40.3522 N.am      5 UNK        -0.5000 
     50 C          -2.1180  -15.0245  -40.0528 C.2       4 UNK         0.5000 
     51 O          -2.4960  -14.6875  -38.9287 O.2       4 UNK        -0.5000 
     52 CA         -3.1507  -15.2206  -41.1874 C.3       4 UNK         0.1400 
     53 CB         -4.5968  -14.9643  -40.7242 C.3       4 UNK        -0.1800 
     54 N          -2.8901  -14.3935  -42.3677 N.am      4 UNK        -0.5000 
     55 C          -1.9563  -14.6431  -43.2915 C.2       3 UNK         0.5000 
     56 O          -1.1341  -15.5530  -43.1900 O.2       3 UNK        -0.5000 
     57 CA         -1.9208  -13.7008  -44.5114 C.3       3 UNK         0.1400 
     58 CB         -1.0603  -12.4686  -44.1952 C.3       3 UNK        -0.1800 
     59 N          -1.3939  -14.3483  -45.7168 N.am      3 UNK        -0.5000 
     60 C          -1.9262  -15.4258  -46.3159 C.2       2 UNK         0.5000 
     61 O          -2.9902  -15.9359  -45.9624 O.2       2 UNK        -0.5000 
     62 CA         -1.1704  -16.0275  -47.5194 C.3       2 UNK         0.1400 
     63 CB         -2.1020  -16.1927  -48.7334 C.3       2 UNK        -0.1800 
     64 N          -0.0191  -15.2133  -47.9176 N.am      2 UNK        -0.5000 
     65 C           1.2452  -15.6406  -48.0242 C.2       1 UNK         0.5000 
     66 O           1.6010  -16.7921  -47.7804 O.2       1 UNK        -0.5000 
     67 C          -0.3033  -21.8282  -47.0314 C.2       11 UNK         0.5000 
     68 O          -0.6957  -22.7057  -47.8005 O.2       11 UNK        -0.5000 
     69 N          -1.1128  -20.9397  -46.4359 N.am      12 UNK        -0.5000 
     70 CA         -2.5618  -20.8836  -46.6264 C.3       12 UNK         0.1400 
     71 CB         -3.1371  -19.6702  -45.8827 C.3       12 UNK        -0.1800 
     72 C          -3.2776  -22.1825  -46.2174 C.2       12 UNK         0.5000 
     73 O          -4.1230  -22.6658  -46.9704 O.2       12 UNK        -0.5000 
     74 N          -2.8946  -22.7456  -45.0640 N.am      13 UNK        -0.5000 
     75 CA         -3.3988  -24.0191  -44.5526 C.3       13 UNK         0.1400 
     76 CB         -2.9051  -24.2229  -43.1122 C.3       13 UNK        -0.1800 
     77 C          -3.0104  -25.2203  -45.4340 C.2       13 UNK         0.5000 
     78 O          -3.8467  -26.0952  -45.6608 O.2       13 UNK        -0.5000 
     79 N          -1.7596  -25.2412  -45.9160 N.am      14 UNK        -0.5000 
     80 CA         -1.2286  -26.2925  -46.7830 C.3       14 UNK         0.1400 
     81 CB          0.3016  -26.1772  -46.8605 C.3       14 UNK        -0.1800 
     82 C          -1.8456  -26.2704  -48.1916 C.2       14 UNK         0.5000 
     83 O          -2.2176  -27.3262  -48.7060 O.2       14 UNK        -0.5000 
     84 N          -1.9365  -25.0759  -48.7914 N.am      15 UNK        -0.5000 
     85 CA         -2.4726  -24.8769  -50.1372 C.3       15 UNK         0.1400 
     86 CB         -2.0020  -23.5180  -50.6757 C.3       15 UNK        -0.1800 
     87 C          -4.0066  -24.9816  -50.1944 C.2       15 UNK         0.5000 
     88 O          -4.5363  -25.4512  -51.2015 O.2       15 UNK        -0.5000 
     89 N          -4.6850  -24.5270  -49.1285 N.am      16 UNK        -0.5000 
     90 CA         -6.1428  -24.4991  -48.9439 C.3       16 UNK         0.1400 
     91 CB         -6.7051  -25.9324  -48.8457 C.3       16 UNK        -0.1800 
     92 C          -6.8866  -23.6308  -49.9854 C.2       16 UNK         0.5000 
     93 O          -8.0620  -23.8736  -50.2642 O.2       16 UNK        -0.5000 
     94 N          -6.1872  -22.6288  -50.5321 N.am      17 UNK        -0.5000 
     95 CA         -6.6449  -21.7047  -51.5704 C.3       17 UNK         0.1400 
     96 CB         -6.9357  -22.4437  -52.8911 C.3       17 UNK        -0.1800 
     97 C          -5.5861  -20.6169  -51.7925 C.2       17 UNK         0.5000 
     98 O          -5.9373  -19.4426  -51.9111 O.2       17 UNK        -0.5000 
     99 N          -4.3071  -21.0289  -51.8163 N.am      18 UNK        -0.5000 
    100 CA        -3.1163  -20.1835  -51.9504 C.3       18 UNK         0.1400 
    101 CB        -2.9127  -19.3492  -50.6660 C.3       18 UNK        -0.1800 
    102 C         -3.1599  -19.3523  -53.2466 C.2       18 UNK         0.5000 
    103 O         -3.1873  -19.9388  -54.3306 O.2       18 UNK        -0.5000 
    104 N         -3.2239  -18.0204  -53.1158 N.am      19 UNK        -0.5000 
    105 CA        -3.3143  -17.0508  -54.2087 C.3       19 UNK         0.1400 
    106 CB        -3.3526  -15.6354  -53.6141 C.3       19 UNK        -0.1800 
    107 C         -4.5081  -17.2764  -55.1578 C.2       19 UNK         0.5000 
    108 O         -4.4034  -16.9572  -56.3421 O.2       19 UNK        -0.5000 
    109 N         -5.6031  -17.8567  -54.6441 N.am      20 UNK        -0.5000 
    110 CA        -6.7785  -18.2272  -55.4334 C.3       20 UNK         0.1400 
    111 CB        -7.9569  -18.5117  -54.4896 C.3       20 UNK        -0.1800 
    112 C         -6.5333  -19.4256  -56.3733 C.2       20 UNK         0.5000 
    113 O         -7.2609  -19.5650  -57.3573 O.2       20 UNK        -0.5000 
    114 N         -5.5308  -20.2628  -56.0681 N.am      21 UNK        -0.5000 
    115 CA        -5.1318  -21.3987  -56.8957 C.3       21 UNK         0.1400 
    116 CB        -4.6829  -22.5689  -56.0057 C.3       21 UNK        -0.1800 
    117 C         -4.0262  -21.0043  -57.8859 C.2       21 UNK         0.5000 
    118 O         -4.1652  -21.2779  -59.0791 O.2       21 UNK        -0.5000 
    119 N         -2.9485  -20.3845  -57.3843 N.am      22 UNK        -0.5000 
    120 CA        -1.7819  -19.9975  -58.1993 C.3       22 UNK         0.1400 
    121 C         -1.9534  -18.6924  -59.0307 C.2       22 UNK         0.5000 
    122 N         -2.9244  -17.8335  -58.7469 N.am      22 UNK        -0.7600 
    123 O         -1.1980  -18.4643  -59.9719 O.2       22 UNK        -0.5000 
    124 C124       -0.4614  -20.0081  -57.3869 C.3       23 UNK        -0.0398 
    125 S125       -0.4671  -18.8680  -55.9657 S.3       23 UNK        -0.2404 
    126 C126        0.8345  -19.5861  -54.9137 C.3       23 UNK        -0.0205 
    127 H127        2.1320  -12.2211  -44.8057 H         1 UNK         0.0600 
    128 H128        1.9704  -10.8115  -45.8596 H         1 UNK         0.0600 
    129 H129        3.4643  -11.7495  -45.8656 H         1 UNK         0.0600 
    130 H130        3.5471  -13.7098  -47.0252 H         1 UNK         0.3000 
    131 H131        3.2371  -15.1601  -48.5757 H         1 UNK         0.0600 
    132 H132        2.6169  -13.0557  -49.9494 H         1 UNK         0.0800 
    133 H133        0.9666  -13.5786  -49.8913 H         1 UNK         0.0800 
    134 H134        0.4252  -15.1028  -52.6272 H         1 UNK         0.0800 
    135 H135        0.0036  -15.4068  -50.9637 H         1 UNK         0.0800 
    136 H136        0.8939  -16.9726  -54.1134 H         1 UNK         0.1150 
    137 H137        0.6775  -20.9700  -52.5624 H         1 UNK         0.1150 
    138 H138        0.6047  -17.6336  -49.8939 H         1 UNK         0.1150 
    139 H139       -0.1063  -19.8421  -49.1504 H         1 UNK         0.0800 
    140 H140       -0.0184  -21.2344  -50.1933 H         1 UNK         0.0800 
    141 H141        1.3013  -19.5994  -47.2466 H         1 UNK         0.0800 
    142 H142        2.8417  -20.3457  -46.9729 H         1 UNK         0.0800 
    143 H143        1.6727  -22.6455  -47.0585 H         1 UNK         0.0600 
    144 H144        1.8825  -20.9015  -44.8599 H         1 UNK         0.3000 
    145 H145        0.5069  -23.0855  -42.3514 H         1 UNK         0.0600 
    146 H146        2.7119  -22.4090  -41.3461 H         1 UNK         0.0600 
    147 H147        2.8708  -23.6945  -42.5344 H         1 UNK         0.0600 
    148 H148        3.3245  -22.0549  -42.9615 H         1 UNK         0.0600 
    149 H149        1.4459  -20.4127  -42.1588 H         1 UNK         0.3000 
    150 H150       -1.6314  -18.7717  -42.9490 H         1 UNK         0.0600 
    151 H151       -1.7877  -19.4994  -40.5491 H         1 UNK         0.0600 
    152 H152       -1.2853  -17.8325  -40.7150 H         1 UNK         0.0600 
    153 H153       -0.1002  -19.0705  -40.3108 H         1 UNK         0.0600 
    154 H154        0.9583  -17.8072  -42.1791 H         1 UNK         0.3000 
    155 H155        2.3280  -17.6512  -45.4714 H         1 UNK         0.0600 
    156 H156        1.5846  -15.4224  -43.5042 H         1 UNK         0.0600 
    157 H157        1.0088  -15.5372  -45.1499 H         1 UNK         0.0600 
    158 H158        2.7237  -15.3196  -44.8429 H         1 UNK         0.0600 
    159 H159        3.2704  -17.0444  -42.8009 H         1 UNK         0.3000 
    160 H160        4.6158  -20.2296  -42.1326 H         1 UNK         0.0600 
    161 H161        6.2536  -17.8535  -43.1649 H         1 UNK         0.0600 
    162 H162        6.3301  -19.4950  -43.7938 H         1 UNK         0.0600 
    163 H163        6.8538  -19.1664  -42.1503 H         1 UNK         0.0600 
    164 H164        5.1494  -17.6990  -40.9565 H         1 UNK         0.3000 
    165 H165        3.4230  -18.2423  -38.2755 H         1 UNK         0.0600 
    166 H166        4.4543  -15.9821  -38.1574 H         1 UNK         0.0600 
    167 H167        5.4741  -17.0780  -39.0620 H         1 UNK         0.0600 
    168 H168        4.4930  -15.8782  -39.9116 H         1 UNK         0.0600 
    169 H169        1.7348  -16.8132  -38.0248 H         1 UNK         0.3000 
    170 H170       -0.0978  -15.6834  -38.4462 H         1 UNK         0.0600 
    171 H171        1.6017  -13.8235  -38.4491 H         1 UNK         0.0600 
    172 H172        1.1080  -13.3710  -40.0770 H         1 UNK         0.0600 
    173 H173       -0.0168  -13.2021  -38.7300 H         1 UNK         0.0600 
    174 H174       -0.5907  -15.5147  -41.3058 H         1 UNK         0.3000 
    175 H175       -3.0905  -16.2692  -41.4865 H         1 UNK         0.0600 
    176 H176       -4.7433  -13.9288  -40.4144 H         1 UNK         0.0600 
    177 H177       -5.3101  -15.1808  -41.5198 H         1 UNK         0.0600 
    178 H178       -4.8572  -15.6017  -39.8781 H         1 UNK         0.0600 
    179 H179       -3.4981  -13.5971  -42.4919 H         1 UNK         0.3000 
    180 H180       -2.9395  -13.3743  -44.7293 H         1 UNK         0.0600 
    181 H181       -0.0366  -12.7521  -43.9494 H         1 UNK         0.0600 
    182 H182       -1.4601  -11.9184  -43.3425 H         1 UNK         0.0600 
    183 H183       -1.0270  -11.7790  -45.0389 H         1 UNK         0.0600 
    184 H184       -0.5339  -13.9658  -46.0853 H         1 UNK         0.3000 
    185 H185       -0.8401  -17.0202  -47.2071 H         1 UNK         0.0600 
    186 H186       -2.9464  -16.8416  -48.4972 H         1 UNK         0.0600 
    187 H187       -2.5037  -15.2344  -49.0641 H         1 UNK         0.0600 
    188 H188       -1.5789  -16.6429  -49.5748 H         1 UNK         0.0600 
    189 H189       -0.1911  -14.2216  -48.0470 H         1 UNK         0.3000 
    190 H190       -0.7071  -20.2318  -45.8295 H         1 UNK         0.3000 
    191 H191       -2.7426  -20.7399  -47.6911 H         1 UNK         0.0600 
    192 H192       -2.9753  -19.7413  -44.8073 H         1 UNK         0.0600 
    193 H193       -4.2114  -19.5829  -46.0488 H         1 UNK         0.0600 
    194 H194       -2.6786  -18.7435  -46.2280 H         1 UNK         0.0600 
    195 H195       -2.2201  -22.2566  -44.4798 H         1 UNK         0.3000 
    196 H196       -4.4891  -23.9617  -44.5326 H         1 UNK         0.0600 
    197 H197       -3.2761  -25.1618  -42.6996 H         1 UNK         0.0600 
    198 H198       -3.2520  -23.4210  -42.4603 H         1 UNK         0.0600 
    199 H199       -1.8159  -24.2469  -43.0606 H         1 UNK         0.0600 
    200 H200       -1.1136  -24.5043  -45.6495 H         1 UNK         0.3000 
    201 H201       -1.4689  -27.2569  -46.3305 H         1 UNK         0.0600 
    202 H202        0.7548  -26.2951  -45.8762 H         1 UNK         0.0600 
    203 H203        0.6136  -25.2106  -47.2582 H         1 UNK         0.0600 
    204 H204        0.7209  -26.9501  -47.5058 H         1 UNK         0.0600 
    205 H205       -1.5699  -24.2525  -48.3172 H         1 UNK         0.3000 
    206 H206       -2.0637  -25.6530  -50.7878 H         1 UNK         0.0600 
    207 H207       -0.9135  -23.4611  -50.6900 H         1 UNK         0.0600 
    208 H208       -2.3459  -23.3642  -51.6989 H         1 UNK         0.0600 
    209 H209       -2.3716  -22.6922  -50.0663 H         1 UNK         0.0600 
    210 H210       -4.1602  -24.1146  -48.3631 H         1 UNK         0.3000 
    211 H211       -6.3135  -24.0176  -47.9803 H         1 UNK         0.0600 
    212 H212       -6.6348  -26.4615  -49.7964 H         1 UNK         0.0600 
    213 H213       -7.7558  -25.9228  -48.5538 H         1 UNK         0.0600 
    214 H214       -6.1672  -26.5141  -48.0967 H         1 UNK         0.0600 
    215 H215       -5.2589  -22.4585  -50.1729 H         1 UNK         0.3000 
    216 H216       -7.5581  -21.2161  -51.2251 H         1 UNK         0.0600 
    217 H217       -7.1011  -21.7448  -53.7119 H         1 UNK         0.0600 
    218 H218       -7.8299  -23.0616  -52.8140 H         1 UNK         0.0600 
    219 H219       -6.1069  -23.0945  -53.1701 H         1 UNK         0.0600 
    220 H220       -4.1353  -22.0226  -51.8291 H         1 UNK         0.3000 
    221 H221       -2.2576  -20.8479  -52.0532 H         1 UNK         0.0600 
    222 H222       -3.7734  -18.7220  -50.4320 H         1 UNK         0.0600 
    223 H223       -2.7392  -20.0015  -49.8132 H         1 UNK         0.0600 
    224 H224       -2.0445  -18.6984  -50.7487 H         1 UNK         0.0600 
    225 H225       -3.2348  -17.6387  -52.1821 H         1 UNK         0.3000 
    226 H226       -2.4056  -17.1383  -54.8036 H         1 UNK         0.0600 
    227 H227       -2.4611  -15.4333  -53.0198 H         1 UNK         0.0600 
    228 H228       -3.3941  -14.8819  -54.4018 H         1 UNK         0.0600 
    229 H229       -4.2244  -15.4915  -52.9747 H         1 UNK         0.0600 
    230 H230       -5.6065  -18.1255  -53.6668 H         1 UNK         0.3000 
    231 H231       -7.0487  -17.3730  -56.0578 H         1 UNK         0.0600 
    232 H232       -8.1551  -17.6620  -53.8361 H         1 UNK         0.0600 
    233 H233       -7.7711  -19.3822  -53.8614 H         1 UNK         0.0600 
    234 H234       -8.8693  -18.7070  -55.0544 H         1 UNK         0.0600 
    235 H235       -4.9285  -20.0492  -55.2801 H         1 UNK         0.3000 
    236 H236       -5.9859  -21.7495  -57.4791 H         1 UNK         0.0600 
    237 H237       -4.3080  -23.3965  -56.6092 H         1 UNK         0.0600 
    238 H238       -3.8902  -22.2832  -55.3145 H         1 UNK         0.0600 
    239 H239       -5.5178  -22.9533  -55.4226 H         1 UNK         0.0600 
    240 H240       -2.8991  -20.1803  -56.3915 H         1 UNK         0.3000 
    241 H241       -1.6550  -20.7787  -58.9518 H         1 UNK         0.0600 
    242 H242       -3.0187  -17.0012  -59.3063 H         1 UNK         0.3800 
    243 H243       -3.5121  -17.9449  -57.9301 H         1 UNK         0.3800 
    244 H244        0.3901  -19.7681  -58.0259 H         1 UNK         0.0800 
    245 H245       -0.2818  -21.0200  -57.0220 H         1 UNK         0.0800 
    246 H246        0.7228  -20.6712  -54.8963 H         1 UNK         0.0800 
    247 H247        1.8109  -19.3772  -55.3525 H         1 UNK         0.0800 
@<TRIPOS>BOND
     1    1    2 1    
     2    1  127 1    
     3    1  128 1    
     4    1  129 1    
     5    2    3 2    
     6    2    4 am   BACKBONE|DICT|INTERRES
     7    4    5 1    
     8    4  130 1    
     9    5    6 1    
    10    5   65 1    
    11    5  131 1    
    12    6    7 1    
    13    6  132 1    
    14    6  133 1    
    15    7    8 1    
    16    8    9 1    
    17    8  134 1    
    18    8  135 1    
    19    9   10 ar   
    20    9   14 ar   
    21   10   11 ar   
    22   10  136 1    
    23   11   12 ar   
    24   11  126 1    
    25   12   13 ar   
    26   12  137 1    
    27   13   14 ar   
    28   13   15 1    
    29   14  138 1    
    30   15   16 1    
    31   15  139 1    
    32   15  140 1    
    33   16   17 1    
    34   17   18 1    
    35   17  141 1    
    36   17  142 1    
    37   18   19 1    
    38   18   67 1    
    39   18  143 1    
    40   19   20 am   BACKBONE|DICT|INTERRES
    41   19  144 1    
    42   20   21 2    
    43   20   22 1    
    44   22   23 1    
    45   22   24 1    
    46   22  145 1    
    47   23  146 1    
    48   23  147 1    
    49   23  148 1    
    50   24   25 am   BACKBONE|DICT|INTERRES
    51   24  149 1    
    52   25   26 2    
    53   25   27 1    
    54   27   28 1    
    55   27   29 1    
    56   27  150 1    
    57   28  151 1    
    58   28  152 1    
    59   28  153 1    
    60   29   30 am   BACKBONE|DICT|INTERRES
    61   29  154 1    
    62   30   31 2    
    63   30   32 1    
    64   32   33 1    
    65   32   34 1    
    66   32  155 1    
    67   33  156 1    
    68   33  157 1    
    69   33  158 1    
    70   34   35 am   BACKBONE|DICT|INTERRES
    71   34  159 1    
    72   35   36 2    
    73   35   37 1    
    74   37   38 1    
    75   37   39 1    
    76   37  160 1    
    77   38  161 1    
    78   38  162 1    
    79   38  163 1    
    80   39   40 am   BACKBONE|DICT|INTERRES
    81   39  164 1    
    82   40   41 2    
    83   40   42 1    
    84   42   43 1    
    85   42   44 1    
    86   42  165 1    
    87   43  166 1    
    88   43  167 1    
    89   43  168 1    
    90   44   45 am   BACKBONE|DICT|INTERRES
    91   44  169 1    
    92   45   46 2    
    93   45   47 1    
    94   47   48 1    
    95   47   49 1    
    96   47  170 1    
    97   48  171 1    
    98   48  172 1    
    99   48  173 1    
   100   49   50 am   BACKBONE|DICT|INTERRES
   101   49  174 1    
   102   50   51 2    
   103   50   52 1    
   104   52   53 1    
   105   52   54 1    
   106   52  175 1    
   107   53  176 1    
   108   53  177 1    
   109   53  178 1    
   110   54   55 am   BACKBONE|DICT|INTERRES
   111   54  179 1    
   112   55   56 2    
   113   55   57 1    
   114   57   58 1    
   115   57   59 1    
   116   57  180 1    
   117   58  181 1    
   118   58  182 1    
   119   58  183 1    
   120   59   60 am   BACKBONE|DICT|INTERRES
   121   59  184 1    
   122   60   61 2    
   123   60   62 1    
   124   62   63 1    
   125   62   64 1    
   126   62  185 1    
   127   63  186 1    
   128   63  187 1    
   129   63  188 1    
   130   64   65 am   BACKBONE|DICT|INTERRES
   131   64  189 1    
   132   65   66 2    
   133   67   68 2    
   134   67   69 am   BACKBONE|DICT|INTERRES
   135   69   70 1    
   136   69  190 1    
   137   70   71 1    
   138   70   72 1    
   139   70  191 1    
   140   71  192 1    
   141   71  193 1    
   142   71  194 1    
   143   72   73 2    
   144   72   74 am   BACKBONE|DICT|INTERRES
   145   74   75 1    
   146   74  195 1    
   147   75   76 1    
   148   75   77 1    
   149   75  196 1    
   150   76  197 1    
   151   76  198 1    
   152   76  199 1    
   153   77   78 2    
   154   77   79 am   BACKBONE|DICT|INTERRES
   155   79   80 1    
   156   79  200 1    
   157   80   81 1    
   158   80   82 1    
   159   80  201 1    
   160   81  202 1    
   161   81  203 1    
   162   81  204 1    
   163   82   83 2    
   164   82   84 am   BACKBONE|DICT|INTERRES
   165   84   85 1    
   166   84  205 1    
   167   85   86 1    
   168   85   87 1    
   169   85  206 1    
   170   86  207 1    
   171   86  208 1    
   172   86  209 1    
   173   87   88 2    
   174   87   89 am   BACKBONE|DICT|INTERRES
   175   89   90 1    
   176   89  210 1    
   177   90   91 1    
   178   90   92 1    
   179   90  211 1    
   180   91  212 1    
   181   91  213 1    
   182   91  214 1    
   183   92   93 2    
   184   92   94 am   BACKBONE|DICT|INTERRES
   185   94   95 1    
   186   94  215 1    
   187   95   96 1    
   188   95   97 1    
   189   95  216 1    
   190   96  217 1    
   191   96  218 1    
   192   96  219 1    
   193   97   98 2    
   194   97   99 am   BACKBONE|DICT|INTERRES
   195   99  100 1    
   196   99  220 1    
   197  100  101 1    
   198  100  102 1    
   199  100  221 1    
   200  101  222 1    
   201  101  223 1    
   202  101  224 1    
   203  102  103 2    
   204  102  104 am   BACKBONE|DICT|INTERRES
   205  104  105 1    
   206  104  225 1    
   207  105  106 1    
   208  105  107 1    
   209  105  226 1    
   210  106  227 1    
   211  106  228 1    
   212  106  229 1    
   213  107  108 2    
   214  107  109 am   BACKBONE|DICT|INTERRES
   215  109  110 1    
   216  109  230 1    
   217  110  111 1    
   218  110  112 1    
   219  110  231 1    
   220  111  232 1    
   221  111  233 1    
   222  111  234 1    
   223  112  113 2    
   224  112  114 am   BACKBONE|DICT|INTERRES
   225  114  115 1    
   226  114  235 1    
   227  115  116 1    
   228  115  117 1    
   229  115  236 1    
   230  116  237 1    
   231  116  238 1    
   232  116  239 1    
   233  117  118 2    
   234  117  119 am   BACKBONE|DICT|INTERRES
   235  119  120 1    
   236  119  240 1    
   237  120  121 1    
   238  120  124 1    
   239  120  241 1    
   240  121  122 am   BACKBONE|DICT|INTERRES
   241  121  123 2    
   242  122  242 1    
   243  122  243 1    
   244  124  125 1    
   245  124  244 1    
   246  124  245 1    
   247  125  126 1    
   248  126  246 1    
   249  126  247 1    
@<TRIPOS>SUBSTRUCTURE
     1 UNK         1 GROUP             0       ****    0 ROOT    
