@<TRIPOS>MOLECULE
3R540
247   249    1
SMALL
USER_CHARGES


@<TRIPOS>ATOM
      1 CA         -3.5075  -11.3539  -46.6011 C.3       0 UNK        -0.1800 
      2 C          -4.5734  -12.2367  -47.2492 C.2       0 UNK         0.5000 
      3 O          -5.6955  -11.7781  -47.4513 O.2       0 UNK        -0.5000 
      4 N          -4.2817  -13.5015  -47.5879 N.am      1 UNK        -0.5000 
      5 CA         -2.9997  -14.1962  -47.3973 C.3       1 UNK         0.1400 
      6 C6         -2.7925  -15.3437  -48.4154 C.3       23 UNK        -0.0398 
      7 S7         -2.6907  -14.7180  -50.1275 S.3       23 UNK        -0.2404 
      8 C8         -0.9304  -14.2617  -50.2725 C.3       23 UNK        -0.0205 
      9 C9         -0.0201  -15.4541  -50.5395 C.ar      23 UNK        -0.0193 
     10 C10         0.2514  -15.8473  -51.8552 C.ar      23 UNK        -0.1150 
     11 C11         1.1232  -16.9096  -52.1175 C.ar      23 UNK        -0.0193 
     12 C12         1.7297  -17.5732  -51.0484 C.ar      23 UNK        -0.1150 
     13 C13         1.4477  -17.2105  -49.7299 C.ar      23 UNK        -0.0193 
     14 C14         0.5800  -16.1442  -49.4807 C.ar      23 UNK        -0.1150 
     15 C15         2.0827  -17.9828  -48.5838 C.3       23 UNK        -0.0205 
     16 S16         1.4091  -19.6702  -48.4690 S.3       23 UNK        -0.2404 
     17 C17        -0.2264  -19.3396  -47.7372 C.3       23 UNK        -0.0398 
     18 CA         -1.1491  -20.5794  -47.7801 C.3       11 UNK         0.1400 
     19 N          -0.6198  -21.6898  -46.9827 N.am      11 UNK        -0.5000 
     20 C          -1.1999  -22.8911  -46.8442 C.2       10 UNK         0.5000 
     21 O          -2.2429  -23.2146  -47.4143 O.2       10 UNK        -0.5000 
     22 CA         -0.5506  -23.8834  -45.8603 C.3       10 UNK         0.1400 
     23 CB          0.3599  -24.8594  -46.6183 C.3       10 UNK        -0.1800 
     24 N           0.2091  -23.2624  -44.7713 N.am      10 UNK        -0.5000 
     25 C          -0.2503  -22.3435  -43.9092 C.2       9 UNK         0.5000 
     26 O          -1.3846  -21.8659  -43.9488 O.2       9 UNK        -0.5000 
     27 CA          0.7441  -21.8249  -42.8589 C.3       9 UNK         0.1400 
     28 CB          0.7380  -22.7358  -41.6227 C.3       9 UNK        -0.1800 
     29 N           2.1228  -21.6551  -43.3316 N.am      9 UNK        -0.5000 
     30 C           2.5037  -20.9636  -44.4175 C.2       8 UNK         0.5000 
     31 O           1.7234  -20.5507  -45.2755 O.2       8 UNK        -0.5000 
     32 CA          3.9986  -20.6128  -44.4932 C.3       8 UNK         0.1400 
     33 CB          4.3389  -19.6508  -45.6488 C.3       8 UNK        -0.1800 
     34 N           4.3892  -20.0179  -43.2165 N.am      8 UNK        -0.5000 
     35 C           5.6100  -20.0492  -42.6687 C.2       7 UNK         0.5000 
     36 O           6.5756  -20.5965  -43.2036 O.2       7 UNK        -0.5000 
     37 CA          5.7716  -19.3899  -41.2775 C.3       7 UNK         0.1400 
     38 CB          7.1939  -18.8418  -41.0329 C.3       7 UNK        -0.1800 
     39 N           4.7473  -18.3786  -40.9781 N.am      7 UNK        -0.5000 
     40 C           4.5661  -17.1994  -41.5907 C.2       6 UNK         0.5000 
     41 O           5.3108  -16.7438  -42.4602 O.2       6 UNK        -0.5000 
     42 CA          3.2895  -16.4254  -41.2010 C.3       6 UNK         0.1400 
     43 CB          3.6203  -14.9975  -40.7407 C.3       6 UNK        -0.1800 
     44 N           2.3506  -16.3720  -42.3240 N.am      6 UNK        -0.5000 
     45 C           1.8128  -17.4512  -42.9124 C.2       5 UNK         0.5000 
     46 O           1.9340  -18.5818  -42.4412 O.2       5 UNK        -0.5000 
     47 CA          1.0159  -17.2730  -44.2263 C.3       5 UNK         0.1400 
     48 CB         -0.4237  -17.7904  -44.0615 C.3       5 UNK        -0.1800 
     49 N           0.9585  -15.9003  -44.7274 N.am      5 UNK        -0.5000 
     50 C           1.9790  -15.1729  -45.2027 C.2       4 UNK         0.5000 
     51 O           3.1126  -15.6171  -45.3760 O.2       4 UNK        -0.5000 
     52 CA          1.6897  -13.6827  -45.4861 C.3       4 UNK         0.1400 
     53 CB          1.3740  -13.4653  -46.9724 C.3       4 UNK        -0.1800 
     54 N           0.5799  -13.1474  -44.6895 N.am      4 UNK        -0.5000 
     55 C           0.5700  -13.0188  -43.3530 C.2       3 UNK         0.5000 
     56 O           1.5423  -13.2530  -42.6373 O.2       3 UNK        -0.5000 
     57 CA         -0.7830  -12.6660  -42.7179 C.3       3 UNK         0.1400 
     58 CB         -1.1435  -11.1851  -42.9309 C.3       3 UNK        -0.1800 
     59 N          -1.7941  -13.5395  -43.3035 N.am      3 UNK        -0.5000 
     60 C          -2.9969  -13.8562  -42.8223 C.2       2 UNK         0.5000 
     61 O          -3.4680  -13.3754  -41.7908 O.2       2 UNK        -0.5000 
     62 CA         -3.7943  -14.8937  -43.6540 C.3       2 UNK         0.1400 
     63 CB         -5.2409  -15.0675  -43.1598 C.3       2 UNK        -0.1800 
     64 N          -3.8222  -14.5949  -45.0933 N.am      2 UNK        -0.5000 
     65 C          -2.7957  -14.6946  -45.9514 C.2       1 UNK         0.5000 
     66 O          -1.6814  -15.0971  -45.6155 O.2       1 UNK        -0.5000 
     67 C          -2.5849  -20.1901  -47.3704 C.2       11 UNK         0.5000 
     68 O          -3.3978  -19.9076  -48.2519 O.2       11 UNK        -0.5000 
     69 N          -2.8700  -20.2240  -46.0605 N.am      12 UNK        -0.5000 
     70 CA         -4.1679  -19.8801  -45.4838 C.3       12 UNK         0.1400 
     71 CB         -3.9677  -18.7904  -44.4190 C.3       12 UNK        -0.1800 
     72 C          -4.8772  -21.1048  -44.8810 C.2       12 UNK         0.5000 
     73 O          -6.0872  -21.2380  -45.0587 O.2       12 UNK        -0.5000 
     74 N          -4.1335  -21.9820  -44.1901 N.am      13 UNK        -0.5000 
     75 CA         -4.6735  -23.1281  -43.4510 C.3       13 UNK         0.1400 
     76 CB         -3.6096  -23.6667  -42.4814 C.3       13 UNK        -0.1800 
     77 C          -5.1833  -24.2526  -44.3670 C.2       13 UNK         0.5000 
     78 O          -6.2425  -24.8201  -44.0987 O.2       13 UNK        -0.5000 
     79 N          -4.4342  -24.5318  -45.4417 N.am      14 UNK        -0.5000 
     80 CA         -4.8282  -25.4574  -46.5088 C.3       14 UNK         0.1400 
     81 CB         -3.6105  -26.3015  -46.9234 C.3       14 UNK        -0.1800 
     82 C          -5.4246  -24.7038  -47.7149 C.2       14 UNK         0.5000 
     83 O          -5.8382  -25.3438  -48.6820 O.2       14 UNK        -0.5000 
     84 N          -5.4525  -23.3637  -47.6316 N.am      15 UNK        -0.5000 
     85 CA         -5.9368  -22.4021  -48.6234 C.3       15 UNK         0.1400 
     86 CB         -7.4612  -22.5430  -48.8113 C.3       15 UNK        -0.1800 
     87 C          -5.1594  -22.4551  -49.9542 C.2       15 UNK         0.5000 
     88 O          -5.7268  -22.1510  -51.0048 O.2       15 UNK        -0.5000 
     89 N          -3.8696  -22.8234  -49.8971 N.am      16 UNK        -0.5000 
     90 CA         -3.0116  -23.0118  -51.0688 C.3       16 UNK         0.1400 
     91 CB         -1.6605  -23.6005  -50.6365 C.3       16 UNK        -0.1800 
     92 C          -2.8053  -21.7338  -51.9004 C.2       16 UNK         0.5000 
     93 O          -2.6531  -21.8297  -53.1180 O.2       16 UNK        -0.5000 
     94 N          -2.8366  -20.5626  -51.2504 N.am      17 UNK        -0.5000 
     95 CA         -2.7279  -19.2739  -51.9293 C.3       17 UNK         0.1400 
     96 CB         -2.2745  -18.2015  -50.9385 C.3       17 UNK        -0.1800 
     97 C          -4.0330  -18.8652  -52.6305 C.2       17 UNK         0.5000 
     98 O          -3.9795  -18.3014  -53.7229 O.2       17 UNK        -0.5000 
     99 N          -5.1811  -19.1959  -52.0219 N.am      18 UNK        -0.5000 
    100 CA        -6.5109  -18.9784  -52.5982 C.3       18 UNK         0.1400 
    101 CB        -7.5774  -19.1375  -51.5054 C.3       18 UNK        -0.1800 
    102 C         -6.7873  -19.9263  -53.7800 C.2       18 UNK         0.5000 
    103 O         -7.4076  -19.5166  -54.7614 O.2       18 UNK        -0.5000 
    104 N         -6.2778  -21.1617  -53.6806 N.am      19 UNK        -0.5000 
    105 CA        -6.2830  -22.1691  -54.7427 C.3       19 UNK         0.1400 
    106 CB        -5.9646  -23.5364  -54.1169 C.3       19 UNK        -0.1800 
    107 C         -5.2919  -21.8648  -55.8870 C.2       19 UNK         0.5000 
    108 O         -5.3750  -22.5072  -56.9343 O.2       19 UNK        -0.5000 
    109 N         -4.3673  -20.9178  -55.6603 N.am      20 UNK        -0.5000 
    110 CA        -3.2635  -20.5078  -56.5364 C.3       20 UNK         0.1400 
    111 CB        -3.7924  -19.8788  -57.8418 C.3       20 UNK        -0.1800 
    112 C         -2.2343  -21.6335  -56.7782 C.2       20 UNK         0.5000 
    113 O         -1.5815  -21.6685  -57.8227 O.2       20 UNK        -0.5000 
    114 N         -2.0892  -22.5238  -55.7889 N.am      21 UNK        -0.5000 
    115 CA        -1.1303  -23.6271  -55.7715 C.3       21 UNK         0.1400 
    116 CB        -1.6683  -24.7285  -54.8441 C.3       21 UNK        -0.1800 
    117 C          0.2739  -23.1744  -55.3258 C.2       21 UNK         0.5000 
    118 O          1.2341  -23.9243  -55.5053 O.2       21 UNK        -0.5000 
    119 N          0.3723  -21.9646  -54.7581 N.am      22 UNK        -0.5000 
    120 CA         1.6202  -21.3242  -54.3176 C.3       22 UNK         0.1400 
    121 C          2.6017  -20.9021  -55.4543 C.2       22 UNK         0.5000 
    122 N          2.2033  -20.9124  -56.7211 N.am      22 UNK        -0.7600 
    123 O          3.7511  -20.5690  -55.1791 O.2       22 UNK        -0.5000 
    124 C124        1.3369  -20.1615  -53.3320 C.3       23 UNK        -0.0398 
    125 S125        0.4182  -18.7597  -54.0711 S.3       23 UNK        -0.2404 
    126 C126        1.4214  -17.3289  -53.5516 C.3       23 UNK        -0.0205 
    127 H127       -2.6588  -11.2140  -47.2705 H         1 UNK         0.0600 
    128 H128       -3.1539  -11.7826  -45.6641 H         1 UNK         0.0600 
    129 H129       -3.9155  -10.3681  -46.3769 H         1 UNK         0.0600 
    130 H130       -5.0008  -14.0508  -48.0369 H         1 UNK         0.3000 
    131 H131       -2.1957  -13.4793  -47.5677 H         1 UNK         0.0600 
    132 H132       -1.8920  -15.9167  -48.1958 H         1 UNK         0.0800 
    133 H133       -3.6164  -16.0572  -48.3590 H         1 UNK         0.0800 
    134 H134       -0.6078  -13.7297  -49.3780 H         1 UNK         0.0800 
    135 H135       -0.8314  -13.5458  -51.0897 H         1 UNK         0.0800 
    136 H136       -0.2154  -15.3222  -52.6767 H         1 UNK         0.1150 
    137 H137        2.4138  -18.3875  -51.2321 H         1 UNK         0.1150 
    138 H138        0.3761  -15.8554  -48.4610 H         1 UNK         0.1150 
    139 H139        1.9448  -17.4668  -47.6321 H         1 UNK         0.0800 
    140 H140        3.1596  -18.0431  -48.7458 H         1 UNK         0.0800 
    141 H141       -0.6800  -18.5021  -48.2684 H         1 UNK         0.0800 
    142 H142       -0.0775  -19.0078  -46.7099 H         1 UNK         0.0800 
    143 H143       -1.1992  -20.9212  -48.8145 H         1 UNK         0.0600 
    144 H144        0.2283  -21.4913  -46.4614 H         1 UNK         0.3000 
    145 H145       -1.3578  -24.4576  -45.4022 H         1 UNK         0.0600 
    146 H146       -0.1826  -25.3561  -47.4242 H         1 UNK         0.0600 
    147 H147        0.7412  -25.6384  -45.9579 H         1 UNK         0.0600 
    148 H148        1.2136  -24.3473  -47.0641 H         1 UNK         0.0600 
    149 H149        1.1698  -23.5557  -44.6712 H         1 UNK         0.3000 
    150 H150        0.3911  -20.8397  -42.5494 H         1 UNK         0.0600 
    151 H151        1.1366  -23.7253  -41.8498 H         1 UNK         0.0600 
    152 H152       -0.2749  -22.8692  -41.2395 H         1 UNK         0.0600 
    153 H153        1.3344  -22.3095  -40.8159 H         1 UNK         0.0600 
    154 H154        2.8444  -21.9472  -42.6891 H         1 UNK         0.3000 
    155 H155        4.5397  -21.5491  -44.6434 H         1 UNK         0.0600 
    156 H156        5.4096  -19.4530  -45.6970 H         1 UNK         0.0600 
    157 H157        3.8280  -18.6935  -45.5375 H         1 UNK         0.0600 
    158 H158        4.0433  -20.0724  -46.6103 H         1 UNK         0.0600 
    159 H159        3.6356  -19.5504  -42.7186 H         1 UNK         0.3000 
    160 H160        5.6103  -20.1922  -40.5563 H         1 UNK         0.0600 
    161 H161        7.4780  -18.0983  -41.7777 H         1 UNK         0.0600 
    162 H162        7.9334  -19.6422  -41.0765 H         1 UNK         0.0600 
    163 H163        7.2758  -18.3808  -40.0486 H         1 UNK         0.0600 
    164 H164        4.0556  -18.6643  -40.2985 H         1 UNK         0.3000 
    165 H165        2.7971  -16.9401  -40.3733 H         1 UNK         0.0600 
    166 H166        2.7267  -14.4799  -40.3913 H         1 UNK         0.0600 
    167 H167        4.3337  -15.0080  -39.9158 H         1 UNK         0.0600 
    168 H168        4.0559  -14.4050  -41.5464 H         1 UNK         0.0600 
    169 H169        2.2111  -15.4645  -42.7474 H         1 UNK         0.3000 
    170 H170        1.5123  -17.8785  -44.9861 H         1 UNK         0.0600 
    171 H171       -0.9940  -17.6823  -44.9836 H         1 UNK         0.0600 
    172 H172       -0.9561  -17.2516  -43.2771 H         1 UNK         0.0600 
    173 H173       -0.4334  -18.8493  -43.8011 H         1 UNK         0.0600 
    174 H174        0.0380  -15.4786  -44.7403 H         1 UNK         0.3000 
    175 H175        2.5920  -13.1205  -45.2369 H         1 UNK         0.0600 
    176 H176        2.1444  -13.9014  -47.6101 H         1 UNK         0.0600 
    177 H177        0.4218  -13.9200  -47.2421 H         1 UNK         0.0600 
    178 H178        1.3167  -12.4033  -47.2117 H         1 UNK         0.0600 
    179 H179       -0.2511  -12.9014  -45.2045 H         1 UNK         0.3000 
    180 H180       -0.7186  -12.8689  -41.6468 H         1 UNK         0.0600 
    181 H181       -1.2556  -10.9428  -43.9881 H         1 UNK         0.0600 
    182 H182       -0.3693  -10.5341  -42.5232 H         1 UNK         0.0600 
    183 H183       -2.0775  -10.9302  -42.4301 H         1 UNK         0.0600 
    184 H184       -1.5136  -14.0388  -44.1422 H         1 UNK         0.3000 
    185 H185       -3.2855  -15.8499  -43.5184 H         1 UNK         0.0600 
    186 H186       -5.2656  -15.3594  -42.1091 H         1 UNK         0.0600 
    187 H187       -5.8128  -14.1442  -43.2598 H         1 UNK         0.0600 
    188 H188       -5.7580  -15.8461  -43.7210 H         1 UNK         0.0600 
    189 H189       -4.6928  -14.2266  -45.4489 H         1 UNK         0.3000 
    190 H190       -2.1583  -20.5492  -45.4162 H         1 UNK         0.3000 
    191 H191       -4.8287  -19.4714  -46.2514 H         1 UNK         0.0600 
    192 H192       -3.5477  -17.8879  -44.8629 H         1 UNK         0.0600 
    193 H193       -4.9157  -18.5134  -43.9562 H         1 UNK         0.0600 
    194 H194       -3.2952  -19.1184  -43.6253 H         1 UNK         0.0600 
    195 H195       -3.1320  -21.8246  -44.0893 H         1 UNK         0.3000 
    196 H196       -5.5191  -22.7749  -42.8567 H         1 UNK         0.0600 
    197 H197       -4.0165  -24.4678  -41.8631 H         1 UNK         0.0600 
    198 H198       -3.2554  -22.8850  -41.8091 H         1 UNK         0.0600 
    199 H199       -2.7459  -24.0701  -43.0109 H         1 UNK         0.0600 
    200 H200       -3.5894  -24.0015  -45.6009 H         1 UNK         0.3000 
    201 H201       -5.5971  -26.1429  -46.1469 H         1 UNK         0.0600 
    202 H202       -3.9005  -27.0752  -47.6352 H         1 UNK         0.0600 
    203 H203       -3.1664  -26.8035  -46.0638 H         1 UNK         0.0600 
    204 H204       -2.8362  -25.7019  -47.3993 H         1 UNK         0.0600 
    205 H205       -5.0937  -22.9578  -46.7808 H         1 UNK         0.3000 
    206 H206       -5.7483  -21.4132  -48.2038 H         1 UNK         0.0600 
    207 H207       -7.9795  -22.5172  -47.8527 H         1 UNK         0.0600 
    208 H208       -7.8612  -21.7282  -49.4137 H         1 UNK         0.0600 
    209 H209       -7.7232  -23.4764  -49.3104 H         1 UNK         0.0600 
    210 H210       -3.4584  -23.0365  -48.9931 H         1 UNK         0.3000 
    211 H211       -3.5023  -23.7422  -51.7147 H         1 UNK         0.0600 
    212 H212       -1.1056  -22.9169  -49.9953 H         1 UNK         0.0600 
    213 H213       -1.0323  -23.8145  -51.5019 H         1 UNK         0.0600 
    214 H214       -1.7937  -24.5354  -50.0917 H         1 UNK         0.0600 
    215 H215       -3.0164  -20.5469  -50.2537 H         1 UNK         0.3000 
    216 H216       -1.9613  -19.3559  -52.6990 H         1 UNK         0.0600 
    217 H217       -2.1752  -17.2444  -51.4481 H         1 UNK         0.0600 
    218 H218       -1.2997  -18.4452  -50.5187 H         1 UNK         0.0600 
    219 H219       -2.9825  -18.0677  -50.1210 H         1 UNK         0.0600 
    220 H220       -5.1406  -19.7023  -51.1496 H         1 UNK         0.3000 
    221 H221       -6.5585  -17.9533  -52.9720 H         1 UNK         0.0600 
    222 H222       -7.5981  -20.1522  -51.1101 H         1 UNK         0.0600 
    223 H223       -7.3987  -18.4549  -50.6745 H         1 UNK         0.0600 
    224 H224       -8.5714  -18.9198  -51.8982 H         1 UNK         0.0600 
    225 H225       -5.8612  -21.4404  -52.7962 H         1 UNK         0.3000 
    226 H226       -7.2849  -22.2110  -55.1745 H         1 UNK         0.0600 
    227 H227       -6.0198  -24.3315  -54.8614 H         1 UNK         0.0600 
    228 H228       -4.9617  -23.5566  -53.6898 H         1 UNK         0.0600 
    229 H229       -6.6712  -23.7833  -53.3241 H         1 UNK         0.0600 
    230 H230       -4.3917  -20.4579  -54.7608 H         1 UNK         0.3000 
    231 H231       -2.7277  -19.7281  -55.9930 H         1 UNK         0.0600 
    232 H232       -4.2756  -20.6166  -58.4826 H         1 UNK         0.0600 
    233 H233       -2.9806  -19.4309  -58.4160 H         1 UNK         0.0600 
    234 H234       -4.5146  -19.0894  -57.6335 H         1 UNK         0.0600 
    235 H235       -2.5968  -22.3651  -54.9221 H         1 UNK         0.3000 
    236 H236       -1.0422  -24.0397  -56.7786 H         1 UNK         0.0600 
    237 H237       -1.7663  -24.3779  -53.8167 H         1 UNK         0.0600 
    238 H238       -2.6477  -25.0764  -55.1732 H         1 UNK         0.0600 
    239 H239       -1.0024  -25.5922  -54.8345 H         1 UNK         0.0600 
    240 H240       -0.4713  -21.4233  -54.6380 H         1 UNK         0.3000 
    241 H241        2.1620  -22.0827  -53.7493 H         1 UNK         0.0600 
    242 H242        1.2618  -21.1799  -56.9610 H         1 UNK         0.3800 
    243 H243        2.8486  -20.6420  -57.4464 H         1 UNK         0.3800 
    244 H244        2.2822  -19.8102  -52.9196 H         1 UNK         0.0800 
    245 H245        0.7632  -20.5281  -52.4794 H         1 UNK         0.0800 
    246 H246        1.2140  -16.4994  -54.2290 H         1 UNK         0.0800 
    247 H247        2.4829  -17.5521  -53.6690 H         1 UNK         0.0800 
@<TRIPOS>BOND
     1    1    2 1    
     2    1  127 1    
     3    1  128 1    
     4    1  129 1    
     5    2    3 2    
     6    2    4 am   BACKBONE|DICT|INTERRES
     7    4    5 1    
     8    4  130 1    
     9    5    6 1    
    10    5   65 1    
    11    5  131 1    
    12    6    7 1    
    13    6  132 1    
    14    6  133 1    
    15    7    8 1    
    16    8    9 1    
    17    8  134 1    
    18    8  135 1    
    19    9   10 ar   
    20    9   14 ar   
    21   10   11 ar   
    22   10  136 1    
    23   11   12 ar   
    24   11  126 1    
    25   12   13 ar   
    26   12  137 1    
    27   13   14 ar   
    28   13   15 1    
    29   14  138 1    
    30   15   16 1    
    31   15  139 1    
    32   15  140 1    
    33   16   17 1    
    34   17   18 1    
    35   17  141 1    
    36   17  142 1    
    37   18   19 1    
    38   18   67 1    
    39   18  143 1    
    40   19   20 am   BACKBONE|DICT|INTERRES
    41   19  144 1    
    42   20   21 2    
    43   20   22 1    
    44   22   23 1    
    45   22   24 1    
    46   22  145 1    
    47   23  146 1    
    48   23  147 1    
    49   23  148 1    
    50   24   25 am   BACKBONE|DICT|INTERRES
    51   24  149 1    
    52   25   26 2    
    53   25   27 1    
    54   27   28 1    
    55   27   29 1    
    56   27  150 1    
    57   28  151 1    
    58   28  152 1    
    59   28  153 1    
    60   29   30 am   BACKBONE|DICT|INTERRES
    61   29  154 1    
    62   30   31 2    
    63   30   32 1    
    64   32   33 1    
    65   32   34 1    
    66   32  155 1    
    67   33  156 1    
    68   33  157 1    
    69   33  158 1    
    70   34   35 am   BACKBONE|DICT|INTERRES
    71   34  159 1    
    72   35   36 2    
    73   35   37 1    
    74   37   38 1    
    75   37   39 1    
    76   37  160 1    
    77   38  161 1    
    78   38  162 1    
    79   38  163 1    
    80   39   40 am   BACKBONE|DICT|INTERRES
    81   39  164 1    
    82   40   41 2    
    83   40   42 1    
    84   42   43 1    
    85   42   44 1    
    86   42  165 1    
    87   43  166 1    
    88   43  167 1    
    89   43  168 1    
    90   44   45 am   BACKBONE|DICT|INTERRES
    91   44  169 1    
    92   45   46 2    
    93   45   47 1    
    94   47   48 1    
    95   47   49 1    
    96   47  170 1    
    97   48  171 1    
    98   48  172 1    
    99   48  173 1    
   100   49   50 am   BACKBONE|DICT|INTERRES
   101   49  174 1    
   102   50   51 2    
   103   50   52 1    
   104   52   53 1    
   105   52   54 1    
   106   52  175 1    
   107   53  176 1    
   108   53  177 1    
   109   53  178 1    
   110   54   55 am   BACKBONE|DICT|INTERRES
   111   54  179 1    
   112   55   56 2    
   113   55   57 1    
   114   57   58 1    
   115   57   59 1    
   116   57  180 1    
   117   58  181 1    
   118   58  182 1    
   119   58  183 1    
   120   59   60 am   BACKBONE|DICT|INTERRES
   121   59  184 1    
   122   60   61 2    
   123   60   62 1    
   124   62   63 1    
   125   62   64 1    
   126   62  185 1    
   127   63  186 1    
   128   63  187 1    
   129   63  188 1    
   130   64   65 am   BACKBONE|DICT|INTERRES
   131   64  189 1    
   132   65   66 2    
   133   67   68 2    
   134   67   69 am   BACKBONE|DICT|INTERRES
   135   69   70 1    
   136   69  190 1    
   137   70   71 1    
   138   70   72 1    
   139   70  191 1    
   140   71  192 1    
   141   71  193 1    
   142   71  194 1    
   143   72   73 2    
   144   72   74 am   BACKBONE|DICT|INTERRES
   145   74   75 1    
   146   74  195 1    
   147   75   76 1    
   148   75   77 1    
   149   75  196 1    
   150   76  197 1    
   151   76  198 1    
   152   76  199 1    
   153   77   78 2    
   154   77   79 am   BACKBONE|DICT|INTERRES
   155   79   80 1    
   156   79  200 1    
   157   80   81 1    
   158   80   82 1    
   159   80  201 1    
   160   81  202 1    
   161   81  203 1    
   162   81  204 1    
   163   82   83 2    
   164   82   84 am   BACKBONE|DICT|INTERRES
   165   84   85 1    
   166   84  205 1    
   167   85   86 1    
   168   85   87 1    
   169   85  206 1    
   170   86  207 1    
   171   86  208 1    
   172   86  209 1    
   173   87   88 2    
   174   87   89 am   BACKBONE|DICT|INTERRES
   175   89   90 1    
   176   89  210 1    
   177   90   91 1    
   178   90   92 1    
   179   90  211 1    
   180   91  212 1    
   181   91  213 1    
   182   91  214 1    
   183   92   93 2    
   184   92   94 am   BACKBONE|DICT|INTERRES
   185   94   95 1    
   186   94  215 1    
   187   95   96 1    
   188   95   97 1    
   189   95  216 1    
   190   96  217 1    
   191   96  218 1    
   192   96  219 1    
   193   97   98 2    
   194   97   99 am   BACKBONE|DICT|INTERRES
   195   99  100 1    
   196   99  220 1    
   197  100  101 1    
   198  100  102 1    
   199  100  221 1    
   200  101  222 1    
   201  101  223 1    
   202  101  224 1    
   203  102  103 2    
   204  102  104 am   BACKBONE|DICT|INTERRES
   205  104  105 1    
   206  104  225 1    
   207  105  106 1    
   208  105  107 1    
   209  105  226 1    
   210  106  227 1    
   211  106  228 1    
   212  106  229 1    
   213  107  108 2    
   214  107  109 am   BACKBONE|DICT|INTERRES
   215  109  110 1    
   216  109  230 1    
   217  110  111 1    
   218  110  112 1    
   219  110  231 1    
   220  111  232 1    
   221  111  233 1    
   222  111  234 1    
   223  112  113 2    
   224  112  114 am   BACKBONE|DICT|INTERRES
   225  114  115 1    
   226  114  235 1    
   227  115  116 1    
   228  115  117 1    
   229  115  236 1    
   230  116  237 1    
   231  116  238 1    
   232  116  239 1    
   233  117  118 2    
   234  117  119 am   BACKBONE|DICT|INTERRES
   235  119  120 1    
   236  119  240 1    
   237  120  121 1    
   238  120  124 1    
   239  120  241 1    
   240  121  122 am   BACKBONE|DICT|INTERRES
   241  121  123 2    
   242  122  242 1    
   243  122  243 1    
   244  124  125 1    
   245  124  244 1    
   246  124  245 1    
   247  125  126 1    
   248  126  246 1    
   249  126  247 1    
@<TRIPOS>SUBSTRUCTURE
     1 UNK         1 GROUP             0       ****    0 ROOT    
