@<TRIPOS>MOLECULE
3R540
247   249    1
SMALL
USER_CHARGES


@<TRIPOS>ATOM
      1 CA          4.2595  -10.0712  -47.9240 C.3       0 UNK        -0.1800 
      2 C           3.9228  -11.4617  -47.4059 C.2       0 UNK         0.5000 
      3 O           3.6849  -11.6227  -46.2098 O.2       0 UNK        -0.5000 
      4 N           3.9191  -12.4607  -48.3005 N.am      1 UNK        -0.5000 
      5 CA          3.5759  -13.8722  -48.0517 C.3       1 UNK         0.1400 
      6 C6          2.0636  -14.1177  -47.7838 C.3       23 UNK        -0.0398 
      7 S7          0.9682  -13.3518  -49.0267 S.3       23 UNK        -0.2404 
      8 C8          1.0928  -14.5112  -50.4306 C.3       23 UNK        -0.0205 
      9 C9          0.2400  -15.7651  -50.2749 C.ar      23 UNK        -0.0193 
     10 C10        -1.1255  -15.6613  -49.9933 C.ar      23 UNK        -0.1150 
     11 C11        -1.9287  -16.8025  -49.9293 C.ar      23 UNK        -0.0193 
     12 C12        -1.3580  -18.0595  -50.1412 C.ar      23 UNK        -0.1150 
     13 C13         0.0018  -18.1793  -50.4423 C.ar      23 UNK        -0.0193 
     14 C14         0.7966  -17.0289  -50.5009 C.ar      23 UNK        -0.1150 
     15 C15         0.5927  -19.5505  -50.7490 C.3       23 UNK        -0.0205 
     16 S16         1.9416  -20.0303  -49.6202 S.3       23 UNK        -0.2404 
     17 C17         1.1436  -19.9011  -47.9864 C.3       23 UNK        -0.0398 
     18 CA          0.6260  -21.2459  -47.4263 C.3       11 UNK         0.1400 
     19 N           0.4201  -21.1662  -45.9810 N.am      11 UNK        -0.5000 
     20 C           0.0928  -22.1824  -45.1736 C.2       10 UNK         0.5000 
     21 O          -0.0145  -23.3497  -45.5487 O.2       10 UNK        -0.5000 
     22 CA         -0.2201  -21.8148  -43.7108 C.3       10 UNK         0.1400 
     23 CB          1.0688  -21.6592  -42.8899 C.3       10 UNK        -0.1800 
     24 N          -1.0194  -20.5907  -43.6119 N.am      10 UNK        -0.5000 
     25 C          -2.2869  -20.4886  -44.0368 C.2       9 UNK         0.5000 
     26 O          -2.9277  -21.4352  -44.4946 O.2       9 UNK        -0.5000 
     27 CA         -2.9332  -19.0913  -43.9786 C.3       9 UNK         0.1400 
     28 CB         -3.4560  -18.7916  -42.5662 C.3       9 UNK        -0.1800 
     29 N          -2.0229  -18.0259  -44.4027 N.am      9 UNK        -0.5000 
     30 C          -1.5326  -17.8970  -45.6444 C.2       8 UNK         0.5000 
     31 O          -1.8421  -18.6350  -46.5761 O.2       8 UNK        -0.5000 
     32 CA         -0.4794  -16.7983  -45.8778 C.3       8 UNK         0.1400 
     33 CB         -1.1633  -15.4522  -46.1505 C.3       8 UNK        -0.1800 
     34 N           0.4632  -16.6747  -44.7623 N.am      8 UNK        -0.5000 
     35 C           1.2778  -17.6580  -44.3506 C.2       7 UNK         0.5000 
     36 O           1.3496  -18.7527  -44.9041 O.2       7 UNK        -0.5000 
     37 CA          2.1052  -17.4221  -43.0781 C.3       7 UNK         0.1400 
     38 CB          3.4482  -16.7640  -43.3942 C.3       7 UNK        -0.1800 
     39 N           1.3856  -16.6232  -42.0916 N.am      7 UNK        -0.5000 
     40 C           0.4063  -17.1087  -41.3190 C.2       6 UNK         0.5000 
     41 O           0.0400  -18.2849  -41.3343 O.2       6 UNK        -0.5000 
     42 CA         -0.3059  -16.0950  -40.4069 C.3       6 UNK         0.1400 
     43 CB          0.5479  -15.7792  -39.1694 C.3       6 UNK        -0.1800 
     44 N          -0.6294  -14.8496  -41.1042 N.am      6 UNK        -0.5000 
     45 C          -1.4916  -14.7578  -42.1259 C.2       5 UNK         0.5000 
     46 O          -2.1159  -15.7149  -42.5824 O.2       5 UNK        -0.5000 
     47 CA         -1.6719  -13.3685  -42.7636 C.3       5 UNK         0.1400 
     48 CB         -2.7724  -12.5850  -42.0328 C.3       5 UNK        -0.1800 
     49 N          -0.4544  -12.5554  -42.8090 N.am      5 UNK        -0.5000 
     50 C           0.7000  -12.8910  -43.4028 C.2       4 UNK         0.5000 
     51 O           0.9046  -13.9888  -43.9240 O.2       4 UNK        -0.5000 
     52 CA          1.7919  -11.8013  -43.4530 C.3       4 UNK         0.1400 
     53 CB          1.6573  -10.7328  -42.3433 C.3       4 UNK        -0.1800 
     54 N           3.1553  -12.3378  -43.4732 N.am      4 UNK        -0.5000 
     55 C           3.7441  -13.0796  -42.5260 C.2       3 UNK         0.5000 
     56 O           3.1557  -13.5245  -41.5375 O.2       3 UNK        -0.5000 
     57 CA          5.2468  -13.3469  -42.7192 C.3       3 UNK         0.1400 
     58 CB          5.8603  -14.2287  -41.6107 C.3       3 UNK        -0.1800 
     59 N           5.5221  -13.9071  -44.0431 N.am      3 UNK        -0.5000 
     60 C           6.7047  -13.8409  -44.6664 C.2       2 UNK         0.5000 
     61 O           7.6862  -13.2625  -44.1974 O.2       2 UNK        -0.5000 
     62 CA          6.8333  -14.5161  -46.0466 C.3       2 UNK         0.1400 
     63 CB          7.0119  -16.0416  -45.9142 C.3       2 UNK        -0.1800 
     64 N           5.7663  -14.1622  -46.9904 N.am      2 UNK        -0.5000 
     65 C           4.4724  -14.5120  -46.9675 C.2       1 UNK         0.5000 
     66 O           3.9845  -15.2627  -46.1249 O.2       1 UNK        -0.5000 
     67 C          -0.6476  -21.7267  -48.1518 C.2       11 UNK         0.5000 
     68 O          -0.5651  -22.6462  -48.9624 O.2       11 UNK        -0.5000 
     69 N          -1.8054  -21.1416  -47.8120 N.am      12 UNK        -0.5000 
     70 CA         -3.1266  -21.5276  -48.3093 C.3       12 UNK         0.1400 
     71 CB         -4.1890  -20.5776  -47.7408 C.3       12 UNK        -0.1800 
     72 C          -3.4940  -22.9850  -47.9857 C.2       12 UNK         0.5000 
     73 O          -4.0253  -23.6777  -48.8539 O.2       12 UNK        -0.5000 
     74 N          -3.1816  -23.4271  -46.7591 N.am      13 UNK        -0.5000 
     75 CA         -3.3658  -24.8047  -46.3050 C.3       13 UNK         0.1400 
     76 CB         -3.1406  -24.8891  -44.7880 C.3       13 UNK        -0.1800 
     77 C          -2.4617  -25.7964  -47.0593 C.2       13 UNK         0.5000 
     78 O          -2.9472  -26.8392  -47.4979 O.2       13 UNK        -0.5000 
     79 N          -1.1828  -25.4375  -47.2452 N.am      14 UNK        -0.5000 
     80 CA         -0.2075  -26.2016  -48.0306 C.3       14 UNK         0.1400 
     81 CB          1.1896  -25.5903  -47.8457 C.3       14 UNK        -0.1800 
     82 C          -0.5770  -26.2852  -49.5254 C.2       14 UNK         0.5000 
     83 O          -0.3975  -27.3341  -50.1445 O.2       14 UNK        -0.5000 
     84 N          -1.1308  -25.1900  -50.0596 N.am      15 UNK        -0.5000 
     85 CA         -1.6853  -25.0698  -51.4079 C.3       15 UNK         0.1400 
     86 CB         -1.8087  -23.5741  -51.7427 C.3       15 UNK        -0.1800 
     87 C          -3.0515  -25.7639  -51.5880 C.2       15 UNK         0.5000 
     88 O          -3.5679  -25.7757  -52.7086 O.2       15 UNK        -0.5000 
     89 N          -3.6373  -26.2711  -50.4905 N.am      16 UNK        -0.5000 
     90 CA         -4.9467  -26.9269  -50.3765 C.3       16 UNK         0.1400 
     91 CB         -4.9195  -28.2890  -51.0994 C.3       16 UNK        -0.1800 
     92 C          -6.1269  -26.0419  -50.8352 C.2       16 UNK         0.5000 
     93 O          -7.1626  -26.5667  -51.2473 O.2       16 UNK        -0.5000 
     94 N          -5.9253  -24.7151  -50.8010 N.am      17 UNK        -0.5000 
     95 CA         -6.7592  -23.6618  -51.3915 C.3       17 UNK         0.1400 
     96 CB         -8.0741  -23.5063  -50.6022 C.3       17 UNK        -0.1800 
     97 C          -6.9902  -23.8212  -52.9158 C.2       17 UNK         0.5000 
     98 O          -7.9602  -23.2762  -53.4458 O.2       17 UNK        -0.5000 
     99 N          -6.1079  -24.5723  -53.5908 N.am      18 UNK        -0.5000 
    100 CA        -6.2024  -24.9231  -55.0050 C.3       18 UNK         0.1400 
    101 CB        -6.1497  -26.4530  -55.1486 C.3       18 UNK        -0.1800 
    102 C         -5.0721  -24.2607  -55.8017 C.2       18 UNK         0.5000 
    103 O         -5.3432  -23.6330  -56.8258 O.2       18 UNK        -0.5000 
    104 N         -3.8287  -24.3839  -55.3122 N.am      19 UNK        -0.5000 
    105 CA        -2.6468  -23.7680  -55.9279 C.3       19 UNK         0.1400 
    106 CB        -1.3853  -24.5335  -55.4978 C.3       19 UNK        -0.1800 
    107 C         -2.5273  -22.2588  -55.6256 C.2       19 UNK         0.5000 
    108 O         -1.7933  -21.5565  -56.3218 O.2       19 UNK        -0.5000 
    109 N         -3.2664  -21.7878  -54.6159 N.am      20 UNK        -0.5000 
    110 CA        -3.4591  -20.3897  -54.2632 C.3       20 UNK         0.1400 
    111 CB        -2.5592  -20.0194  -53.0709 C.3       20 UNK        -0.1800 
    112 C         -4.9430  -20.2524  -53.9113 C.2       20 UNK         0.5000 
    113 O         -5.4002  -20.9276  -52.9872 O.2       20 UNK        -0.5000 
    114 N         -5.6760  -19.4144  -54.6557 N.am      21 UNK        -0.5000 
    115 CA        -7.1327  -19.2508  -54.5466 C.3       21 UNK         0.1400 
    116 CB        -7.6179  -18.3285  -55.6755 C.3       21 UNK        -0.1800 
    117 C         -7.6154  -18.7288  -53.1780 C.2       21 UNK         0.5000 
    118 O         -8.7492  -19.0047  -52.7848 O.2       21 UNK        -0.5000 
    119 N         -6.7376  -18.0055  -52.4754 N.am      22 UNK        -0.5000 
    120 CA        -6.8957  -17.5910  -51.0746 C.3       22 UNK         0.1400 
    121 C         -6.6989  -18.7323  -50.0321 C.2       22 UNK         0.5000 
    122 N         -6.2818  -19.9343  -50.4138 N.am      22 UNK        -0.7600 
    123 O         -6.9513  -18.5268  -48.8485 O.2       22 UNK        -0.5000 
    124 C124       -6.0298  -16.3442  -50.7499 C.3       23 UNK        -0.0398 
    125 S125       -4.2872  -16.4930  -51.2807 S.3       23 UNK        -0.2404 
    126 C126       -3.4227  -16.6704  -49.6921 C.3       23 UNK        -0.0205 
    127 H127        5.1454   -9.6874  -47.4182 H         1 UNK         0.0600 
    128 H128        4.4532  -10.0731  -48.9969 H         1 UNK         0.0600 
    129 H129        3.4318   -9.3895  -47.7290 H         1 UNK         0.0600 
    130 H130        4.1294  -12.2408  -49.2639 H         1 UNK         0.3000 
    131 H131        3.8293  -14.4007  -48.9712 H         1 UNK         0.0600 
    132 H132        1.8459  -15.1866  -47.7429 H         1 UNK         0.0800 
    133 H133        1.7877  -13.7152  -46.8072 H         1 UNK         0.0800 
    134 H134        0.7622  -13.9910  -51.3304 H         1 UNK         0.0800 
    135 H135        2.1387  -14.7681  -50.6003 H         1 UNK         0.0800 
    136 H136       -1.5704  -14.6863  -49.8519 H         1 UNK         0.1150 
    137 H137       -1.9835  -18.9405  -50.1042 H         1 UNK         0.1150 
    138 H138        1.8450  -17.1208  -50.7477 H         1 UNK         0.1150 
    139 H139       -0.1800  -20.3205  -50.7262 H         1 UNK         0.0800 
    140 H140        0.9781  -19.5437  -51.7693 H         1 UNK         0.0800 
    141 H141        0.3570  -19.1480  -47.9947 H         1 UNK         0.0800 
    142 H142        1.9129  -19.5061  -47.3226 H         1 UNK         0.0800 
    143 H143        1.3987  -22.0007  -47.5867 H         1 UNK         0.0600 
    144 H144        0.5497  -20.2468  -45.5637 H         1 UNK         0.3000 
    145 H145       -0.7998  -22.6330  -43.2784 H         1 UNK         0.0600 
    146 H146        0.8466  -21.4350  -41.8464 H         1 UNK         0.0600 
    147 H147        1.6542  -22.5793  -42.9086 H         1 UNK         0.0600 
    148 H148        1.7026  -20.8606  -43.2751 H         1 UNK         0.0600 
    149 H149       -0.5606  -19.7687  -43.2426 H         1 UNK         0.3000 
    150 H150       -3.7858  -19.0921  -44.6605 H         1 UNK         0.0600 
    151 H151       -4.1413  -19.5703  -42.2290 H         1 UNK         0.0600 
    152 H152       -3.9995  -17.8469  -42.5407 H         1 UNK         0.0600 
    153 H153       -2.6448  -18.7290  -41.8403 H         1 UNK         0.0600 
    154 H154       -1.7722  -17.3351  -43.7021 H         1 UNK         0.3000 
    155 H155        0.0974  -17.0662  -46.7651 H         1 UNK         0.0600 
    156 H156       -0.4371  -14.6525  -46.2899 H         1 UNK         0.0600 
    157 H157       -1.8265  -15.1697  -45.3350 H         1 UNK         0.0600 
    158 H158       -1.7678  -15.5035  -47.0564 H         1 UNK         0.0600 
    159 H159        0.5128  -15.7698  -44.2999 H         1 UNK         0.3000 
    160 H160        2.3176  -18.4023  -42.6454 H         1 UNK         0.0600 
    161 H161        3.3121  -15.7251  -43.6882 H         1 UNK         0.0600 
    162 H162        3.9616  -17.2794  -44.2069 H         1 UNK         0.0600 
    163 H163        4.1040  -16.7922  -42.5262 H         1 UNK         0.0600 
    164 H164        1.6000  -15.6352  -42.0549 H         1 UNK         0.3000 
    165 H165       -1.2412  -16.5483  -40.0714 H         1 UNK         0.0600 
    166 H166        1.4836  -15.2870  -39.4391 H         1 UNK         0.0600 
    167 H167        0.0135  -15.1276  -38.4779 H         1 UNK         0.0600 
    168 H168        0.8004  -16.6910  -38.6265 H         1 UNK         0.0600 
    169 H169       -0.1398  -14.0173  -40.8098 H         1 UNK         0.3000 
    170 H170       -1.9978  -13.5172  -43.7932 H         1 UNK         0.0600 
    171 H171       -3.7026  -13.1543  -42.0019 H         1 UNK         0.0600 
    172 H172       -2.4909  -12.3600  -41.0033 H         1 UNK         0.0600 
    173 H173       -2.9879  -11.6424  -42.5365 H         1 UNK         0.0600 
    174 H174       -0.5238  -11.6348  -42.4008 H         1 UNK         0.3000 
    175 H175        1.6580  -11.2965  -44.4103 H         1 UNK         0.0600 
    176 H176        2.4746  -10.0131  -42.3943 H         1 UNK         0.0600 
    177 H177        0.7330  -10.1631  -42.4440 H         1 UNK         0.0600 
    178 H178        1.6703  -11.1770  -41.3472 H         1 UNK         0.0600 
    179 H179        3.6800  -12.0988  -44.3103 H         1 UNK         0.3000 
    180 H180        5.7238  -12.3664  -42.6587 H         1 UNK         0.0600 
    181 H181        5.4495  -15.2363  -41.6199 H         1 UNK         0.0600 
    182 H182        5.6687  -13.8059  -40.6238 H         1 UNK         0.0600 
    183 H183        6.9419  -14.3096  -41.7168 H         1 UNK         0.0600 
    184 H184        4.7567  -14.3812  -44.5149 H         1 UNK         0.3000 
    185 H185        7.7491  -14.1280  -46.4953 H         1 UNK         0.0600 
    186 H186        7.1413  -16.5100  -46.8897 H         1 UNK         0.0600 
    187 H187        7.8966  -16.2757  -45.3210 H         1 UNK         0.0600 
    188 H188        6.1620  -16.5159  -45.4234 H         1 UNK         0.0600 
    189 H189        6.0410  -13.5026  -47.7051 H         1 UNK         0.3000 
    190 H190       -1.7842  -20.3426  -47.1809 H         1 UNK         0.3000 
    191 H191       -3.1189  -21.4182  -49.3952 H         1 UNK         0.0600 
    192 H192       -4.0439  -19.5619  -48.1043 H         1 UNK         0.0600 
    193 H193       -5.1930  -20.8888  -48.0277 H         1 UNK         0.0600 
    194 H194       -4.1638  -20.5467  -46.6527 H         1 UNK         0.0600 
    195 H195       -2.7950  -22.7716  -46.0884 H         1 UNK         0.3000 
    196 H196       -4.4023  -25.0837  -46.5061 H         1 UNK         0.0600 
    197 H197       -3.3103  -25.9034  -44.4248 H         1 UNK         0.0600 
    198 H198       -3.8256  -24.2321  -44.2517 H         1 UNK         0.0600 
    199 H199       -2.1248  -24.6076  -44.5113 H         1 UNK         0.0600 
    200 H200       -0.8497  -24.5775  -46.8178 H         1 UNK         0.3000 
    201 H201       -0.1876  -27.2199  -47.6371 H         1 UNK         0.0600 
    202 H202        1.4833  -25.5896  -46.7959 H         1 UNK         0.0600 
    203 H203        1.2302  -24.5612  -48.2036 H         1 UNK         0.0600 
    204 H204        1.9409  -26.1593  -48.3945 H         1 UNK         0.0600 
    205 H205       -1.1520  -24.3426  -49.4965 H         1 UNK         0.3000 
    206 H206       -0.9913  -25.5297  -52.1136 H         1 UNK         0.0600 
    207 H207       -0.8335  -23.0868  -51.7478 H         1 UNK         0.0600 
    208 H208       -2.2545  -23.4185  -52.7216 H         1 UNK         0.0600 
    209 H209       -2.4391  -23.0534  -51.0232 H         1 UNK         0.0600 
    210 H210       -3.1419  -26.1688  -49.6138 H         1 UNK         0.3000 
    211 H211       -5.1033  -27.1146  -49.3136 H         1 UNK         0.0600 
    212 H212       -4.8329  -28.1704  -52.1801 H         1 UNK         0.0600 
    213 H213       -5.8300  -28.8565  -50.9041 H         1 UNK         0.0600 
    214 H214       -4.0813  -28.8977  -50.7602 H         1 UNK         0.0600 
    215 H215       -5.0721  -24.3915  -50.3524 H         1 UNK         0.3000 
    216 H216       -6.1931  -22.7394  -51.2675 H         1 UNK         0.0600 
    217 H217       -7.8810  -23.3825  -49.5366 H         1 UNK         0.0600 
    218 H218       -8.7255  -24.3713  -50.7284 H         1 UNK         0.0600 
    219 H219       -8.6273  -22.6266  -50.9337 H         1 UNK         0.0600 
    220 H220       -5.3308  -24.9814  -53.0823 H         1 UNK         0.3000 
    221 H221       -7.1502  -24.5799  -55.4249 H         1 UNK         0.0600 
    222 H222       -5.2274  -26.8693  -54.7413 H         1 UNK         0.0600 
    223 H223       -6.9833  -26.9228  -54.6261 H         1 UNK         0.0600 
    224 H224       -6.2119  -26.7501  -56.1961 H         1 UNK         0.0600 
    225 H225       -3.6788  -24.9276  -54.4671 H         1 UNK         0.3000 
    226 H226       -2.7320  -23.8669  -57.0122 H         1 UNK         0.0600 
    227 H227       -1.4448  -25.5818  -55.7909 H         1 UNK         0.0600 
    228 H228       -0.4959  -24.1157  -55.9711 H         1 UNK         0.0600 
    229 H229       -1.2275  -24.4988  -54.4221 H         1 UNK         0.0600 
    230 H230       -3.8756  -22.4303  -54.1285 H         1 UNK         0.3000 
    231 H231       -3.2230  -19.7431  -55.1109 H         1 UNK         0.0600 
    232 H232       -2.7002  -18.9760  -52.7864 H         1 UNK         0.0600 
    233 H233       -1.5056  -20.1508  -53.3173 H         1 UNK         0.0600 
    234 H234       -2.7739  -20.6306  -52.1932 H         1 UNK         0.0600 
    235 H235       -5.2252  -18.8962  -55.3961 H         1 UNK         0.3000 
    236 H236       -7.5844  -20.2348  -54.6911 H         1 UNK         0.0600 
    237 H237       -8.7014  -18.2060  -55.6422 H         1 UNK         0.0600 
    238 H238       -7.1729  -17.3354  -55.6022 H         1 UNK         0.0600 
    239 H239       -7.3695  -18.7381  -56.6548 H         1 UNK         0.0600 
    240 H240       -5.8282  -17.8300  -52.8770 H         1 UNK         0.3000 
    241 H241       -7.9358  -17.2837  -50.9511 H         1 UNK         0.0600 
    242 H242       -6.0582  -20.1404  -51.3827 H         1 UNK         0.3800 
    243 H243       -6.1920  -20.6534  -49.7184 H         1 UNK         0.3800 
    244 H244       -6.4474  -15.4822  -51.2716 H         1 UNK         0.0800 
    245 H245       -6.0816  -16.0891  -49.6900 H         1 UNK         0.0800 
    246 H246       -3.6290  -15.8054  -49.0600 H         1 UNK         0.0800 
    247 H247       -3.8014  -17.5437  -49.1616 H         1 UNK         0.0800 
@<TRIPOS>BOND
     1    1    2 1    
     2    1  127 1    
     3    1  128 1    
     4    1  129 1    
     5    2    3 2    
     6    2    4 am   BACKBONE|DICT|INTERRES
     7    4    5 1    
     8    4  130 1    
     9    5    6 1    
    10    5   65 1    
    11    5  131 1    
    12    6    7 1    
    13    6  132 1    
    14    6  133 1    
    15    7    8 1    
    16    8    9 1    
    17    8  134 1    
    18    8  135 1    
    19    9   10 ar   
    20    9   14 ar   
    21   10   11 ar   
    22   10  136 1    
    23   11   12 ar   
    24   11  126 1    
    25   12   13 ar   
    26   12  137 1    
    27   13   14 ar   
    28   13   15 1    
    29   14  138 1    
    30   15   16 1    
    31   15  139 1    
    32   15  140 1    
    33   16   17 1    
    34   17   18 1    
    35   17  141 1    
    36   17  142 1    
    37   18   19 1    
    38   18   67 1    
    39   18  143 1    
    40   19   20 am   BACKBONE|DICT|INTERRES
    41   19  144 1    
    42   20   21 2    
    43   20   22 1    
    44   22   23 1    
    45   22   24 1    
    46   22  145 1    
    47   23  146 1    
    48   23  147 1    
    49   23  148 1    
    50   24   25 am   BACKBONE|DICT|INTERRES
    51   24  149 1    
    52   25   26 2    
    53   25   27 1    
    54   27   28 1    
    55   27   29 1    
    56   27  150 1    
    57   28  151 1    
    58   28  152 1    
    59   28  153 1    
    60   29   30 am   BACKBONE|DICT|INTERRES
    61   29  154 1    
    62   30   31 2    
    63   30   32 1    
    64   32   33 1    
    65   32   34 1    
    66   32  155 1    
    67   33  156 1    
    68   33  157 1    
    69   33  158 1    
    70   34   35 am   BACKBONE|DICT|INTERRES
    71   34  159 1    
    72   35   36 2    
    73   35   37 1    
    74   37   38 1    
    75   37   39 1    
    76   37  160 1    
    77   38  161 1    
    78   38  162 1    
    79   38  163 1    
    80   39   40 am   BACKBONE|DICT|INTERRES
    81   39  164 1    
    82   40   41 2    
    83   40   42 1    
    84   42   43 1    
    85   42   44 1    
    86   42  165 1    
    87   43  166 1    
    88   43  167 1    
    89   43  168 1    
    90   44   45 am   BACKBONE|DICT|INTERRES
    91   44  169 1    
    92   45   46 2    
    93   45   47 1    
    94   47   48 1    
    95   47   49 1    
    96   47  170 1    
    97   48  171 1    
    98   48  172 1    
    99   48  173 1    
   100   49   50 am   BACKBONE|DICT|INTERRES
   101   49  174 1    
   102   50   51 2    
   103   50   52 1    
   104   52   53 1    
   105   52   54 1    
   106   52  175 1    
   107   53  176 1    
   108   53  177 1    
   109   53  178 1    
   110   54   55 am   BACKBONE|DICT|INTERRES
   111   54  179 1    
   112   55   56 2    
   113   55   57 1    
   114   57   58 1    
   115   57   59 1    
   116   57  180 1    
   117   58  181 1    
   118   58  182 1    
   119   58  183 1    
   120   59   60 am   BACKBONE|DICT|INTERRES
   121   59  184 1    
   122   60   61 2    
   123   60   62 1    
   124   62   63 1    
   125   62   64 1    
   126   62  185 1    
   127   63  186 1    
   128   63  187 1    
   129   63  188 1    
   130   64   65 am   BACKBONE|DICT|INTERRES
   131   64  189 1    
   132   65   66 2    
   133   67   68 2    
   134   67   69 am   BACKBONE|DICT|INTERRES
   135   69   70 1    
   136   69  190 1    
   137   70   71 1    
   138   70   72 1    
   139   70  191 1    
   140   71  192 1    
   141   71  193 1    
   142   71  194 1    
   143   72   73 2    
   144   72   74 am   BACKBONE|DICT|INTERRES
   145   74   75 1    
   146   74  195 1    
   147   75   76 1    
   148   75   77 1    
   149   75  196 1    
   150   76  197 1    
   151   76  198 1    
   152   76  199 1    
   153   77   78 2    
   154   77   79 am   BACKBONE|DICT|INTERRES
   155   79   80 1    
   156   79  200 1    
   157   80   81 1    
   158   80   82 1    
   159   80  201 1    
   160   81  202 1    
   161   81  203 1    
   162   81  204 1    
   163   82   83 2    
   164   82   84 am   BACKBONE|DICT|INTERRES
   165   84   85 1    
   166   84  205 1    
   167   85   86 1    
   168   85   87 1    
   169   85  206 1    
   170   86  207 1    
   171   86  208 1    
   172   86  209 1    
   173   87   88 2    
   174   87   89 am   BACKBONE|DICT|INTERRES
   175   89   90 1    
   176   89  210 1    
   177   90   91 1    
   178   90   92 1    
   179   90  211 1    
   180   91  212 1    
   181   91  213 1    
   182   91  214 1    
   183   92   93 2    
   184   92   94 am   BACKBONE|DICT|INTERRES
   185   94   95 1    
   186   94  215 1    
   187   95   96 1    
   188   95   97 1    
   189   95  216 1    
   190   96  217 1    
   191   96  218 1    
   192   96  219 1    
   193   97   98 2    
   194   97   99 am   BACKBONE|DICT|INTERRES
   195   99  100 1    
   196   99  220 1    
   197  100  101 1    
   198  100  102 1    
   199  100  221 1    
   200  101  222 1    
   201  101  223 1    
   202  101  224 1    
   203  102  103 2    
   204  102  104 am   BACKBONE|DICT|INTERRES
   205  104  105 1    
   206  104  225 1    
   207  105  106 1    
   208  105  107 1    
   209  105  226 1    
   210  106  227 1    
   211  106  228 1    
   212  106  229 1    
   213  107  108 2    
   214  107  109 am   BACKBONE|DICT|INTERRES
   215  109  110 1    
   216  109  230 1    
   217  110  111 1    
   218  110  112 1    
   219  110  231 1    
   220  111  232 1    
   221  111  233 1    
   222  111  234 1    
   223  112  113 2    
   224  112  114 am   BACKBONE|DICT|INTERRES
   225  114  115 1    
   226  114  235 1    
   227  115  116 1    
   228  115  117 1    
   229  115  236 1    
   230  116  237 1    
   231  116  238 1    
   232  116  239 1    
   233  117  118 2    
   234  117  119 am   BACKBONE|DICT|INTERRES
   235  119  120 1    
   236  119  240 1    
   237  120  121 1    
   238  120  124 1    
   239  120  241 1    
   240  121  122 am   BACKBONE|DICT|INTERRES
   241  121  123 2    
   242  122  242 1    
   243  122  243 1    
   244  124  125 1    
   245  124  244 1    
   246  124  245 1    
   247  125  126 1    
   248  126  246 1    
   249  126  247 1    
@<TRIPOS>SUBSTRUCTURE
     1 UNK         1 GROUP             0       ****    0 ROOT    
