@<TRIPOS>MOLECULE
3R540
247   249    1
SMALL
USER_CHARGES


@<TRIPOS>ATOM
      1 CA          5.9903  -12.4148  -49.2931 C.3       0 UNK        -0.1800 
      2 C           4.8539  -13.4252  -49.2270 C.2       0 UNK         0.5000 
      3 O           4.5089  -13.8876  -48.1389 O.2       0 UNK        -0.5000 
      4 N           4.2744  -13.7730  -50.3840 N.am      1 UNK        -0.5000 
      5 CA          3.1219  -14.6693  -50.5041 C.3       1 UNK         0.1400 
      6 C6          2.8787  -15.0946  -51.9745 C.3       23 UNK        -0.0398 
      7 S7          1.7722  -16.5401  -52.1150 S.3       23 UNK        -0.2404 
      8 C8          2.9899  -17.8894  -52.1380 C.3       23 UNK        -0.0205 
      9 C9          2.3334  -19.2552  -52.0031 C.ar      23 UNK        -0.0193 
     10 C10         1.6694  -19.8257  -53.0936 C.ar      23 UNK        -0.1150 
     11 C11         1.1296  -21.1123  -53.0029 C.ar      23 UNK        -0.0193 
     12 C12         1.2430  -21.8203  -51.8020 C.ar      23 UNK        -0.1150 
     13 C13         1.9070  -21.2643  -50.7047 C.ar      23 UNK        -0.0193 
     14 C14         2.4435  -19.9773  -50.8094 C.ar      23 UNK        -0.1150 
     15 C15         2.1433  -22.0966  -49.4518 C.3       23 UNK        -0.0205 
     16 S16         1.1518  -21.5748  -48.0154 S.3       23 UNK        -0.2404 
     17 C17         1.8785  -22.6684  -46.7425 C.3       23 UNK        -0.0398 
     18 CA          0.8981  -23.4985  -45.8727 C.3       11 UNK         0.1400 
     19 N           0.2419  -22.7022  -44.8287 N.am      11 UNK        -0.5000 
     20 C           0.1164  -23.0941  -43.5512 C.2       10 UNK         0.5000 
     21 O           0.5310  -24.1742  -43.1292 O.2       10 UNK        -0.5000 
     22 CA         -0.6137  -22.1511  -42.5764 C.3       10 UNK         0.1400 
     23 CB          0.3982  -21.2820  -41.8144 C.3       10 UNK        -0.1800 
     24 N          -1.6274  -21.3017  -43.2057 N.am      10 UNK        -0.5000 
     25 C          -2.7382  -21.7584  -43.8018 C.2       9 UNK         0.5000 
     26 O          -3.0005  -22.9552  -43.9115 O.2       9 UNK        -0.5000 
     27 CA         -3.7205  -20.7186  -44.3740 C.3       9 UNK         0.1400 
     28 CB         -4.8252  -20.4045  -43.3547 C.3       9 UNK        -0.1800 
     29 N          -3.0767  -19.4694  -44.7750 N.am      9 UNK        -0.5000 
     30 C          -2.2421  -19.3433  -45.8144 C.2       8 UNK         0.5000 
     31 O          -1.9384  -20.2617  -46.5757 O.2       8 UNK        -0.5000 
     32 CA         -1.6202  -17.9547  -46.0189 C.3       8 UNK         0.1400 
     33 CB         -2.6240  -17.0053  -46.6951 C.3       8 UNK        -0.1800 
     34 N          -1.1365  -17.3685  -44.7725 N.am      8 UNK        -0.5000 
     35 C          -0.1268  -17.8654  -44.0434 C.2       7 UNK         0.5000 
     36 O           0.5447  -18.8402  -44.3789 O.2       7 UNK        -0.5000 
     37 CA          0.1550  -17.1806  -42.6947 C.3       7 UNK         0.1400 
     38 CB          1.1099  -15.9899  -42.8731 C.3       7 UNK        -0.1800 
     39 N          -1.0728  -16.7349  -42.0338 N.am      7 UNK        -0.5000 
     40 C          -1.9998  -17.5585  -41.5226 C.2       6 UNK         0.5000 
     41 O          -1.9010  -18.7843  -41.5219 O.2       6 UNK        -0.5000 
     42 CA         -3.2719  -16.8998  -40.9604 C.3       6 UNK         0.1400 
     43 CB         -3.0375  -16.3993  -39.5273 C.3       6 UNK        -0.1800 
     44 N          -3.7353  -15.7903  -41.7942 N.am      6 UNK        -0.5000 
     45 C          -4.2131  -15.9285  -43.0392 C.2       5 UNK         0.5000 
     46 O          -4.3592  -17.0155  -43.5984 O.2       5 UNK        -0.5000 
     47 CA         -4.5210  -14.6261  -43.8033 C.3       5 UNK         0.1400 
     48 CB         -5.9391  -14.1310  -43.4844 C.3       5 UNK        -0.1800 
     49 N          -3.5531  -13.5586  -43.5229 N.am      5 UNK        -0.5000 
     50 C          -2.2563  -13.6247  -43.8487 C.2       4 UNK         0.5000 
     51 O          -1.7488  -14.5931  -44.4219 O.2       4 UNK        -0.5000 
     52 CA         -1.3664  -12.4449  -43.4348 C.3       4 UNK         0.1400 
     53 CB         -0.9607  -12.5488  -41.9546 C.3       4 UNK        -0.1800 
     54 N          -0.1802  -12.4882  -44.2770 N.am      4 UNK        -0.5000 
     55 C           0.5800  -11.4550  -44.6505 C.2       3 UNK         0.5000 
     56 O           0.4562  -10.3148  -44.2015 O.2       3 UNK        -0.5000 
     57 CA          1.6437  -11.7408  -45.7347 C.3       3 UNK         0.1400 
     58 CB          3.0190  -11.9735  -45.0908 C.3       3 UNK        -0.1800 
     59 N           1.3235  -12.8873  -46.5953 N.am      3 UNK        -0.5000 
     60 C           0.2529  -12.9707  -47.3988 C.2       2 UNK         0.5000 
     61 O          -0.5654  -12.0604  -47.5413 O.2       2 UNK        -0.5000 
     62 CA          0.0767  -14.3062  -48.1502 C.3       2 UNK         0.1400 
     63 CB         -1.1643  -14.3200  -49.0619 C.3       2 UNK        -0.1800 
     64 N           1.2706  -14.7050  -48.9003 N.am      2 UNK        -0.5000 
     65 C           1.8725  -14.0142  -49.8797 C.2       1 UNK         0.5000 
     66 O           1.4968  -12.9159  -50.2958 O.2       1 UNK        -0.5000 
     67 C          -0.0910  -24.3908  -46.6580 C.2       11 UNK         0.5000 
     68 O           0.2265  -24.8261  -47.7677 O.2       11 UNK        -0.5000 
     69 N          -1.2562  -24.7008  -46.0648 N.am      12 UNK        -0.5000 
     70 CA         -2.2707  -25.6223  -46.5958 C.3       12 UNK         0.1400 
     71 CB         -3.5093  -25.6070  -45.6890 C.3       12 UNK        -0.1800 
     72 C          -1.7795  -27.0649  -46.8174 C.2       12 UNK         0.5000 
     73 O          -2.3617  -27.7797  -47.6333 O.2       12 UNK        -0.5000 
     74 N          -0.6979  -27.4538  -46.1277 N.am      13 UNK        -0.5000 
     75 CA          0.0332  -28.7009  -46.3570 C.3       13 UNK         0.1400 
     76 CB          1.0827  -28.8754  -45.2489 C.3       13 UNK        -0.1800 
     77 C           0.6991  -28.7622  -47.7481 C.2       13 UNK         0.5000 
     78 O           0.8648  -29.8577  -48.2861 O.2       13 UNK        -0.5000 
     79 N           1.0524  -27.5949  -48.3061 N.am      14 UNK        -0.5000 
     80 CA          1.5505  -27.4447  -49.6692 C.3       14 UNK         0.1400 
     81 CB          2.6192  -26.3409  -49.7170 C.3       14 UNK        -0.1800 
     82 C           0.3895  -27.1543  -50.6344 C.2       14 UNK         0.5000 
     83 O           0.2183  -27.9035  -51.5968 O.2       14 UNK        -0.5000 
     84 N          -0.3976  -26.1030  -50.3526 N.am      15 UNK        -0.5000 
     85 CA         -1.5675  -25.7063  -51.1510 C.3       15 UNK         0.1400 
     86 CB         -1.1568  -25.2633  -52.5722 C.3       15 UNK        -0.1800 
     87 C          -2.4252  -24.6057  -50.4994 C.2       15 UNK         0.5000 
     88 O          -3.6243  -24.5701  -50.7714 O.2       15 UNK        -0.5000 
     89 N          -1.8113  -23.7563  -49.6609 N.am      16 UNK        -0.5000 
     90 CA         -2.3279  -22.5179  -49.0564 C.3       16 UNK         0.1400 
     91 CB         -3.7668  -22.6358  -48.5129 C.3       16 UNK        -0.1800 
     92 C          -2.1656  -21.3302  -50.0229 C.2       16 UNK         0.5000 
     93 O          -2.4895  -21.4459  -51.2034 O.2       16 UNK        -0.5000 
     94 N          -1.6343  -20.2174  -49.5031 N.am      17 UNK        -0.5000 
     95 CA         -1.1187  -19.0837  -50.2766 C.3       17 UNK         0.1400 
     96 CB         -0.2584  -18.2019  -49.3564 C.3       17 UNK        -0.1800 
     97 C          -2.1939  -18.2543  -51.0063 C.2       17 UNK         0.5000 
     98 O          -3.3736  -18.6076  -51.0018 O.2       17 UNK        -0.5000 
     99 N          -1.7569  -17.1502  -51.6287 N.am      18 UNK        -0.5000 
    100 CA        -2.5338  -16.2774  -52.5168 C.3       18 UNK         0.1400 
    101 CB        -1.6628  -15.0830  -52.9342 C.3       18 UNK        -0.1800 
    102 C         -3.8987  -15.7917  -51.9838 C.2       18 UNK         0.5000 
    103 O         -4.8366  -15.6531  -52.7690 O.2       18 UNK        -0.5000 
    104 N         -3.9971  -15.5587  -50.6691 N.am      19 UNK        -0.5000 
    105 CA        -5.2344  -15.1443  -50.0021 C.3       19 UNK         0.1400 
    106 CB        -4.8771  -14.3074  -48.7628 C.3       19 UNK        -0.1800 
    107 C         -6.1384  -16.3258  -49.5972 C.2       19 UNK         0.5000 
    108 O         -7.2918  -16.0895  -49.2344 O.2       19 UNK        -0.5000 
    109 N         -5.6081  -17.5556  -49.6231 N.am      20 UNK        -0.5000 
    110 CA        -6.2644  -18.7524  -49.1031 C.3       20 UNK         0.1400 
    111 CB        -5.3246  -19.4392  -48.1021 C.3       20 UNK        -0.1800 
    112 C         -6.6987  -19.7241  -50.2132 C.2       20 UNK         0.5000 
    113 O         -7.8002  -20.2675  -50.1141 O.2       20 UNK        -0.5000 
    114 N         -5.8657  -19.9310  -51.2448 N.am      21 UNK        -0.5000 
    115 CA        -6.1736  -20.8451  -52.3499 C.3       21 UNK         0.1400 
    116 CB        -5.9122  -22.3056  -51.9463 C.3       21 UNK        -0.1800 
    117 C         -5.4369  -20.5028  -53.6526 C.2       21 UNK         0.5000 
    118 O         -6.0741  -20.5094  -54.7066 O.2       21 UNK        -0.5000 
    119 N         -4.1290  -20.2170  -53.5837 N.am      22 UNK        -0.5000 
    120 CA        -3.2762  -19.9413  -54.7617 C.3       22 UNK         0.1400 
    121 C         -3.5655  -18.6120  -55.5281 C.2       22 UNK         0.5000 
    122 N         -4.5227  -17.7890  -55.1224 N.am      22 UNK        -0.7600 
    123 O         -2.9141  -18.3248  -56.5286 O.2       22 UNK        -0.5000 
    124 C124       -1.7657  -20.0976  -54.4355 C.3       23 UNK        -0.0398 
    125 S125       -1.3138  -21.8381  -54.1398 S.3       23 UNK        -0.2404 
    126 C126        0.5012  -21.7711  -54.2241 C.3       23 UNK        -0.0205 
    127 H127        6.1885  -12.0930  -50.3157 H         1 UNK         0.0600 
    128 H128        6.9043  -12.8515  -48.8905 H         1 UNK         0.0600 
    129 H129        5.7425  -11.5338  -48.7010 H         1 UNK         0.0600 
    130 H130        4.5837  -13.3358  -51.2403 H         1 UNK         0.3000 
    131 H131        3.3669  -15.5689  -49.9348 H         1 UNK         0.0600 
    132 H132        2.4581  -14.2723  -52.5565 H         1 UNK         0.0800 
    133 H133        3.8263  -15.3411  -52.4557 H         1 UNK         0.0800 
    134 H134        3.7118  -17.7389  -51.3339 H         1 UNK         0.0800 
    135 H135        3.5555  -17.8484  -53.0701 H         1 UNK         0.0800 
    136 H136        1.6018  -19.2772  -54.0227 H         1 UNK         0.1150 
    137 H137        0.8474  -22.8220  -51.7346 H         1 UNK         0.1150 
    138 H138        2.9750  -19.5535  -49.9690 H         1 UNK         0.1150 
    139 H139        1.9317  -23.1458  -49.6560 H         1 UNK         0.0800 
    140 H140        3.2022  -22.0425  -49.1946 H         1 UNK         0.0800 
    141 H141        2.5024  -22.0507  -46.0952 H         1 UNK         0.0800 
    142 H142        2.5735  -23.3566  -47.2264 H         1 UNK         0.0800 
    143 H143        1.5432  -24.2251  -45.3746 H         1 UNK         0.0600 
    144 H144       -0.1444  -21.8111  -45.1128 H         1 UNK         0.3000 
    145 H145       -1.1275  -22.7799  -41.8464 H         1 UNK         0.0600 
    146 H146       -0.0915  -20.6794  -41.0501 H         1 UNK         0.0600 
    147 H147        1.1395  -21.9011  -41.3076 H         1 UNK         0.0600 
    148 H148        0.9375  -20.6105  -42.4816 H         1 UNK         0.0600 
    149 H149       -1.5136  -20.3017  -43.0978 H         1 UNK         0.3000 
    150 H150       -4.1863  -21.1583  -45.2584 H         1 UNK         0.0600 
    151 H151       -5.3469  -21.3123  -43.0493 H         1 UNK         0.0600 
    152 H152       -5.5685  -19.7273  -43.7762 H         1 UNK         0.0600 
    153 H153       -4.4199  -19.9379  -42.4559 H         1 UNK         0.0600 
    154 H154       -3.3086  -18.6439  -44.2317 H         1 UNK         0.3000 
    155 H155       -0.7495  -18.0764  -46.6604 H         1 UNK         0.0600 
    156 H156       -2.9423  -17.3927  -47.6635 H         1 UNK         0.0600 
    157 H157       -2.1907  -16.0205  -46.8587 H         1 UNK         0.0600 
    158 H158       -3.5227  -16.8713  -46.0945 H         1 UNK         0.0600 
    159 H159       -1.5843  -16.5107  -44.4647 H         1 UNK         0.3000 
    160 H160        0.6421  -17.9119  -42.0461 H         1 UNK         0.0600 
    161 H161        0.6891  -15.2240  -43.5235 H         1 UNK         0.0600 
    162 H162        2.0524  -16.3120  -43.3176 H         1 UNK         0.0600 
    163 H163        1.3455  -15.5252  -41.9156 H         1 UNK         0.0600 
    164 H164       -1.2526  -15.7432  -42.0290 H         1 UNK         0.3000 
    165 H165       -4.0572  -17.6585  -40.9343 H         1 UNK         0.0600 
    166 H166       -3.9544  -15.9978  -39.0955 H         1 UNK         0.0600 
    167 H167       -2.7037  -17.2119  -38.8807 H         1 UNK         0.0600 
    168 H168       -2.2781  -15.6171  -39.4905 H         1 UNK         0.0600 
    169 H169       -3.6520  -14.8612  -41.4094 H         1 UNK         0.3000 
    170 H170       -4.4727  -14.8516  -44.8709 H         1 UNK         0.0600 
    171 H171       -6.6792  -14.9023  -43.7021 H         1 UNK         0.0600 
    172 H172       -6.0461  -13.8601  -42.4334 H         1 UNK         0.0600 
    173 H173       -6.1958  -13.2580  -44.0848 H         1 UNK         0.0600 
    174 H174       -3.9057  -12.7374  -43.0525 H         1 UNK         0.3000 
    175 H175       -1.9109  -11.5151  -43.6121 H         1 UNK         0.0600 
    176 H176       -0.4129  -13.4692  -41.7500 H         1 UNK         0.0600 
    177 H177       -0.3255  -11.7127  -41.6619 H         1 UNK         0.0600 
    178 H178       -1.8357  -12.5328  -41.3039 H         1 UNK         0.0600 
    179 H179       -0.0461  -13.3818  -44.7324 H         1 UNK         0.3000 
    180 H180        1.7076  -10.8557  -46.3708 H         1 UNK         0.0600 
    181 H181        3.0213  -12.8624  -44.4585 H         1 UNK         0.0600 
    182 H182        3.3076  -11.1260  -44.4676 H         1 UNK         0.0600 
    183 H183        3.7936  -12.0974  -45.8482 H         1 UNK         0.0600 
    184 H184        1.9752  -13.6589  -46.5746 H         1 UNK         0.3000 
    185 H185       -0.0701  -15.0676  -47.3830 H         1 UNK         0.0600 
    186 H186       -2.0641  -14.1353  -48.4777 H         1 UNK         0.0600 
    187 H187       -1.1134  -13.5497  -49.8317 H         1 UNK         0.0600 
    188 H188       -1.2798  -15.2823  -49.5550 H         1 UNK         0.0600 
    189 H189        1.6889  -15.5787  -48.6142 H         1 UNK         0.3000 
    190 H190       -1.4656  -24.2806  -45.1685 H         1 UNK         0.3000 
    191 H191       -2.5683  -25.2601  -47.5766 H         1 UNK         0.0600 
    192 H192       -3.9865  -24.6275  -45.6952 H         1 UNK         0.0600 
    193 H193       -4.2565  -26.3263  -46.0272 H         1 UNK         0.0600 
    194 H194       -3.2562  -25.8540  -44.6574 H         1 UNK         0.0600 
    195 H195       -0.3026  -26.8118  -45.4568 H         1 UNK         0.3000 
    196 H196       -0.6774  -29.5275  -46.2922 H         1 UNK         0.0600 
    197 H197        1.6313  -29.8098  -45.3747 H         1 UNK         0.0600 
    198 H198        0.6162  -28.9041  -44.2640 H         1 UNK         0.0600 
    199 H199        1.8114  -28.0637  -45.2529 H         1 UNK         0.0600 
    200 H200        0.8375  -26.7343  -47.8170 H         1 UNK         0.3000 
    201 H201        2.0287  -28.3718  -49.9931 H         1 UNK         0.0600 
    202 H202        3.4858  -26.6111  -49.1135 H         1 UNK         0.0600 
    203 H203        2.2422  -25.3906  -49.3449 H         1 UNK         0.0600 
    204 H204        2.9703  -26.1799  -50.7370 H         1 UNK         0.0600 
    205 H205       -0.2267  -25.5913  -49.4929 H         1 UNK         0.3000 
    206 H206       -2.2122  -26.5832  -51.2404 H         1 UNK         0.0600 
    207 H207       -0.7770  -26.0937  -53.1659 H         1 UNK         0.0600 
    208 H208       -2.0071  -24.8525  -53.1186 H         1 UNK         0.0600 
    209 H209       -0.3877  -24.4939  -52.5456 H         1 UNK         0.0600 
    210 H210       -0.8222  -23.8897  -49.5068 H         1 UNK         0.3000 
    211 H211       -1.6822  -22.3462  -48.1961 H         1 UNK         0.0600 
    212 H212       -4.5111  -22.4763  -49.2932 H         1 UNK         0.0600 
    213 H213       -3.9363  -21.8897  -47.7386 H         1 UNK         0.0600 
    214 H214       -3.9649  -23.6050  -48.0619 H         1 UNK         0.0600 
    215 H215       -1.4693  -20.1978  -48.5019 H         1 UNK         0.3000 
    216 H216       -0.4716  -19.5012  -51.0481 H         1 UNK         0.0600 
    217 H217        0.4428  -17.6009  -49.9278 H         1 UNK         0.0600 
    218 H218        0.3385  -18.7952  -48.6647 H         1 UNK         0.0600 
    219 H219       -0.8677  -17.5089  -48.7833 H         1 UNK         0.0600 
    220 H220       -0.7689  -16.9423  -51.5815 H         1 UNK         0.3000 
    221 H221       -2.7331  -16.8605  -53.4128 H         1 UNK         0.0600 
    222 H222       -1.3293  -14.5040  -52.0732 H         1 UNK         0.0600 
    223 H223       -0.7784  -15.4121  -53.4797 H         1 UNK         0.0600 
    224 H224       -2.2113  -14.4075  -53.5921 H         1 UNK         0.0600 
    225 H225       -3.1865  -15.7024  -50.0881 H         1 UNK         0.3000 
    226 H226       -5.8129  -14.5087  -50.6761 H         1 UNK         0.0600 
    227 H227       -4.2881  -13.4315  -49.0349 H         1 UNK         0.0600 
    228 H228       -5.7763  -13.9443  -48.2633 H         1 UNK         0.0600 
    229 H229       -4.3126  -14.8873  -48.0322 H         1 UNK         0.0600 
    230 H230       -4.6876  -17.6935  -50.0287 H         1 UNK         0.3000 
    231 H231       -7.1673  -18.4787  -48.5532 H         1 UNK         0.0600 
    232 H232       -4.3660  -19.6863  -48.5575 H         1 UNK         0.0600 
    233 H233       -5.7659  -20.3609  -47.7216 H         1 UNK         0.0600 
    234 H234       -5.1299  -18.7971  -47.2431 H         1 UNK         0.0600 
    235 H235       -4.9655  -19.4558  -51.2669 H         1 UNK         0.3000 
    236 H236       -7.2379  -20.7516  -52.5777 H         1 UNK         0.0600 
    237 H237       -6.5000  -22.5972  -51.0762 H         1 UNK         0.0600 
    238 H238       -6.1707  -22.9885  -52.7562 H         1 UNK         0.0600 
    239 H239       -4.8616  -22.4653  -51.7106 H         1 UNK         0.0600 
    240 H240       -3.6483  -20.3038  -52.6940 H         1 UNK         0.3000 
    241 H241       -3.5167  -20.7127  -55.4960 H         1 UNK         0.0600 
    242 H242       -4.6992  -16.9405  -55.6359 H         1 UNK         0.3800 
    243 H243       -5.0865  -18.0106  -54.3182 H         1 UNK         0.3800 
    244 H244       -1.1450  -19.7408  -55.2591 H         1 UNK         0.0800 
    245 H245       -1.4912  -19.5009  -53.5663 H         1 UNK         0.0800 
    246 H246        0.8793  -22.7908  -54.3086 H         1 UNK         0.0800 
    247 H247        0.8058  -21.2626  -55.1401 H         1 UNK         0.0800 
@<TRIPOS>BOND
     1    1    2 1    
     2    1  127 1    
     3    1  128 1    
     4    1  129 1    
     5    2    3 2    
     6    2    4 am   BACKBONE|DICT|INTERRES
     7    4    5 1    
     8    4  130 1    
     9    5    6 1    
    10    5   65 1    
    11    5  131 1    
    12    6    7 1    
    13    6  132 1    
    14    6  133 1    
    15    7    8 1    
    16    8    9 1    
    17    8  134 1    
    18    8  135 1    
    19    9   10 ar   
    20    9   14 ar   
    21   10   11 ar   
    22   10  136 1    
    23   11   12 ar   
    24   11  126 1    
    25   12   13 ar   
    26   12  137 1    
    27   13   14 ar   
    28   13   15 1    
    29   14  138 1    
    30   15   16 1    
    31   15  139 1    
    32   15  140 1    
    33   16   17 1    
    34   17   18 1    
    35   17  141 1    
    36   17  142 1    
    37   18   19 1    
    38   18   67 1    
    39   18  143 1    
    40   19   20 am   BACKBONE|DICT|INTERRES
    41   19  144 1    
    42   20   21 2    
    43   20   22 1    
    44   22   23 1    
    45   22   24 1    
    46   22  145 1    
    47   23  146 1    
    48   23  147 1    
    49   23  148 1    
    50   24   25 am   BACKBONE|DICT|INTERRES
    51   24  149 1    
    52   25   26 2    
    53   25   27 1    
    54   27   28 1    
    55   27   29 1    
    56   27  150 1    
    57   28  151 1    
    58   28  152 1    
    59   28  153 1    
    60   29   30 am   BACKBONE|DICT|INTERRES
    61   29  154 1    
    62   30   31 2    
    63   30   32 1    
    64   32   33 1    
    65   32   34 1    
    66   32  155 1    
    67   33  156 1    
    68   33  157 1    
    69   33  158 1    
    70   34   35 am   BACKBONE|DICT|INTERRES
    71   34  159 1    
    72   35   36 2    
    73   35   37 1    
    74   37   38 1    
    75   37   39 1    
    76   37  160 1    
    77   38  161 1    
    78   38  162 1    
    79   38  163 1    
    80   39   40 am   BACKBONE|DICT|INTERRES
    81   39  164 1    
    82   40   41 2    
    83   40   42 1    
    84   42   43 1    
    85   42   44 1    
    86   42  165 1    
    87   43  166 1    
    88   43  167 1    
    89   43  168 1    
    90   44   45 am   BACKBONE|DICT|INTERRES
    91   44  169 1    
    92   45   46 2    
    93   45   47 1    
    94   47   48 1    
    95   47   49 1    
    96   47  170 1    
    97   48  171 1    
    98   48  172 1    
    99   48  173 1    
   100   49   50 am   BACKBONE|DICT|INTERRES
   101   49  174 1    
   102   50   51 2    
   103   50   52 1    
   104   52   53 1    
   105   52   54 1    
   106   52  175 1    
   107   53  176 1    
   108   53  177 1    
   109   53  178 1    
   110   54   55 am   BACKBONE|DICT|INTERRES
   111   54  179 1    
   112   55   56 2    
   113   55   57 1    
   114   57   58 1    
   115   57   59 1    
   116   57  180 1    
   117   58  181 1    
   118   58  182 1    
   119   58  183 1    
   120   59   60 am   BACKBONE|DICT|INTERRES
   121   59  184 1    
   122   60   61 2    
   123   60   62 1    
   124   62   63 1    
   125   62   64 1    
   126   62  185 1    
   127   63  186 1    
   128   63  187 1    
   129   63  188 1    
   130   64   65 am   BACKBONE|DICT|INTERRES
   131   64  189 1    
   132   65   66 2    
   133   67   68 2    
   134   67   69 am   BACKBONE|DICT|INTERRES
   135   69   70 1    
   136   69  190 1    
   137   70   71 1    
   138   70   72 1    
   139   70  191 1    
   140   71  192 1    
   141   71  193 1    
   142   71  194 1    
   143   72   73 2    
   144   72   74 am   BACKBONE|DICT|INTERRES
   145   74   75 1    
   146   74  195 1    
   147   75   76 1    
   148   75   77 1    
   149   75  196 1    
   150   76  197 1    
   151   76  198 1    
   152   76  199 1    
   153   77   78 2    
   154   77   79 am   BACKBONE|DICT|INTERRES
   155   79   80 1    
   156   79  200 1    
   157   80   81 1    
   158   80   82 1    
   159   80  201 1    
   160   81  202 1    
   161   81  203 1    
   162   81  204 1    
   163   82   83 2    
   164   82   84 am   BACKBONE|DICT|INTERRES
   165   84   85 1    
   166   84  205 1    
   167   85   86 1    
   168   85   87 1    
   169   85  206 1    
   170   86  207 1    
   171   86  208 1    
   172   86  209 1    
   173   87   88 2    
   174   87   89 am   BACKBONE|DICT|INTERRES
   175   89   90 1    
   176   89  210 1    
   177   90   91 1    
   178   90   92 1    
   179   90  211 1    
   180   91  212 1    
   181   91  213 1    
   182   91  214 1    
   183   92   93 2    
   184   92   94 am   BACKBONE|DICT|INTERRES
   185   94   95 1    
   186   94  215 1    
   187   95   96 1    
   188   95   97 1    
   189   95  216 1    
   190   96  217 1    
   191   96  218 1    
   192   96  219 1    
   193   97   98 2    
   194   97   99 am   BACKBONE|DICT|INTERRES
   195   99  100 1    
   196   99  220 1    
   197  100  101 1    
   198  100  102 1    
   199  100  221 1    
   200  101  222 1    
   201  101  223 1    
   202  101  224 1    
   203  102  103 2    
   204  102  104 am   BACKBONE|DICT|INTERRES
   205  104  105 1    
   206  104  225 1    
   207  105  106 1    
   208  105  107 1    
   209  105  226 1    
   210  106  227 1    
   211  106  228 1    
   212  106  229 1    
   213  107  108 2    
   214  107  109 am   BACKBONE|DICT|INTERRES
   215  109  110 1    
   216  109  230 1    
   217  110  111 1    
   218  110  112 1    
   219  110  231 1    
   220  111  232 1    
   221  111  233 1    
   222  111  234 1    
   223  112  113 2    
   224  112  114 am   BACKBONE|DICT|INTERRES
   225  114  115 1    
   226  114  235 1    
   227  115  116 1    
   228  115  117 1    
   229  115  236 1    
   230  116  237 1    
   231  116  238 1    
   232  116  239 1    
   233  117  118 2    
   234  117  119 am   BACKBONE|DICT|INTERRES
   235  119  120 1    
   236  119  240 1    
   237  120  121 1    
   238  120  124 1    
   239  120  241 1    
   240  121  122 am   BACKBONE|DICT|INTERRES
   241  121  123 2    
   242  122  242 1    
   243  122  243 1    
   244  124  125 1    
   245  124  244 1    
   246  124  245 1    
   247  125  126 1    
   248  126  246 1    
   249  126  247 1    
@<TRIPOS>SUBSTRUCTURE
     1 UNK         1 GROUP             0       ****    0 ROOT    
