@<TRIPOS>MOLECULE
3R540
247   249    1
SMALL
USER_CHARGES


@<TRIPOS>ATOM
      1 CA          0.0470  -12.6131  -52.3061 C.3       0 UNK        -0.1800 
      2 C           0.3155  -12.5585  -50.8087 C.2       0 UNK         0.5000 
      3 O           0.4993  -11.4730  -50.2571 O.2       0 UNK        -0.5000 
      4 N           0.3449  -13.7240  -50.1532 N.am      1 UNK        -0.5000 
      5 CA          0.5268  -13.8657  -48.7072 C.3       1 UNK         0.1400 
      6 C6          0.9392  -15.3083  -48.3152 C.3       23 UNK        -0.0398 
      7 S7          2.6929  -15.6526  -48.6776 S.3       23 UNK        -0.2404 
      8 C8          2.6409  -16.3236  -50.3709 C.3       23 UNK        -0.0205 
      9 C9          1.9965  -17.7001  -50.4455 C.ar      23 UNK        -0.0193 
     10 C10         0.7448  -17.8659  -51.0475 C.ar      23 UNK        -0.1150 
     11 C11         0.1797  -19.1386  -51.1703 C.ar      23 UNK        -0.0193 
     12 C12         0.8672  -20.2471  -50.6676 C.ar      23 UNK        -0.1150 
     13 C13         2.1151  -20.0940  -50.0558 C.ar      23 UNK        -0.0193 
     14 C14         2.6765  -18.8183  -49.9535 C.ar      23 UNK        -0.1150 
     15 C15         2.8621  -21.3096  -49.5205 C.3       23 UNK        -0.0205 
     16 S16         2.9547  -21.3237  -47.7005 S.3       23 UNK        -0.2404 
     17 C17         1.1919  -21.3272  -47.2374 C.3       23 UNK        -0.0398 
     18 CA          0.7959  -22.5028  -46.3144 C.3       11 UNK         0.1400 
     19 N           1.5103  -22.4549  -45.0386 N.am      11 UNK        -0.5000 
     20 C           1.8729  -23.5046  -44.2942 C.2       10 UNK         0.5000 
     21 O           1.6615  -24.6744  -44.6176 O.2       10 UNK        -0.5000 
     22 CA          2.5631  -23.1743  -42.9510 C.3       10 UNK         0.1400 
     23 CB          3.4238  -24.3332  -42.4070 C.3       10 UNK        -0.1800 
     24 N           3.3190  -21.9155  -42.9887 N.am      10 UNK        -0.5000 
     25 C           4.4087  -21.6321  -43.7193 C.2       9 UNK         0.5000 
     26 O           4.9985  -22.4558  -44.4194 O.2       9 UNK        -0.5000 
     27 CA          4.9248  -20.1775  -43.6841 C.3       9 UNK         0.1400 
     28 CB          4.6674  -19.4856  -45.0316 C.3       9 UNK        -0.1800 
     29 N           4.3270  -19.3631  -42.6240 N.am      9 UNK        -0.5000 
     30 C           4.6552  -19.4275  -41.3271 C.2       8 UNK         0.5000 
     31 O           5.5336  -20.1652  -40.8794 O.2       8 UNK        -0.5000 
     32 CA          3.8418  -18.5397  -40.3650 C.3       8 UNK         0.1400 
     33 CB          4.4152  -17.1152  -40.3207 C.3       8 UNK        -0.1800 
     34 N           2.4174  -18.4829  -40.7039 N.am      8 UNK        -0.5000 
     35 C           1.5837  -19.5324  -40.6601 C.2       7 UNK         0.5000 
     36 O           1.9225  -20.6621  -40.3074 O.2       7 UNK        -0.5000 
     37 CA          0.1408  -19.2964  -41.1380 C.3       7 UNK         0.1400 
     38 CB         -0.6987  -18.6170  -40.0465 C.3       7 UNK        -0.1800 
     39 N           0.0824  -18.5160  -42.3749 N.am      7 UNK        -0.5000 
     40 C           0.5529  -18.9430  -43.5549 C.2       6 UNK         0.5000 
     41 O           1.0167  -20.0674  -43.7326 O.2       6 UNK        -0.5000 
     42 CA          0.5321  -17.9530  -44.7304 C.3       6 UNK         0.1400 
     43 CB         -0.8395  -17.9565  -45.4176 C.3       6 UNK        -0.1800 
     44 N           0.8811  -16.5947  -44.3271 N.am      6 UNK        -0.5000 
     45 C           2.0694  -16.2294  -43.8279 C.2       5 UNK         0.5000 
     46 O           3.0208  -16.9964  -43.6877 O.2       5 UNK        -0.5000 
     47 CA          2.1898  -14.7745  -43.3490 C.3       5 UNK         0.1400 
     48 CB          2.4010  -13.8201  -44.5349 C.3       5 UNK        -0.1800 
     49 N           1.0157  -14.3612  -42.5793 N.am      5 UNK        -0.5000 
     50 C           0.6955  -14.8444  -41.3703 C.2       4 UNK         0.5000 
     51 O           1.3755  -15.6711  -40.7619 O.2       4 UNK        -0.5000 
     52 CA         -0.6244  -14.3443  -40.7545 C.3       4 UNK         0.1400 
     53 CB         -0.4189  -12.9899  -40.0600 C.3       4 UNK        -0.1800 
     54 N          -1.6992  -14.2255  -41.7418 N.am      4 UNK        -0.5000 
     55 C          -2.2784  -15.2674  -42.3551 C.2       3 UNK         0.5000 
     56 O          -1.9797  -16.4407  -42.1378 O.2       3 UNK        -0.5000 
     57 CA         -3.3291  -14.9394  -43.4341 C.3       3 UNK         0.1400 
     58 CB         -4.7010  -14.6810  -42.7936 C.3       3 UNK        -0.1800 
     59 N          -2.9651  -13.8023  -44.2879 N.am      3 UNK        -0.5000 
     60 C          -1.8479  -13.7387  -45.0235 C.2       2 UNK         0.5000 
     61 O          -0.9806  -14.6150  -45.0135 O.2       2 UNK        -0.5000 
     62 CA         -1.6369  -12.4703  -45.8717 C.3       2 UNK         0.1400 
     63 CB         -1.1964  -11.2993  -44.9787 C.3       2 UNK        -0.1800 
     64 N          -0.6042  -12.6972  -46.8828 N.am      2 UNK        -0.5000 
     65 C          -0.7637  -13.4623  -47.9693 C.2       1 UNK         0.5000 
     66 O          -1.8544  -13.8848  -48.3619 O.2       1 UNK        -0.5000 
     67 C          -0.7299  -22.4605  -46.1070 C.2       11 UNK         0.5000 
     68 O          -1.4610  -22.8084  -47.0346 O.2       11 UNK        -0.5000 
     69 N          -1.1872  -22.0003  -44.9303 N.am      12 UNK        -0.5000 
     70 CA         -2.5799  -21.6718  -44.5950 C.3       12 UNK         0.1400 
     71 CB         -2.6603  -21.2540  -43.1198 C.3       12 UNK        -0.1800 
     72 C          -3.6244  -22.7604  -44.9049 C.2       12 UNK         0.5000 
     73 O          -4.7574  -22.4221  -45.2436 O.2       12 UNK        -0.5000 
     74 N          -3.2198  -24.0356  -44.8341 N.am      13 UNK        -0.5000 
     75 CA         -4.0400  -25.1952  -45.1940 C.3       13 UNK         0.1400 
     76 CB         -3.2719  -26.4773  -44.8389 C.3       13 UNK        -0.1800 
     77 C          -4.4735  -25.2197  -46.6757 C.2       13 UNK         0.5000 
     78 O          -5.5319  -25.7702  -46.9816 O.2       13 UNK        -0.5000 
     79 N          -3.6625  -24.6192  -47.5568 N.am      14 UNK        -0.5000 
     80 CA         -3.9473  -24.4522  -48.9801 C.3       14 UNK         0.1400 
     81 CB         -2.7162  -24.8780  -49.7953 C.3       14 UNK        -0.1800 
     82 C          -4.3155  -22.9948  -49.2950 C.2       14 UNK         0.5000 
     83 O          -5.2795  -22.7551  -50.0227 O.2       14 UNK        -0.5000 
     84 N          -3.5553  -22.0425  -48.7350 N.am      15 UNK        -0.5000 
     85 CA         -3.6516  -20.6045  -49.0035 C.3       15 UNK         0.1400 
     86 CB         -2.4331  -19.8948  -48.3975 C.3       15 UNK        -0.1800 
     87 C          -4.9623  -19.9402  -48.5399 C.2       15 UNK         0.5000 
     88 O          -5.2670  -18.8422  -49.0049 O.2       15 UNK        -0.5000 
     89 N          -5.7341  -20.6122  -47.6724 N.am      16 UNK        -0.5000 
     90 CA         -7.1022  -20.2233  -47.3180 C.3       16 UNK         0.1400 
     91 CB         -7.6080  -21.1100  -46.1706 C.3       16 UNK        -0.1800 
     92 C          -8.0736  -20.2838  -48.5158 C.2       16 UNK         0.5000 
     93 O          -9.0177  -19.4942  -48.5655 O.2       16 UNK        -0.5000 
     94 N          -7.8121  -21.1972  -49.4612 N.am      17 UNK        -0.5000 
     95 CA         -8.4983  -21.2809  -50.7484 C.3       17 UNK         0.1400 
     96 CB         -8.7688  -22.7553  -51.0897 C.3       17 UNK        -0.1800 
     97 C          -7.6511  -20.6131  -51.8433 C.2       17 UNK         0.5000 
     98 O          -8.1724  -19.7903  -52.5974 O.2       17 UNK        -0.5000 
     99 N          -6.3611  -20.9804  -51.8998 N.am      18 UNK        -0.5000 
    100 CA        -5.3047  -20.5641  -52.8302 C.3       18 UNK         0.1400 
    101 CB        -5.0045  -19.0580  -52.7143 C.3       18 UNK        -0.1800 
    102 C         -5.5484  -20.9722  -54.2949 C.2       18 UNK         0.5000 
    103 O         -4.6758  -21.5944  -54.9005 O.2       18 UNK        -0.5000 
    104 N         -6.7099  -20.5912  -54.8465 N.am      19 UNK        -0.5000 
    105 CA        -7.2066  -20.8595  -56.2049 C.3       19 UNK         0.1400 
    106 CB        -7.5363  -22.3591  -56.3530 C.3       19 UNK        -0.1800 
    107 C         -6.2807  -20.3549  -57.3368 C.2       19 UNK         0.5000 
    108 O         -6.3702  -20.8443  -58.4636 O.2       19 UNK        -0.5000 
    109 N         -5.3822  -19.4155  -57.0009 N.am      20 UNK        -0.5000 
    110 CA        -4.2536  -18.9104  -57.7935 C.3       20 UNK         0.1400 
    111 CB        -4.7472  -18.1811  -59.0598 C.3       20 UNK        -0.1800 
    112 C         -3.1761  -19.9738  -58.1152 C.2       20 UNK         0.5000 
    113 O         -2.2626  -19.6891  -58.8918 O.2       20 UNK        -0.5000 
    114 N         -3.2623  -21.1646  -57.5018 N.am      21 UNK        -0.5000 
    115 CA        -2.3636  -22.2978  -57.7358 C.3       21 UNK         0.1400 
    116 CB        -2.9821  -23.5664  -57.1290 C.3       21 UNK        -0.1800 
    117 C         -0.9478  -22.0630  -57.1813 C.2       21 UNK         0.5000 
    118 O          0.0154  -22.6117  -57.7180 O.2       21 UNK        -0.5000 
    119 N         -0.8497  -21.2311  -56.1383 N.am      22 UNK        -0.5000 
    120 CA         0.4088  -20.7349  -55.5673 C.3       22 UNK         0.1400 
    121 C          1.0748  -19.5755  -56.3709 C.2       22 UNK         0.5000 
    122 N          0.4818  -19.0721  -57.4488 N.am      22 UNK        -0.7600 
    123 O          2.1670  -19.1358  -56.0222 O.2       22 UNK        -0.5000 
    124 C124        0.2555  -20.4077  -54.0601 C.3       23 UNK        -0.0398 
    125 S125       -1.0173  -19.1497  -53.6805 S.3       23 UNK        -0.2404 
    126 C126       -1.1599  -19.3234  -51.8711 C.3       23 UNK        -0.0205 
    127 H127       -0.0782  -13.6371  -52.6591 H         1 UNK         0.0600 
    128 H128       -0.8600  -12.0577  -52.5451 H         1 UNK         0.0600 
    129 H129        0.8767  -12.1649  -52.8527 H         1 UNK         0.0600 
    130 H130        0.1375  -14.5751  -50.6527 H         1 UNK         0.3000 
    131 H131        1.3222  -13.1847  -48.3950 H         1 UNK         0.0600 
    132 H132        0.2970  -16.0502  -48.7919 H         1 UNK         0.0800 
    133 H133        0.8196  -15.4631  -47.2406 H         1 UNK         0.0800 
    134 H134        3.6641  -16.3973  -50.7417 H         1 UNK         0.0800 
    135 H135        2.1374  -15.6197  -51.0335 H         1 UNK         0.0800 
    136 H136        0.2190  -17.0110  -51.4479 H         1 UNK         0.1150 
    137 H137        0.4340  -21.2329  -50.7621 H         1 UNK         0.1150 
    138 H138        3.6451  -18.6955  -49.4892 H         1 UNK         0.1150 
    139 H139        2.3943  -22.2348  -49.8608 H         1 UNK         0.0800 
    140 H140        3.8750  -21.3131  -49.9251 H         1 UNK         0.0800 
    141 H141        0.5922  -21.3608  -48.1468 H         1 UNK         0.0800 
    142 H142        0.9689  -20.3691  -46.7658 H         1 UNK         0.0800 
    143 H143        1.0305  -23.4381  -46.8270 H         1 UNK         0.0600 
    144 H144        1.6671  -21.5274  -44.6523 H         1 UNK         0.3000 
    145 H145        1.7552  -23.0085  -42.2370 H         1 UNK         0.0600 
    146 H146        3.8974  -24.0624  -41.4633 H         1 UNK         0.0600 
    147 H147        2.8137  -25.2176  -42.2207 H         1 UNK         0.0600 
    148 H148        4.2083  -24.6219  -43.1068 H         1 UNK         0.0600 
    149 H149        2.9100  -21.1557  -42.4606 H         1 UNK         0.3000 
    150 H150        6.0040  -20.2180  -43.5239 H         1 UNK         0.0600 
    151 H151        5.1346  -20.0336  -45.8507 H         1 UNK         0.0600 
    152 H152        5.0773  -18.4756  -45.0427 H         1 UNK         0.0600 
    153 H153        3.6007  -19.4159  -45.2479 H         1 UNK         0.0600 
    154 H154        3.6447  -18.6697  -42.9191 H         1 UNK         0.3000 
    155 H155        3.9289  -18.9703  -39.3654 H         1 UNK         0.0600 
    156 H156        4.3291  -16.6156  -41.2860 H         1 UNK         0.0600 
    157 H157        5.4714  -17.1268  -40.0491 H         1 UNK         0.0600 
    158 H158        3.8957  -16.5047  -39.5820 H         1 UNK         0.0600 
    159 H159        2.0504  -17.5755  -40.9731 H         1 UNK         0.3000 
    160 H160       -0.2995  -20.2755  -41.3366 H         1 UNK         0.0600 
    161 H161       -1.7447  -18.5449  -40.3445 H         1 UNK         0.0600 
    162 H162       -0.3422  -17.6100  -39.8301 H         1 UNK         0.0600 
    163 H163       -0.6648  -19.1855  -39.1163 H         1 UNK         0.0600 
    164 H164       -0.3598  -17.6042  -42.3188 H         1 UNK         0.3000 
    165 H165        1.2779  -18.2840  -45.4559 H         1 UNK         0.0600 
    166 H166       -0.8357  -17.3348  -46.3131 H         1 UNK         0.0600 
    167 H167       -1.1145  -18.9660  -45.7203 H         1 UNK         0.0600 
    168 H168       -1.6228  -17.5861  -44.7557 H         1 UNK         0.0600 
    169 H169        0.1585  -15.8855  -44.4387 H         1 UNK         0.3000 
    170 H170        3.0643  -14.7069  -42.6983 H         1 UNK         0.0600 
    171 H171        3.2976  -14.0899  -45.0944 H         1 UNK         0.0600 
    172 H172        1.5642  -13.8462  -45.2318 H         1 UNK         0.0600 
    173 H173        2.5255  -12.7914  -44.1967 H         1 UNK         0.0600 
    174 H174        0.3707  -13.7341  -43.0351 H         1 UNK         0.3000 
    175 H175       -0.9344  -15.0699  -39.9995 H         1 UNK         0.0600 
    176 H176       -1.3276  -12.6654  -39.5527 H         1 UNK         0.0600 
    177 H177        0.3674  -13.0536  -39.3065 H         1 UNK         0.0600 
    178 H178       -0.1328  -12.2111  -40.7681 H         1 UNK         0.0600 
    179 H179       -2.0009  -13.2934  -41.9839 H         1 UNK         0.3000 
    180 H180       -3.4164  -15.8166  -44.0785 H         1 UNK         0.0600 
    181 H181       -4.6927  -13.7881  -42.1674 H         1 UNK         0.0600 
    182 H182       -5.0027  -15.5202  -42.1653 H         1 UNK         0.0600 
    183 H183       -5.4728  -14.5522  -43.5527 H         1 UNK         0.0600 
    184 H184       -3.6276  -13.0414  -44.3320 H         1 UNK         0.3000 
    185 H185       -2.5758  -12.2144  -46.3669 H         1 UNK         0.0600 
    186 H186       -0.2680  -11.5205  -44.4501 H         1 UNK         0.0600 
    187 H187       -1.0388  -10.3946  -45.5664 H         1 UNK         0.0600 
    188 H188       -1.9538  -11.0673  -44.2290 H         1 UNK         0.0600 
    189 H189        0.3265  -12.3978  -46.6339 H         1 UNK         0.3000 
    190 H190       -0.4945  -21.7275  -44.2461 H         1 UNK         0.3000 
    191 H191       -2.8562  -20.8039  -45.1948 H         1 UNK         0.0600 
    192 H192       -2.1063  -20.3333  -42.9442 H         1 UNK         0.0600 
    193 H193       -2.2604  -22.0243  -42.4595 H         1 UNK         0.0600 
    194 H194       -3.6916  -21.0645  -42.8184 H         1 UNK         0.0600 
    195 H195       -2.2655  -24.2197  -44.5618 H         1 UNK         0.3000 
    196 H196       -4.9481  -25.1605  -44.5886 H         1 UNK         0.0600 
    197 H197       -3.8632  -27.3643  -45.0703 H         1 UNK         0.0600 
    198 H198       -3.0356  -26.5146  -43.7753 H         1 UNK         0.0600 
    199 H199       -2.3362  -26.5520  -45.3947 H         1 UNK         0.0600 
    200 H200       -2.8263  -24.1593  -47.2104 H         1 UNK         0.3000 
    201 H201       -4.7871  -25.0808  -49.2832 H         1 UNK         0.0600 
    202 H202       -2.4788  -25.9283  -49.6253 H         1 UNK         0.0600 
    203 H203       -1.8340  -24.2909  -49.5361 H         1 UNK         0.0600 
    204 H204       -2.8928  -24.7533  -50.8645 H         1 UNK         0.0600 
    205 H205       -2.7841  -22.3308  -48.1369 H         1 UNK         0.3000 
    206 H206       -3.6054  -20.4763  -50.0862 H         1 UNK         0.0600 
    207 H207       -2.4436  -18.8274  -48.6225 H         1 UNK         0.0600 
    208 H208       -2.4129  -20.0032  -47.3155 H         1 UNK         0.0600 
    209 H209       -1.5030  -20.2993  -48.7943 H         1 UNK         0.0600 
    210 H210       -5.3918  -21.4801  -47.2807 H         1 UNK         0.3000 
    211 H211       -7.0796  -19.1901  -46.9655 H         1 UNK         0.0600 
    212 H212       -7.5665  -22.1685  -46.4306 H         1 UNK         0.0600 
    213 H213       -8.6420  -20.8726  -45.9166 H         1 UNK         0.0600 
    214 H214       -7.0141  -20.9613  -45.2689 H         1 UNK         0.0600 
    215 H215       -6.9925  -21.7829  -49.3524 H         1 UNK         0.3000 
    216 H216       -9.4601  -20.7655  -50.7042 H         1 UNK         0.0600 
    217 H217       -9.2645  -22.8471  -52.0569 H         1 UNK         0.0600 
    218 H218       -9.4193  -23.2156  -50.3459 H         1 UNK         0.0600 
    219 H219       -7.8492  -23.3401  -51.1345 H         1 UNK         0.0600 
    220 H220       -6.0569  -21.6902  -51.2359 H         1 UNK         0.3000 
    221 H221       -4.4083  -21.0967  -52.5079 H         1 UNK         0.0600 
    222 H222       -5.8610  -18.4447  -52.9944 H         1 UNK         0.0600 
    223 H223       -4.7224  -18.7897  -51.6969 H         1 UNK         0.0600 
    224 H224       -4.1750  -18.7753  -53.3636 H         1 UNK         0.0600 
    225 H225       -7.3551  -20.0996  -54.2311 H         1 UNK         0.3000 
    226 H226       -8.1385  -20.3015  -56.3050 H         1 UNK         0.0600 
    227 H227       -8.1980  -22.6974  -55.5556 H         1 UNK         0.0600 
    228 H228       -6.6362  -22.9742  -56.3253 H         1 UNK         0.0600 
    229 H229       -8.0420  -22.5607  -57.2980 H         1 UNK         0.0600 
    230 H230       -5.4122  -19.0901  -56.0453 H         1 UNK         0.3000 
    231 H231       -3.7575  -18.1707  -57.1637 H         1 UNK         0.0600 
    232 H232       -5.4995  -17.4313  -58.8156 H         1 UNK         0.0600 
    233 H233       -5.1820  -18.8707  -59.7836 H         1 UNK         0.0600 
    234 H234       -3.9264  -17.6641  -59.5581 H         1 UNK         0.0600 
    235 H235       -3.9911  -21.3074  -56.8107 H         1 UNK         0.3000 
    236 H236       -2.2770  -22.4433  -58.8146 H         1 UNK         0.0600 
    237 H237       -2.3673  -24.4412  -57.3441 H         1 UNK         0.0600 
    238 H238       -3.0755  -23.4900  -56.0451 H         1 UNK         0.0600 
    239 H239       -3.9745  -23.7566  -57.5383 H         1 UNK         0.0600 
    240 H240       -1.6952  -20.8252  -55.7642 H         1 UNK         0.3000 
    241 H241        1.1295  -21.5530  -55.6237 H         1 UNK         0.0600 
    242 H242        0.9365  -18.3295  -57.9560 H         1 UNK         0.3800 
    243 H243       -0.4040  -19.4301  -57.7807 H         1 UNK         0.3800 
    244 H244        0.0004  -21.3217  -53.5221 H         1 UNK         0.0800 
    245 H245        1.2102  -20.0788  -53.6459 H         1 UNK         0.0800 
    246 H246       -1.5840  -20.3017  -51.6402 H         1 UNK         0.0800 
    247 H247       -1.8710  -18.5856  -51.4970 H         1 UNK         0.0800 
@<TRIPOS>BOND
     1    1    2 1    
     2    1  127 1    
     3    1  128 1    
     4    1  129 1    
     5    2    3 2    
     6    2    4 am   BACKBONE|DICT|INTERRES
     7    4    5 1    
     8    4  130 1    
     9    5    6 1    
    10    5   65 1    
    11    5  131 1    
    12    6    7 1    
    13    6  132 1    
    14    6  133 1    
    15    7    8 1    
    16    8    9 1    
    17    8  134 1    
    18    8  135 1    
    19    9   10 ar   
    20    9   14 ar   
    21   10   11 ar   
    22   10  136 1    
    23   11   12 ar   
    24   11  126 1    
    25   12   13 ar   
    26   12  137 1    
    27   13   14 ar   
    28   13   15 1    
    29   14  138 1    
    30   15   16 1    
    31   15  139 1    
    32   15  140 1    
    33   16   17 1    
    34   17   18 1    
    35   17  141 1    
    36   17  142 1    
    37   18   19 1    
    38   18   67 1    
    39   18  143 1    
    40   19   20 am   BACKBONE|DICT|INTERRES
    41   19  144 1    
    42   20   21 2    
    43   20   22 1    
    44   22   23 1    
    45   22   24 1    
    46   22  145 1    
    47   23  146 1    
    48   23  147 1    
    49   23  148 1    
    50   24   25 am   BACKBONE|DICT|INTERRES
    51   24  149 1    
    52   25   26 2    
    53   25   27 1    
    54   27   28 1    
    55   27   29 1    
    56   27  150 1    
    57   28  151 1    
    58   28  152 1    
    59   28  153 1    
    60   29   30 am   BACKBONE|DICT|INTERRES
    61   29  154 1    
    62   30   31 2    
    63   30   32 1    
    64   32   33 1    
    65   32   34 1    
    66   32  155 1    
    67   33  156 1    
    68   33  157 1    
    69   33  158 1    
    70   34   35 am   BACKBONE|DICT|INTERRES
    71   34  159 1    
    72   35   36 2    
    73   35   37 1    
    74   37   38 1    
    75   37   39 1    
    76   37  160 1    
    77   38  161 1    
    78   38  162 1    
    79   38  163 1    
    80   39   40 am   BACKBONE|DICT|INTERRES
    81   39  164 1    
    82   40   41 2    
    83   40   42 1    
    84   42   43 1    
    85   42   44 1    
    86   42  165 1    
    87   43  166 1    
    88   43  167 1    
    89   43  168 1    
    90   44   45 am   BACKBONE|DICT|INTERRES
    91   44  169 1    
    92   45   46 2    
    93   45   47 1    
    94   47   48 1    
    95   47   49 1    
    96   47  170 1    
    97   48  171 1    
    98   48  172 1    
    99   48  173 1    
   100   49   50 am   BACKBONE|DICT|INTERRES
   101   49  174 1    
   102   50   51 2    
   103   50   52 1    
   104   52   53 1    
   105   52   54 1    
   106   52  175 1    
   107   53  176 1    
   108   53  177 1    
   109   53  178 1    
   110   54   55 am   BACKBONE|DICT|INTERRES
   111   54  179 1    
   112   55   56 2    
   113   55   57 1    
   114   57   58 1    
   115   57   59 1    
   116   57  180 1    
   117   58  181 1    
   118   58  182 1    
   119   58  183 1    
   120   59   60 am   BACKBONE|DICT|INTERRES
   121   59  184 1    
   122   60   61 2    
   123   60   62 1    
   124   62   63 1    
   125   62   64 1    
   126   62  185 1    
   127   63  186 1    
   128   63  187 1    
   129   63  188 1    
   130   64   65 am   BACKBONE|DICT|INTERRES
   131   64  189 1    
   132   65   66 2    
   133   67   68 2    
   134   67   69 am   BACKBONE|DICT|INTERRES
   135   69   70 1    
   136   69  190 1    
   137   70   71 1    
   138   70   72 1    
   139   70  191 1    
   140   71  192 1    
   141   71  193 1    
   142   71  194 1    
   143   72   73 2    
   144   72   74 am   BACKBONE|DICT|INTERRES
   145   74   75 1    
   146   74  195 1    
   147   75   76 1    
   148   75   77 1    
   149   75  196 1    
   150   76  197 1    
   151   76  198 1    
   152   76  199 1    
   153   77   78 2    
   154   77   79 am   BACKBONE|DICT|INTERRES
   155   79   80 1    
   156   79  200 1    
   157   80   81 1    
   158   80   82 1    
   159   80  201 1    
   160   81  202 1    
   161   81  203 1    
   162   81  204 1    
   163   82   83 2    
   164   82   84 am   BACKBONE|DICT|INTERRES
   165   84   85 1    
   166   84  205 1    
   167   85   86 1    
   168   85   87 1    
   169   85  206 1    
   170   86  207 1    
   171   86  208 1    
   172   86  209 1    
   173   87   88 2    
   174   87   89 am   BACKBONE|DICT|INTERRES
   175   89   90 1    
   176   89  210 1    
   177   90   91 1    
   178   90   92 1    
   179   90  211 1    
   180   91  212 1    
   181   91  213 1    
   182   91  214 1    
   183   92   93 2    
   184   92   94 am   BACKBONE|DICT|INTERRES
   185   94   95 1    
   186   94  215 1    
   187   95   96 1    
   188   95   97 1    
   189   95  216 1    
   190   96  217 1    
   191   96  218 1    
   192   96  219 1    
   193   97   98 2    
   194   97   99 am   BACKBONE|DICT|INTERRES
   195   99  100 1    
   196   99  220 1    
   197  100  101 1    
   198  100  102 1    
   199  100  221 1    
   200  101  222 1    
   201  101  223 1    
   202  101  224 1    
   203  102  103 2    
   204  102  104 am   BACKBONE|DICT|INTERRES
   205  104  105 1    
   206  104  225 1    
   207  105  106 1    
   208  105  107 1    
   209  105  226 1    
   210  106  227 1    
   211  106  228 1    
   212  106  229 1    
   213  107  108 2    
   214  107  109 am   BACKBONE|DICT|INTERRES
   215  109  110 1    
   216  109  230 1    
   217  110  111 1    
   218  110  112 1    
   219  110  231 1    
   220  111  232 1    
   221  111  233 1    
   222  111  234 1    
   223  112  113 2    
   224  112  114 am   BACKBONE|DICT|INTERRES
   225  114  115 1    
   226  114  235 1    
   227  115  116 1    
   228  115  117 1    
   229  115  236 1    
   230  116  237 1    
   231  116  238 1    
   232  116  239 1    
   233  117  118 2    
   234  117  119 am   BACKBONE|DICT|INTERRES
   235  119  120 1    
   236  119  240 1    
   237  120  121 1    
   238  120  124 1    
   239  120  241 1    
   240  121  122 am   BACKBONE|DICT|INTERRES
   241  121  123 2    
   242  122  242 1    
   243  122  243 1    
   244  124  125 1    
   245  124  244 1    
   246  124  245 1    
   247  125  126 1    
   248  126  246 1    
   249  126  247 1    
@<TRIPOS>SUBSTRUCTURE
     1 UNK         1 GROUP             0       ****    0 ROOT    
