@<TRIPOS>MOLECULE
3R540
247   249    1
SMALL
USER_CHARGES


@<TRIPOS>ATOM
      1 CA          0.6797  -12.0364  -50.5874 C.3       0 UNK        -0.1800 
      2 C           1.2299  -13.1387  -49.6940 C.2       0 UNK         0.5000 
      3 O           2.0602  -13.9299  -50.1399 O.2       0 UNK        -0.5000 
      4 N           0.7730  -13.1886  -48.4357 N.am      1 UNK        -0.5000 
      5 CA          1.1099  -14.2384  -47.4636 C.3       1 UNK         0.1400 
      6 C6          0.0723  -14.3425  -46.3136 C.3       23 UNK        -0.0398 
      7 S7         -1.6680  -14.3739  -46.8671 S.3       23 UNK        -0.2404 
      8 C8         -1.9212  -16.1285  -47.2849 C.3       23 UNK        -0.0205 
      9 C9         -1.2754  -16.4978  -48.6114 C.ar      23 UNK        -0.0193 
     10 C10        -1.6928  -15.8789  -49.7934 C.ar      23 UNK        -0.1150 
     11 C11        -1.0736  -16.1739  -51.0112 C.ar      23 UNK        -0.0193 
     12 C12        -0.0420  -17.1178  -51.0408 C.ar      23 UNK        -0.1150 
     13 C13         0.3543  -17.7769  -49.8738 C.ar      23 UNK        -0.0193 
     14 C14        -0.2563  -17.4521  -48.6591 C.ar      23 UNK        -0.1150 
     15 C15         1.4406  -18.8414  -49.9269 C.3       23 UNK        -0.0205 
     16 S16         0.7665  -20.4639  -50.4135 S.3       23 UNK        -0.2404 
     17 C17        -0.3461  -20.8137  -49.0121 C.3       23 UNK        -0.0398 
     18 CA         -0.3926  -22.3038  -48.6193 C.3       11 UNK         0.1400 
     19 N           0.9116  -22.8050  -48.1892 N.am      11 UNK        -0.5000 
     20 C           1.1926  -24.0753  -47.8679 C.2       10 UNK         0.5000 
     21 O           0.3784  -24.9954  -47.9539 O.2       10 UNK        -0.5000 
     22 CA          2.6025  -24.3488  -47.3067 C.3       10 UNK         0.1400 
     23 CB          3.5176  -24.9070  -48.4062 C.3       10 UNK        -0.1800 
     24 N           3.2287  -23.1591  -46.7170 N.am      10 UNK        -0.5000 
     25 C           2.7743  -22.5115  -45.6340 C.2       9 UNK         0.5000 
     26 O           1.8155  -22.9090  -44.9682 O.2       9 UNK        -0.5000 
     27 CA          3.5006  -21.2036  -45.2437 C.3       9 UNK         0.1400 
     28 CB          4.0873  -20.4495  -46.4594 C.3       9 UNK        -0.1800 
     29 N           2.6642  -20.2961  -44.4476 N.am      9 UNK        -0.5000 
     30 C           1.4988  -19.7419  -44.8107 C.2       8 UNK         0.5000 
     31 O           0.9405  -19.9343  -45.8940 O.2       8 UNK        -0.5000 
     32 CA          0.8607  -18.7909  -43.7899 C.3       8 UNK         0.1400 
     33 CB          1.5943  -17.4384  -43.7622 C.3       8 UNK        -0.1800 
     34 N          -0.5410  -18.5757  -44.1385 N.am      8 UNK        -0.5000 
     35 C          -1.5057  -18.2854  -43.2611 C.2       7 UNK         0.5000 
     36 O          -1.3095  -18.1739  -42.0486 O.2       7 UNK        -0.5000 
     37 CA         -2.9271  -18.0951  -43.8343 C.3       7 UNK         0.1400 
     38 CB         -3.5128  -19.4359  -44.2982 C.3       7 UNK        -0.1800 
     39 N          -3.8300  -17.5067  -42.8408 N.am      7 UNK        -0.5000 
     40 C          -3.8655  -16.2337  -42.4200 C.2       6 UNK         0.5000 
     41 O          -4.5603  -15.8987  -41.4586 O.2       6 UNK        -0.5000 
     42 CA         -3.0772  -15.1414  -43.1701 C.3       6 UNK         0.1400 
     43 CB         -4.0073  -14.3856  -44.1329 C.3       6 UNK        -0.1800 
     44 N          -2.5395  -14.1980  -42.1953 N.am      6 UNK        -0.5000 
     45 C          -1.2635  -13.8068  -42.1329 C.2       5 UNK         0.5000 
     46 O          -0.3844  -14.1895  -42.9101 O.2       5 UNK        -0.5000 
     47 CA         -0.9034  -12.8396  -40.9894 C.3       5 UNK         0.1400 
     48 CB         -0.4765  -13.6227  -39.7385 C.3       5 UNK        -0.1800 
     49 N           0.1897  -11.9565  -41.3859 N.am      5 UNK        -0.5000 
     50 C           0.0959  -10.9718  -42.2861 C.2       4 UNK         0.5000 
     51 O          -0.9744  -10.5601  -42.7358 O.2       4 UNK        -0.5000 
     52 CA          1.4161  -10.3766  -42.8136 C.3       4 UNK         0.1400 
     53 CB          1.9477   -9.2624  -41.8917 C.3       4 UNK        -0.1800 
     54 N           2.4404  -11.3907  -43.1084 N.am      4 UNK        -0.5000 
     55 C           3.1552  -12.1523  -42.2657 C.2       3 UNK         0.5000 
     56 O           3.0713  -12.0719  -41.0395 O.2       3 UNK        -0.5000 
     57 CA          4.0756  -13.2268  -42.8835 C.3       3 UNK         0.1400 
     58 CB          3.6550  -14.6258  -42.4042 C.3       3 UNK        -0.1800 
     59 N           4.0760  -13.2308  -44.3478 N.am      3 UNK        -0.5000 
     60 C           4.7349  -12.3814  -45.1427 C.2       2 UNK         0.5000 
     61 O           5.4525  -11.4758  -44.7182 O.2       2 UNK        -0.5000 
     62 CA          4.5318  -12.5364  -46.6649 C.3       2 UNK         0.1400 
     63 CB          5.6003  -13.4645  -47.2732 C.3       2 UNK        -0.1800 
     64 N           3.1756  -12.9388  -47.0767 N.am      2 UNK        -0.5000 
     65 C           2.5357  -14.1043  -46.8852 C.2       1 UNK         0.5000 
     66 O           3.0118  -15.0448  -46.2496 O.2       1 UNK        -0.5000 
     67 C          -1.4924  -22.5351  -47.5617 C.2       11 UNK         0.5000 
     68 O          -2.6397  -22.7634  -47.9406 O.2       11 UNK        -0.5000 
     69 N          -1.1367  -22.5074  -46.2675 N.am      12 UNK        -0.5000 
     70 CA         -2.0527  -22.7859  -45.1591 C.3       12 UNK         0.1400 
     71 CB         -1.3655  -22.4693  -43.8233 C.3       12 UNK        -0.1800 
     72 C          -2.5936  -24.2262  -45.1729 C.2       12 UNK         0.5000 
     73 O          -3.7765  -24.4284  -44.8970 O.2       12 UNK        -0.5000 
     74 N          -1.7355  -25.1889  -45.5389 N.am      13 UNK        -0.5000 
     75 CA         -2.1157  -26.5860  -45.7485 C.3       13 UNK         0.1400 
     76 CB         -0.8580  -27.4680  -45.7630 C.3       13 UNK        -0.1800 
     77 C          -2.9306  -26.7644  -47.0421 C.2       13 UNK         0.5000 
     78 O          -3.8956  -27.5292  -47.0558 O.2       13 UNK        -0.5000 
     79 N          -2.5637  -26.0181  -48.0924 N.am      14 UNK        -0.5000 
     80 CA         -3.2243  -25.9884  -49.3989 C.3       14 UNK         0.1400 
     81 CB         -2.2018  -25.5436  -50.4545 C.3       14 UNK        -0.1800 
     82 C          -4.5032  -25.1191  -49.4101 C.2       14 UNK         0.5000 
     83 O          -4.6799  -24.2831  -50.3017 O.2       14 UNK        -0.5000 
     84 N          -5.3835  -25.3586  -48.4287 N.am      15 UNK        -0.5000 
     85 CA         -6.7232  -24.7857  -48.2674 C.3       15 UNK         0.1400 
     86 CB         -7.6614  -25.3228  -49.3693 C.3       15 UNK        -0.1800 
     87 C          -6.7366  -23.2456  -48.1691 C.2       15 UNK         0.5000 
     88 O          -7.6021  -22.6024  -48.7629 O.2       15 UNK        -0.5000 
     89 N          -5.7703  -22.6807  -47.4292 N.am      16 UNK        -0.5000 
     90 CA         -5.5533  -21.2404  -47.2340 C.3       16 UNK         0.1400 
     91 CB         -6.6915  -20.6168  -46.3995 C.3       16 UNK        -0.1800 
     92 C          -5.3014  -20.5099  -48.5700 C.2       16 UNK         0.5000 
     93 O          -5.9785  -19.5342  -48.8954 O.2       16 UNK        -0.5000 
     94 N          -4.3371  -21.0505  -49.3245 N.am      17 UNK        -0.5000 
     95 CA         -3.8535  -20.6527  -50.6487 C.3       17 UNK         0.1400 
     96 CB         -3.4634  -19.1601  -50.6914 C.3       17 UNK        -0.1800 
     97 C          -4.7880  -21.0153  -51.8155 C.2       17 UNK         0.5000 
     98 O          -4.3702  -20.8551  -52.9625 O.2       17 UNK        -0.5000 
     99 N          -6.0050  -21.5049  -51.5397 N.am      18 UNK        -0.5000 
    100 CA        -7.0236  -21.7891  -52.5510 C.3       18 UNK         0.1400 
    101 CB        -8.3839  -22.0105  -51.8749 C.3       18 UNK        -0.1800 
    102 C         -6.6754  -22.9777  -53.4626 C.2       18 UNK         0.5000 
    103 O         -6.9577  -22.9125  -54.6595 O.2       18 UNK        -0.5000 
    104 N         -6.0615  -24.0301  -52.9016 N.am      19 UNK        -0.5000 
    105 CA        -5.6421  -25.2098  -53.6644 C.3       19 UNK         0.1400 
    106 CB        -5.6185  -26.4455  -52.7523 C.3       19 UNK        -0.1800 
    107 C         -4.2764  -24.9969  -54.3406 C.2       19 UNK         0.5000 
    108 O         -4.0226  -25.5861  -55.3916 O.2       19 UNK        -0.5000 
    109 N         -3.4301  -24.1485  -53.7394 N.am      20 UNK        -0.5000 
    110 CA        -2.1312  -23.7528  -54.2865 C.3       20 UNK         0.1400 
    111 CB        -1.2508  -23.1961  -53.1543 C.3       20 UNK        -0.1800 
    112 C         -2.2447  -22.7097  -55.4124 C.2       20 UNK         0.5000 
    113 O         -1.3084  -22.5777  -56.2011 O.2       20 UNK        -0.5000 
    114 N         -3.3447  -21.9405  -55.4217 N.am      21 UNK        -0.5000 
    115 CA        -3.5758  -20.7339  -56.2263 C.3       21 UNK         0.1400 
    116 CB        -3.7446  -21.0921  -57.7170 C.3       21 UNK        -0.1800 
    117 C         -2.4888  -19.6654  -55.9706 C.2       21 UNK         0.5000 
    118 O         -2.0038  -19.0319  -56.9095 O.2       21 UNK        -0.5000 
    119 N         -2.0904  -19.5452  -54.6956 N.am      22 UNK        -0.5000 
    120 CA        -0.9309  -18.7837  -54.1950 C.3       22 UNK         0.1400 
    121 C          0.4651  -19.3203  -54.6479 C.2       22 UNK         0.5000 
    122 N          0.5775  -20.4653  -55.3108 N.am      22 UNK        -0.7600 
    123 O          1.4851  -18.7005  -54.3599 O.2       22 UNK        -0.5000 
    124 C124       -1.0640  -17.2488  -54.4131 C.3       23 UNK        -0.0398 
    125 S125       -2.4187  -16.5080  -53.4380 S.3       23 UNK        -0.2404 
    126 C126       -1.5004  -15.4409  -52.2768 C.3       23 UNK        -0.0205 
    127 H127        1.4913  -11.4053  -50.9496 H         1 UNK         0.0600 
    128 H128        0.1740  -12.4724  -51.4491 H         1 UNK         0.0600 
    129 H129       -0.0342  -11.4041  -50.0589 H         1 UNK         0.0600 
    130 H130        0.0741  -12.5247  -48.1335 H         1 UNK         0.3000 
    131 H131        1.1041  -15.1871  -47.9999 H         1 UNK         0.0600 
    132 H132        0.1736  -13.4923  -45.6362 H         1 UNK         0.0800 
    133 H133        0.2588  -15.2281  -45.7043 H         1 UNK         0.0800 
    134 H134       -2.9920  -16.3268  -47.3470 H         1 UNK         0.0800 
    135 H135       -1.5340  -16.7501  -46.4781 H         1 UNK         0.0800 
    136 H136       -2.4838  -15.1432  -49.7555 H         1 UNK         0.1150 
    137 H137        0.4531  -17.3488  -51.9719 H         1 UNK         0.1150 
    138 H138        0.0678  -17.9378  -47.7495 H         1 UNK         0.1150 
    139 H139        2.2076  -18.5474  -50.6450 H         1 UNK         0.0800 
    140 H140        1.9421  -18.9266  -48.9615 H         1 UNK         0.0800 
    141 H141       -0.0406  -20.2193  -48.1548 H         1 UNK         0.0800 
    142 H142       -1.3358  -20.4545  -49.2837 H         1 UNK         0.0800 
    143 H143       -0.6737  -22.8697  -49.5071 H         1 UNK         0.0600 
    144 H144        1.6393  -22.1136  -48.0875 H         1 UNK         0.3000 
    145 H145        2.5026  -25.1039  -46.5242 H         1 UNK         0.0600 
    146 H146        4.4963  -25.1745  -48.0076 H         1 UNK         0.0600 
    147 H147        3.0909  -25.8085  -48.8484 H         1 UNK         0.0600 
    148 H148        3.6667  -24.1858  -49.2109 H         1 UNK         0.0600 
    149 H149        4.0283  -22.7837  -47.2062 H         1 UNK         0.3000 
    150 H150        4.3302  -21.4969  -44.5992 H         1 UNK         0.0600 
    151 H151        4.8801  -21.0210  -46.9425 H         1 UNK         0.0600 
    152 H152        4.5264  -19.4992  -46.1551 H         1 UNK         0.0600 
    153 H153        3.3263  -20.2346  -47.2106 H         1 UNK         0.0600 
    154 H154        3.0164  -20.0959  -43.5223 H         1 UNK         0.3000 
    155 H155        0.9252  -19.2632  -42.8071 H         1 UNK         0.0600 
    156 H156        1.1196  -16.7443  -43.0685 H         1 UNK         0.0600 
    157 H157        1.6067  -16.9708  -44.7469 H         1 UNK         0.0600 
    158 H158        2.6305  -17.5569  -43.4444 H         1 UNK         0.0600 
    159 H159       -0.7516  -18.7502  -45.1123 H         1 UNK         0.3000 
    160 H160       -2.8810  -17.4435  -44.7063 H         1 UNK         0.0600 
    161 H161       -3.5077  -20.1799  -43.5005 H         1 UNK         0.0600 
    162 H162       -2.9386  -19.8347  -45.1343 H         1 UNK         0.0600 
    163 H163       -4.5406  -19.3196  -44.6413 H         1 UNK         0.0600 
    164 H164       -4.3693  -18.1779  -42.3153 H         1 UNK         0.3000 
    165 H165       -2.2602  -15.5715  -43.7469 H         1 UNK         0.0600 
    166 H166       -4.8783  -13.9775  -43.6186 H         1 UNK         0.0600 
    167 H167       -3.4884  -13.5555  -44.6121 H         1 UNK         0.0600 
    168 H168       -4.3686  -15.0451  -44.9229 H         1 UNK         0.0600 
    169 H169       -3.1912  -13.9055  -41.4793 H         1 UNK         0.3000 
    170 H170       -1.7762  -12.2298  -40.7466 H         1 UNK         0.0600 
    171 H171       -1.2757  -14.2818  -39.3971 H         1 UNK         0.0600 
    172 H172        0.4002  -14.2424  -39.9331 H         1 UNK         0.0600 
    173 H173       -0.2355  -12.9500  -38.9151 H         1 UNK         0.0600 
    174 H174        1.1230  -12.2222  -41.0896 H         1 UNK         0.3000 
    175 H175        1.1844   -9.9144  -43.7745 H         1 UNK         0.0600 
    176 H176        2.1504   -9.6236  -40.8833 H         1 UNK         0.0600 
    177 H177        2.8673   -8.8298  -42.2856 H         1 UNK         0.0600 
    178 H178        1.2196   -8.4551  -41.8039 H         1 UNK         0.0600 
    179 H179        2.5738  -11.5805  -44.0906 H         1 UNK         0.3000 
    180 H180        5.0908  -13.0312  -42.5327 H         1 UNK         0.0600 
    181 H181        3.7190  -14.7075  -41.3184 H         1 UNK         0.0600 
    182 H182        2.6262  -14.8488  -42.6895 H         1 UNK         0.0600 
    183 H183        4.2967  -15.3999  -42.8254 H         1 UNK         0.0600 
    184 H184        3.5527  -13.9734  -44.8037 H         1 UNK         0.3000 
    185 H185        4.6826  -11.5452  -47.0954 H         1 UNK         0.0600 
    186 H186        6.6034  -13.0897  -47.0661 H         1 UNK         0.0600 
    187 H187        5.5425  -14.4753  -46.8686 H         1 UNK         0.0600 
    188 H188        5.4947  -13.5298  -48.3561 H         1 UNK         0.0600 
    189 H189        2.6675  -12.2357  -47.5950 H         1 UNK         0.3000 
    190 H190       -0.1708  -22.3208  -46.0248 H         1 UNK         0.3000 
    191 H191       -2.9124  -22.1245  -45.2641 H         1 UNK         0.0600 
    192 H192       -2.0579  -22.5946  -42.9900 H         1 UNK         0.0600 
    193 H193       -1.0068  -21.4412  -43.7959 H         1 UNK         0.0600 
    194 H194       -0.5138  -23.1256  -43.6425 H         1 UNK         0.0600 
    195 H195       -0.7916  -24.9302  -45.7899 H         1 UNK         0.3000 
    196 H196       -2.7411  -26.9040  -44.9114 H         1 UNK         0.0600 
    197 H197       -1.1234  -28.5202  -45.8726 H         1 UNK         0.0600 
    198 H198       -0.2968  -27.3698  -44.8337 H         1 UNK         0.0600 
    199 H199       -0.1907  -27.2127  -46.5864 H         1 UNK         0.0600 
    200 H200       -1.7516  -25.4215  -47.9899 H         1 UNK         0.3000 
    201 H201       -3.5310  -27.0054  -49.6513 H         1 UNK         0.0600 
    202 H202       -1.2817  -26.1248  -50.3912 H         1 UNK         0.0600 
    203 H203       -1.9464  -24.4931  -50.3337 H         1 UNK         0.0600 
    204 H204       -2.5971  -25.6730  -51.4615 H         1 UNK         0.0600 
    205 H205       -5.1245  -26.0699  -47.7530 H         1 UNK         0.3000 
    206 H206       -7.0981  -25.1503  -47.3101 H         1 UNK         0.0600 
    207 H207       -7.6627  -26.4126  -49.3890 H         1 UNK         0.0600 
    208 H208       -8.6901  -25.0019  -49.2016 H         1 UNK         0.0600 
    209 H209       -7.3662  -24.9720  -50.3580 H         1 UNK         0.0600 
    210 H210       -5.0715  -23.2897  -47.0245 H         1 UNK         0.3000 
    211 H211       -4.6343  -21.1415  -46.6562 H         1 UNK         0.0600 
    212 H212       -7.6505  -20.6644  -46.9158 H         1 UNK         0.0600 
    213 H213       -6.4897  -19.5661  -46.1887 H         1 UNK         0.0600 
    214 H214       -6.8003  -21.1253  -45.4417 H         1 UNK         0.0600 
    215 H215       -3.8679  -21.8668  -48.9346 H         1 UNK         0.3000 
    216 H216       -2.9467  -21.2367  -50.8072 H         1 UNK         0.0600 
    217 H217       -4.3398  -18.5128  -50.7321 H         1 UNK         0.0600 
    218 H218       -2.8635  -18.9418  -51.5745 H         1 UNK         0.0600 
    219 H219       -2.8775  -18.8640  -49.8224 H         1 UNK         0.0600 
    220 H220       -6.2706  -21.6353  -50.5726 H         1 UNK         0.3000 
    221 H221       -7.1092  -20.9039  -53.1851 H         1 UNK         0.0600 
    222 H222       -8.3916  -22.9191  -51.2732 H         1 UNK         0.0600 
    223 H223       -8.6455  -21.1748  -51.2256 H         1 UNK         0.0600 
    224 H224       -9.1760  -22.1068  -52.6184 H         1 UNK         0.0600 
    225 H225       -5.8096  -24.0019  -51.9175 H         1 UNK         0.3000 
    226 H226       -6.3742  -25.4027  -54.4518 H         1 UNK         0.0600 
    227 H227       -6.5698  -26.5774  -52.2368 H         1 UNK         0.0600 
    228 H228       -5.4359  -27.3498  -53.3339 H         1 UNK         0.0600 
    229 H229       -4.8334  -26.3832  -52.0019 H         1 UNK         0.0600 
    230 H230       -3.7198  -23.7159  -52.8745 H         1 UNK         0.3000 
    231 H231       -1.6363  -24.6330  -54.7022 H         1 UNK         0.0600 
    232 H232       -1.7378  -22.3772  -52.6247 H         1 UNK         0.0600 
    233 H233       -1.0021  -23.9705  -52.4316 H         1 UNK         0.0600 
    234 H234       -0.3044  -22.8152  -53.5410 H         1 UNK         0.0600 
    235 H235       -4.0135  -22.0796  -54.6745 H         1 UNK         0.3000 
    236 H236       -4.5167  -20.3056  -55.8775 H         1 UNK         0.0600 
    237 H237       -4.5197  -21.8460  -57.8543 H         1 UNK         0.0600 
    238 H238       -4.0370  -20.2164  -58.2974 H         1 UNK         0.0600 
    239 H239       -2.8212  -21.4776  -58.1501 H         1 UNK         0.0600 
    240 H240       -2.5941  -20.0861  -54.0034 H         1 UNK         0.3000 
    241 H241       -0.9321  -18.9602  -53.1194 H         1 UNK         0.0600 
    242 H242       -0.2304  -21.0092  -55.5900 H         1 UNK         0.3800 
    243 H243        1.4966  -20.7828  -55.5740 H         1 UNK         0.3800 
    244 H244       -1.2322  -17.0200  -55.4653 H         1 UNK         0.0800 
    245 H245       -0.1364  -16.7352  -54.1599 H         1 UNK         0.0800 
    246 H246       -0.6275  -15.0026  -52.7621 H         1 UNK         0.0800 
    247 H247       -2.1432  -14.5981  -52.0180 H         1 UNK         0.0800 
@<TRIPOS>BOND
     1    1    2 1    
     2    1  127 1    
     3    1  128 1    
     4    1  129 1    
     5    2    3 2    
     6    2    4 am   BACKBONE|DICT|INTERRES
     7    4    5 1    
     8    4  130 1    
     9    5    6 1    
    10    5   65 1    
    11    5  131 1    
    12    6    7 1    
    13    6  132 1    
    14    6  133 1    
    15    7    8 1    
    16    8    9 1    
    17    8  134 1    
    18    8  135 1    
    19    9   10 ar   
    20    9   14 ar   
    21   10   11 ar   
    22   10  136 1    
    23   11   12 ar   
    24   11  126 1    
    25   12   13 ar   
    26   12  137 1    
    27   13   14 ar   
    28   13   15 1    
    29   14  138 1    
    30   15   16 1    
    31   15  139 1    
    32   15  140 1    
    33   16   17 1    
    34   17   18 1    
    35   17  141 1    
    36   17  142 1    
    37   18   19 1    
    38   18   67 1    
    39   18  143 1    
    40   19   20 am   BACKBONE|DICT|INTERRES
    41   19  144 1    
    42   20   21 2    
    43   20   22 1    
    44   22   23 1    
    45   22   24 1    
    46   22  145 1    
    47   23  146 1    
    48   23  147 1    
    49   23  148 1    
    50   24   25 am   BACKBONE|DICT|INTERRES
    51   24  149 1    
    52   25   26 2    
    53   25   27 1    
    54   27   28 1    
    55   27   29 1    
    56   27  150 1    
    57   28  151 1    
    58   28  152 1    
    59   28  153 1    
    60   29   30 am   BACKBONE|DICT|INTERRES
    61   29  154 1    
    62   30   31 2    
    63   30   32 1    
    64   32   33 1    
    65   32   34 1    
    66   32  155 1    
    67   33  156 1    
    68   33  157 1    
    69   33  158 1    
    70   34   35 am   BACKBONE|DICT|INTERRES
    71   34  159 1    
    72   35   36 2    
    73   35   37 1    
    74   37   38 1    
    75   37   39 1    
    76   37  160 1    
    77   38  161 1    
    78   38  162 1    
    79   38  163 1    
    80   39   40 am   BACKBONE|DICT|INTERRES
    81   39  164 1    
    82   40   41 2    
    83   40   42 1    
    84   42   43 1    
    85   42   44 1    
    86   42  165 1    
    87   43  166 1    
    88   43  167 1    
    89   43  168 1    
    90   44   45 am   BACKBONE|DICT|INTERRES
    91   44  169 1    
    92   45   46 2    
    93   45   47 1    
    94   47   48 1    
    95   47   49 1    
    96   47  170 1    
    97   48  171 1    
    98   48  172 1    
    99   48  173 1    
   100   49   50 am   BACKBONE|DICT|INTERRES
   101   49  174 1    
   102   50   51 2    
   103   50   52 1    
   104   52   53 1    
   105   52   54 1    
   106   52  175 1    
   107   53  176 1    
   108   53  177 1    
   109   53  178 1    
   110   54   55 am   BACKBONE|DICT|INTERRES
   111   54  179 1    
   112   55   56 2    
   113   55   57 1    
   114   57   58 1    
   115   57   59 1    
   116   57  180 1    
   117   58  181 1    
   118   58  182 1    
   119   58  183 1    
   120   59   60 am   BACKBONE|DICT|INTERRES
   121   59  184 1    
   122   60   61 2    
   123   60   62 1    
   124   62   63 1    
   125   62   64 1    
   126   62  185 1    
   127   63  186 1    
   128   63  187 1    
   129   63  188 1    
   130   64   65 am   BACKBONE|DICT|INTERRES
   131   64  189 1    
   132   65   66 2    
   133   67   68 2    
   134   67   69 am   BACKBONE|DICT|INTERRES
   135   69   70 1    
   136   69  190 1    
   137   70   71 1    
   138   70   72 1    
   139   70  191 1    
   140   71  192 1    
   141   71  193 1    
   142   71  194 1    
   143   72   73 2    
   144   72   74 am   BACKBONE|DICT|INTERRES
   145   74   75 1    
   146   74  195 1    
   147   75   76 1    
   148   75   77 1    
   149   75  196 1    
   150   76  197 1    
   151   76  198 1    
   152   76  199 1    
   153   77   78 2    
   154   77   79 am   BACKBONE|DICT|INTERRES
   155   79   80 1    
   156   79  200 1    
   157   80   81 1    
   158   80   82 1    
   159   80  201 1    
   160   81  202 1    
   161   81  203 1    
   162   81  204 1    
   163   82   83 2    
   164   82   84 am   BACKBONE|DICT|INTERRES
   165   84   85 1    
   166   84  205 1    
   167   85   86 1    
   168   85   87 1    
   169   85  206 1    
   170   86  207 1    
   171   86  208 1    
   172   86  209 1    
   173   87   88 2    
   174   87   89 am   BACKBONE|DICT|INTERRES
   175   89   90 1    
   176   89  210 1    
   177   90   91 1    
   178   90   92 1    
   179   90  211 1    
   180   91  212 1    
   181   91  213 1    
   182   91  214 1    
   183   92   93 2    
   184   92   94 am   BACKBONE|DICT|INTERRES
   185   94   95 1    
   186   94  215 1    
   187   95   96 1    
   188   95   97 1    
   189   95  216 1    
   190   96  217 1    
   191   96  218 1    
   192   96  219 1    
   193   97   98 2    
   194   97   99 am   BACKBONE|DICT|INTERRES
   195   99  100 1    
   196   99  220 1    
   197  100  101 1    
   198  100  102 1    
   199  100  221 1    
   200  101  222 1    
   201  101  223 1    
   202  101  224 1    
   203  102  103 2    
   204  102  104 am   BACKBONE|DICT|INTERRES
   205  104  105 1    
   206  104  225 1    
   207  105  106 1    
   208  105  107 1    
   209  105  226 1    
   210  106  227 1    
   211  106  228 1    
   212  106  229 1    
   213  107  108 2    
   214  107  109 am   BACKBONE|DICT|INTERRES
   215  109  110 1    
   216  109  230 1    
   217  110  111 1    
   218  110  112 1    
   219  110  231 1    
   220  111  232 1    
   221  111  233 1    
   222  111  234 1    
   223  112  113 2    
   224  112  114 am   BACKBONE|DICT|INTERRES
   225  114  115 1    
   226  114  235 1    
   227  115  116 1    
   228  115  117 1    
   229  115  236 1    
   230  116  237 1    
   231  116  238 1    
   232  116  239 1    
   233  117  118 2    
   234  117  119 am   BACKBONE|DICT|INTERRES
   235  119  120 1    
   236  119  240 1    
   237  120  121 1    
   238  120  124 1    
   239  120  241 1    
   240  121  122 am   BACKBONE|DICT|INTERRES
   241  121  123 2    
   242  122  242 1    
   243  122  243 1    
   244  124  125 1    
   245  124  244 1    
   246  124  245 1    
   247  125  126 1    
   248  126  246 1    
   249  126  247 1    
@<TRIPOS>SUBSTRUCTURE
     1 UNK         1 GROUP             0       ****    0 ROOT    
