@<TRIPOS>MOLECULE
3R540
247   249    1
SMALL
USER_CHARGES


@<TRIPOS>ATOM
      1 CA         -0.9941  -15.6204  -53.3677 C.3       0 UNK        -0.1800 
      2 C          -1.0545  -14.6712  -52.1835 C.2       0 UNK         0.5000 
      3 O          -1.5157  -13.5396  -52.3290 O.2       0 UNK        -0.5000 
      4 N          -0.6015  -15.1278  -51.0093 N.am      1 UNK        -0.5000 
      5 CA         -0.5919  -14.3596  -49.7579 C.3       1 UNK         0.1400 
      6 C6          0.6257  -14.7218  -48.8703 C.3       23 UNK        -0.0398 
      7 S7          0.6572  -16.4461  -48.2661 S.3       23 UNK        -0.2404 
      8 C8          2.1489  -17.1427  -49.0533 C.3       23 UNK        -0.0205 
      9 C9          1.7950  -18.0051  -50.2550 C.ar      23 UNK        -0.0193 
     10 C10         1.9919  -17.5424  -51.5598 C.ar      23 UNK        -0.1150 
     11 C11         1.6426  -18.3411  -52.6555 C.ar      23 UNK        -0.0193 
     12 C12         1.0816  -19.6036  -52.4323 C.ar      23 UNK        -0.1150 
     13 C13         0.8879  -20.0802  -51.1347 C.ar      23 UNK        -0.0193 
     14 C14         1.2593  -19.2791  -50.0539 C.ar      23 UNK        -0.1150 
     15 C15         0.2049  -21.4196  -50.8991 C.3       23 UNK        -0.0205 
     16 S16         1.1625  -22.5336  -49.8224 S.3       23 UNK        -0.2404 
     17 C17        -0.1644  -23.6854  -49.3159 C.3       23 UNK        -0.0398 
     18 CA         -0.5481  -23.6127  -47.8167 C.3       11 UNK         0.1400 
     19 N           0.5520  -24.0469  -46.9534 N.am      11 UNK        -0.5000 
     20 C           0.4084  -24.4423  -45.6811 C.2       10 UNK         0.5000 
     21 O          -0.6759  -24.4985  -45.1025 O.2       10 UNK        -0.5000 
     22 CA          1.7045  -24.7638  -44.9119 C.3       10 UNK         0.1400 
     23 CB          2.1495  -26.2092  -45.1783 C.3       10 UNK        -0.1800 
     24 N           2.7998  -23.8443  -45.2394 N.am      10 UNK        -0.5000 
     25 C           2.7537  -22.5244  -45.0209 C.2       9 UNK         0.5000 
     26 O           1.7897  -21.9595  -44.5013 O.2       9 UNK        -0.5000 
     27 CA          3.9366  -21.6945  -45.5311 C.3       9 UNK         0.1400 
     28 CB          3.8191  -21.4841  -47.0546 C.3       9 UNK        -0.1800 
     29 N           3.9374  -20.4068  -44.8451 N.am      9 UNK        -0.5000 
     30 C           4.9420  -19.5280  -44.8214 C.2       8 UNK         0.5000 
     31 O           6.0335  -19.7281  -45.3562 O.2       8 UNK        -0.5000 
     32 CA          4.7027  -18.1993  -44.0791 C.3       8 UNK         0.1400 
     33 CB          3.7165  -17.2922  -44.8428 C.3       8 UNK        -0.1800 
     34 N           4.3273  -18.3372  -42.6654 N.am      8 UNK        -0.5000 
     35 C           3.1994  -18.8301  -42.1362 C.2       7 UNK         0.5000 
     36 O           2.2877  -19.3372  -42.7922 O.2       7 UNK        -0.5000 
     37 CA          3.0656  -18.7168  -40.6100 C.3       7 UNK         0.1400 
     38 CB          3.0965  -17.2467  -40.1423 C.3       7 UNK        -0.1800 
     39 N           1.8147  -19.3390  -40.1857 N.am      7 UNK        -0.5000 
     40 C           1.5512  -19.7768  -38.9502 C.2       6 UNK         0.5000 
     41 O           2.3669  -19.7222  -38.0276 O.2       6 UNK        -0.5000 
     42 CA          0.1405  -20.3409  -38.7015 C.3       6 UNK         0.1400 
     43 CB         -0.1792  -20.4971  -37.1980 C.3       6 UNK        -0.1800 
     44 N          -0.8636  -19.4997  -39.3549 N.am      6 UNK        -0.5000 
     45 C          -2.1315  -19.8453  -39.5958 C.2       5 UNK         0.5000 
     46 O          -2.5910  -20.9543  -39.3241 O.2       5 UNK        -0.5000 
     47 CA         -3.0530  -18.7980  -40.2570 C.3       5 UNK         0.1400 
     48 CB         -3.6122  -17.8215  -39.2052 C.3       5 UNK        -0.1800 
     49 N          -2.4918  -18.0703  -41.4068 N.am      5 UNK        -0.5000 
     50 C          -1.4663  -17.2047  -41.4494 C.2       4 UNK         0.5000 
     51 O          -0.7526  -16.9457  -40.4799 O.2       4 UNK        -0.5000 
     52 CA         -1.1879  -16.4982  -42.7911 C.3       4 UNK         0.1400 
     53 CB          0.2293  -16.7969  -43.2950 C.3       4 UNK        -0.1800 
     54 N          -2.1488  -16.8706  -43.8337 N.am      4 UNK        -0.5000 
     55 C          -2.8182  -16.0041  -44.5993 C.2       3 UNK         0.5000 
     56 O          -2.6896  -14.7789  -44.5403 O.2       3 UNK        -0.5000 
     57 CA         -3.8391  -16.6122  -45.5667 C.3       3 UNK         0.1400 
     58 CB         -5.2243  -16.6933  -44.8971 C.3       3 UNK        -0.1800 
     59 N          -3.8955  -15.8028  -46.7771 N.am      3 UNK        -0.5000 
     60 C          -4.4549  -16.1814  -47.9286 C.2       2 UNK         0.5000 
     61 O          -5.0157  -17.2657  -48.0881 O.2       2 UNK        -0.5000 
     62 CA         -4.3449  -15.2096  -49.1159 C.3       2 UNK         0.1400 
     63 CB         -5.0491  -13.8664  -48.8404 C.3       2 UNK        -0.1800 
     64 N          -2.9690  -15.0303  -49.5946 N.am      2 UNK        -0.5000 
     65 C          -1.9418  -14.4055  -48.9966 C.2       1 UNK         0.5000 
     66 O          -2.0278  -13.8605  -47.8954 O.2       1 UNK        -0.5000 
     67 C          -1.1174  -22.2352  -47.4007 C.2       11 UNK         0.5000 
     68 O          -2.3063  -21.9866  -47.6011 O.2       11 UNK        -0.5000 
     69 N          -0.2800  -21.3778  -46.7986 N.am      12 UNK        -0.5000 
     70 CA         -0.6827  -20.0899  -46.2346 C.3       12 UNK         0.1400 
     71 CB          0.5485  -19.1983  -46.0402 C.3       12 UNK        -0.1800 
     72 C          -1.4208  -20.2720  -44.9007 C.2       12 UNK         0.5000 
     73 O          -2.4213  -19.5955  -44.6602 O.2       12 UNK        -0.5000 
     74 N          -0.9375  -21.2018  -44.0673 N.am      13 UNK        -0.5000 
     75 CA         -1.5699  -21.5959  -42.8106 C.3       13 UNK         0.1400 
     76 CB         -0.6227  -22.5119  -42.0227 C.3       13 UNK        -0.1800 
     77 C          -2.9456  -22.2546  -43.0268 C.2       13 UNK         0.5000 
     78 O          -3.8873  -21.9590  -42.2922 O.2       13 UNK        -0.5000 
     79 N          -3.0484  -23.0875  -44.0714 N.am      14 UNK        -0.5000 
     80 CA         -4.2875  -23.7240  -44.5237 C.3       14 UNK         0.1400 
     81 CB         -3.9261  -24.8885  -45.4598 C.3       14 UNK        -0.1800 
     82 C          -5.2694  -22.7644  -45.2302 C.2       14 UNK         0.5000 
     83 O          -6.4105  -23.1593  -45.4715 O.2       14 UNK        -0.5000 
     84 N          -4.8124  -21.5491  -45.5743 N.am      15 UNK        -0.5000 
     85 CA         -5.5226  -20.5126  -46.3362 C.3       15 UNK         0.1400 
     86 CB         -6.7557  -19.9985  -45.5651 C.3       15 UNK        -0.1800 
     87 C          -5.8502  -20.9350  -47.7863 C.2       15 UNK         0.5000 
     88 O          -6.8019  -20.4302  -48.3839 O.2       15 UNK        -0.5000 
     89 N          -5.0306  -21.8362  -48.3442 N.am      16 UNK        -0.5000 
     90 CA         -5.0791  -22.2672  -49.7412 C.3       16 UNK         0.1400 
     91 CB         -4.4002  -23.6382  -49.8692 C.3       16 UNK        -0.1800 
     92 C          -4.4217  -21.2397  -50.6803 C.2       16 UNK         0.5000 
     93 O          -4.6924  -21.2551  -51.8803 O.2       16 UNK        -0.5000 
     94 N          -3.6126  -20.3311  -50.1167 N.am      17 UNK        -0.5000 
     95 CA         -2.9558  -19.2033  -50.7842 C.3       17 UNK         0.1400 
     96 CB         -2.0431  -18.5115  -49.7634 C.3       17 UNK        -0.1800 
     97 C          -3.9165  -18.1845  -51.4350 C.2       17 UNK         0.5000 
     98 O          -3.4676  -17.3431  -52.2104 O.2       17 UNK        -0.5000 
     99 N          -5.2150  -18.2616  -51.1163 N.am      18 UNK        -0.5000 
    100 CA        -6.2795  -17.5195  -51.7891 C.3       18 UNK         0.1400 
    101 CB        -7.5264  -17.5231  -50.8926 C.3       18 UNK        -0.1800 
    102 C         -6.6078  -18.0894  -53.1845 C.2       18 UNK         0.5000 
    103 O         -7.0649  -17.3374  -54.0459 O.2       18 UNK        -0.5000 
    104 N         -6.3733  -19.3942  -53.3834 N.am      19 UNK        -0.5000 
    105 CA        -6.5722  -20.1003  -54.6488 C.3       19 UNK         0.1400 
    106 CB        -7.2647  -21.4446  -54.3734 C.3       19 UNK        -0.1800 
    107 C         -5.2326  -20.3195  -55.3697 C.2       19 UNK         0.5000 
    108 O         -5.1550  -20.1238  -56.5836 O.2       19 UNK        -0.5000 
    109 N         -4.1973  -20.7072  -54.6126 N.am      20 UNK        -0.5000 
    110 CA        -2.8241  -20.8812  -55.0779 C.3       20 UNK         0.1400 
    111 CB        -2.0747  -21.7922  -54.0895 C.3       20 UNK        -0.1800 
    112 C         -2.1444  -19.5103  -55.2433 C.2       20 UNK         0.5000 
    113 O         -1.4606  -19.0465  -54.3335 O.2       20 UNK        -0.5000 
    114 N         -2.3873  -18.8696  -56.3923 N.am      21 UNK        -0.5000 
    115 CA        -1.9397  -17.5117  -56.7072 C.3       21 UNK         0.1400 
    116 CB        -2.8039  -16.9709  -57.8573 C.3       21 UNK        -0.1800 
    117 C         -0.4415  -17.3911  -57.0557 C.2       21 UNK         0.5000 
    118 O          0.0691  -16.2713  -57.0931 O.2       21 UNK        -0.5000 
    119 N          0.2268  -18.5227  -57.3247 N.am      22 UNK        -0.5000 
    120 CA         1.6309  -18.6248  -57.7766 C.3       22 UNK         0.1400 
    121 C          1.8840  -18.0810  -59.2192 C.2       22 UNK         0.5000 
    122 N          0.8619  -17.8846  -60.0438 N.am      22 UNK        -0.7600 
    123 O          3.0255  -17.8643  -59.6177 O.2       22 UNK        -0.5000 
    124 C124        2.6661  -18.0780  -56.7474 C.3       23 UNK        -0.0398 
    125 S125        2.6710  -18.9946  -55.1696 S.3       23 UNK        -0.2404 
    126 C126        1.8162  -17.8158  -54.0756 C.3       23 UNK        -0.0205 
    127 H127       -0.2017  -15.3252  -54.0552 H         1 UNK         0.0600 
    128 H128       -1.9424  -15.5993  -53.9035 H         1 UNK         0.0600 
    129 H129       -0.8174  -16.6470  -53.0466 H         1 UNK         0.0600 
    130 H130       -0.2311  -16.0660  -50.9440 H         1 UNK         0.3000 
    131 H131       -0.4594  -13.3075  -50.0188 H         1 UNK         0.0600 
    132 H132        1.5417  -14.5098  -49.4218 H         1 UNK         0.0800 
    133 H133        0.6624  -14.0651  -47.9994 H         1 UNK         0.0800 
    134 H134        2.6713  -17.7579  -48.3192 H         1 UNK         0.0800 
    135 H135        2.8507  -16.3553  -49.3298 H         1 UNK         0.0800 
    136 H136        2.4061  -16.5570  -51.7212 H         1 UNK         0.1150 
    137 H137        0.7752  -20.2054  -53.2762 H         1 UNK         0.1150 
    138 H138        1.0954  -19.6421  -49.0516 H         1 UNK         0.1150 
    139 H139       -0.7694  -21.2296  -50.4499 H         1 UNK         0.0800 
    140 H140        0.0170  -21.9301  -51.8444 H         1 UNK         0.0800 
    141 H141        0.1691  -24.6966  -49.5532 H         1 UNK         0.0800 
    142 H142       -1.0467  -23.5282  -49.9369 H         1 UNK         0.0800 
    143 H143       -1.3613  -24.3274  -47.6738 H         1 UNK         0.0600 
    144 H144        1.4777  -24.0168  -47.3550 H         1 UNK         0.3000 
    145 H145        1.4893  -24.6633  -43.8460 H         1 UNK         0.0600 
    146 H146        3.0183  -26.4718  -44.5744 H         1 UNK         0.0600 
    147 H147        1.3558  -26.9141  -44.9269 H         1 UNK         0.0600 
    148 H148        2.4085  -26.3662  -46.2261 H         1 UNK         0.0600 
    149 H149        3.6162  -24.2471  -45.6768 H         1 UNK         0.3000 
    150 H150        4.8613  -22.2255  -45.2970 H         1 UNK         0.0600 
    151 H151        2.9163  -20.9314  -47.3167 H         1 UNK         0.0600 
    152 H152        3.7855  -22.4361  -47.5855 H         1 UNK         0.0600 
    153 H153        4.6711  -20.9309  -47.4492 H         1 UNK         0.0600 
    154 H154        3.0950  -20.2038  -44.3078 H         1 UNK         0.3000 
    155 H155        5.6624  -17.6800  -44.0701 H         1 UNK         0.0600 
    156 H156        2.7127  -17.7121  -44.8769 H         1 UNK         0.0600 
    157 H157        4.0400  -17.1445  -45.8739 H         1 UNK         0.0600 
    158 H158        3.6479  -16.3082  -44.3792 H         1 UNK         0.0600 
    159 H159        5.0205  -17.9836  -42.0210 H         1 UNK         0.3000 
    160 H160        3.9042  -19.2585  -40.1677 H         1 UNK         0.0600 
    161 H161        2.2598  -16.6796  -40.5506 H         1 UNK         0.0600 
    162 H162        4.0153  -16.7450  -40.4468 H         1 UNK         0.0600 
    163 H163        3.0431  -17.1753  -39.0560 H         1 UNK         0.0600 
    164 H164        1.1446  -19.4705  -40.9330 H         1 UNK         0.3000 
    165 H165        0.1171  -21.3298  -39.1632 H         1 UNK         0.0600 
    166 H166       -1.1515  -20.9621  -37.0373 H         1 UNK         0.0600 
    167 H167        0.5579  -21.1298  -36.7021 H         1 UNK         0.0600 
    168 H168       -0.1823  -19.5322  -36.6898 H         1 UNK         0.0600 
    169 H169       -0.5712  -18.5591  -39.6162 H         1 UNK         0.3000 
    170 H170       -3.9011  -19.3543  -40.6603 H         1 UNK         0.0600 
    171 H171       -4.1157  -18.3612  -38.4021 H         1 UNK         0.0600 
    172 H172       -2.8262  -17.2195  -38.7484 H         1 UNK         0.0600 
    173 H173       -4.3415  -17.1421  -39.6464 H         1 UNK         0.0600 
    174 H174       -2.9980  -18.2110  -42.2684 H         1 UNK         0.3000 
    175 H175       -1.2539  -15.4286  -42.5821 H         1 UNK         0.0600 
    176 H176        0.9831  -16.5010  -42.5658 H         1 UNK         0.0600 
    177 H177        0.3526  -17.8608  -43.4866 H         1 UNK         0.0600 
    178 H178        0.4442  -16.2591  -44.2185 H         1 UNK         0.0600 
    179 H179       -2.2823  -17.8655  -44.0003 H         1 UNK         0.3000 
    180 H180       -3.5104  -17.6130  -45.8483 H         1 UNK         0.0600 
    181 H181       -5.5793  -15.7078  -44.5936 H         1 UNK         0.0600 
    182 H182       -5.1904  -17.3210  -44.0059 H         1 UNK         0.0600 
    183 H183       -5.9706  -17.1219  -45.5643 H         1 UNK         0.0600 
    184 H184       -3.3785  -14.9278  -46.7428 H         1 UNK         0.3000 
    185 H185       -4.8794  -15.6727  -49.9439 H         1 UNK         0.0600 
    186 H186       -6.0973  -14.0265  -48.5850 H         1 UNK         0.0600 
    187 H187       -4.5959  -13.3193  -48.0138 H         1 UNK         0.0600 
    188 H188       -5.0241  -13.2232  -49.7200 H         1 UNK         0.0600 
    189 H189       -2.7772  -15.4473  -50.4955 H         1 UNK         0.3000 
    190 H190        0.6682  -21.6728  -46.6208 H         1 UNK         0.3000 
    191 H191       -1.3574  -19.5946  -46.9352 H         1 UNK         0.0600 
    192 H192        1.1804  -19.1733  -46.9237 H         1 UNK         0.0600 
    193 H193        0.2455  -18.1729  -45.8326 H         1 UNK         0.0600 
    194 H194        1.1658  -19.5326  -45.2087 H         1 UNK         0.0600 
    195 H195       -0.0525  -21.6485  -44.2949 H         1 UNK         0.3000 
    196 H196       -1.7240  -20.6869  -42.2319 H         1 UNK         0.0600 
    197 H197       -1.0558  -22.7835  -41.0593 H         1 UNK         0.0600 
    198 H198        0.3288  -22.0168  -41.8265 H         1 UNK         0.0600 
    199 H199       -0.4136  -23.4355  -42.5625 H         1 UNK         0.0600 
    200 H200       -2.2034  -23.3364  -44.5768 H         1 UNK         0.3000 
    201 H201       -4.8014  -24.1328  -43.6514 H         1 UNK         0.0600 
    202 H202       -4.8182  -25.4283  -45.7799 H         1 UNK         0.0600 
    203 H203       -3.2742  -25.6075  -44.9633 H         1 UNK         0.0600 
    204 H204       -3.4167  -24.5365  -46.3572 H         1 UNK         0.0600 
    205 H205       -3.8610  -21.3202  -45.3202 H         1 UNK         0.3000 
    206 H206       -4.8253  -19.6786  -46.4247 H         1 UNK         0.0600 
    207 H207       -6.4854  -19.6805  -44.5582 H         1 UNK         0.0600 
    208 H208       -7.2001  -19.1396  -46.0688 H         1 UNK         0.0600 
    209 H209       -7.5315  -20.7595  -45.4815 H         1 UNK         0.0600 
    210 H210       -4.2188  -22.1384  -47.8136 H         1 UNK         0.3000 
    211 H211       -6.1223  -22.3729  -50.0459 H         1 UNK         0.0600 
    212 H212       -3.3581  -23.6026  -49.5558 H         1 UNK         0.0600 
    213 H213       -4.4228  -23.9919  -50.9009 H         1 UNK         0.0600 
    214 H214       -4.9066  -24.3851  -49.2576 H         1 UNK         0.0600 
    215 H215       -3.4429  -20.4214  -49.1249 H         1 UNK         0.3000 
    216 H216       -2.3310  -19.6043  -51.5834 H         1 UNK         0.0600 
    217 H217       -1.4384  -17.7412  -50.2405 H         1 UNK         0.0600 
    218 H218       -1.3604  -19.2205  -49.3003 H         1 UNK         0.0600 
    219 H219       -2.6079  -18.0432  -48.9609 H         1 UNK         0.0600 
    220 H220       -5.4998  -18.9249  -50.4095 H         1 UNK         0.3000 
    221 H221       -5.9585  -16.4848  -51.9243 H         1 UNK         0.0600 
    222 H222       -7.8869  -18.5362  -50.7090 H         1 UNK         0.0600 
    223 H223       -7.3176  -17.0634  -49.9262 H         1 UNK         0.0600 
    224 H224       -8.3406  -16.9610  -51.3516 H         1 UNK         0.0600 
    225 H225       -5.9463  -19.9327  -52.6380 H         1 UNK         0.3000 
    226 H226       -7.2181  -19.5201  -55.3111 H         1 UNK         0.0600 
    227 H227       -7.4292  -21.9956  -55.3002 H         1 UNK         0.0600 
    228 H228       -6.6720  -22.0798  -53.7139 H         1 UNK         0.0600 
    229 H229       -8.2384  -21.2955  -53.9066 H         1 UNK         0.0600 
    230 H230       -4.3527  -20.8638  -53.6197 H         1 UNK         0.3000 
    231 H231       -2.8338  -21.3804  -56.0491 H         1 UNK         0.0600 
    232 H232       -2.0754  -21.3821  -53.0803 H         1 UNK         0.0600 
    233 H233       -1.0348  -21.9243  -54.3908 H         1 UNK         0.0600 
    234 H234       -2.5302  -22.7814  -54.0445 H         1 UNK         0.0600 
    235 H235       -3.0221  -19.3008  -57.0518 H         1 UNK         0.3000 
    236 H236       -2.1179  -16.8859  -55.8320 H         1 UNK         0.0600 
    237 H237       -3.8608  -16.9716  -57.5892 H         1 UNK         0.0600 
    238 H238       -2.5341  -15.9427  -58.1022 H         1 UNK         0.0600 
    239 H239       -2.6870  -17.5665  -58.7633 H         1 UNK         0.0600 
    240 H240       -0.2798  -19.3934  -57.2664 H         1 UNK         0.3000 
    241 H241        1.8187  -19.6950  -57.8689 H         1 UNK         0.0600 
    242 H242        1.0366  -17.5449  -60.9768 H         1 UNK         0.3800 
    243 H243       -0.0819  -18.0725  -59.7476 H         1 UNK         0.3800 
    244 H244        3.6784  -18.1652  -57.1449 H         1 UNK         0.0800 
    245 H245        2.5157  -17.0135  -56.5659 H         1 UNK         0.0800 
    246 H246        2.3638  -16.8722  -54.0729 H         1 UNK         0.0800 
    247 H247        0.8308  -17.6063  -54.4872 H         1 UNK         0.0800 
@<TRIPOS>BOND
     1    1    2 1    
     2    1  127 1    
     3    1  128 1    
     4    1  129 1    
     5    2    3 2    
     6    2    4 am   BACKBONE|DICT|INTERRES
     7    4    5 1    
     8    4  130 1    
     9    5    6 1    
    10    5   65 1    
    11    5  131 1    
    12    6    7 1    
    13    6  132 1    
    14    6  133 1    
    15    7    8 1    
    16    8    9 1    
    17    8  134 1    
    18    8  135 1    
    19    9   10 ar   
    20    9   14 ar   
    21   10   11 ar   
    22   10  136 1    
    23   11   12 ar   
    24   11  126 1    
    25   12   13 ar   
    26   12  137 1    
    27   13   14 ar   
    28   13   15 1    
    29   14  138 1    
    30   15   16 1    
    31   15  139 1    
    32   15  140 1    
    33   16   17 1    
    34   17   18 1    
    35   17  141 1    
    36   17  142 1    
    37   18   19 1    
    38   18   67 1    
    39   18  143 1    
    40   19   20 am   BACKBONE|DICT|INTERRES
    41   19  144 1    
    42   20   21 2    
    43   20   22 1    
    44   22   23 1    
    45   22   24 1    
    46   22  145 1    
    47   23  146 1    
    48   23  147 1    
    49   23  148 1    
    50   24   25 am   BACKBONE|DICT|INTERRES
    51   24  149 1    
    52   25   26 2    
    53   25   27 1    
    54   27   28 1    
    55   27   29 1    
    56   27  150 1    
    57   28  151 1    
    58   28  152 1    
    59   28  153 1    
    60   29   30 am   BACKBONE|DICT|INTERRES
    61   29  154 1    
    62   30   31 2    
    63   30   32 1    
    64   32   33 1    
    65   32   34 1    
    66   32  155 1    
    67   33  156 1    
    68   33  157 1    
    69   33  158 1    
    70   34   35 am   BACKBONE|DICT|INTERRES
    71   34  159 1    
    72   35   36 2    
    73   35   37 1    
    74   37   38 1    
    75   37   39 1    
    76   37  160 1    
    77   38  161 1    
    78   38  162 1    
    79   38  163 1    
    80   39   40 am   BACKBONE|DICT|INTERRES
    81   39  164 1    
    82   40   41 2    
    83   40   42 1    
    84   42   43 1    
    85   42   44 1    
    86   42  165 1    
    87   43  166 1    
    88   43  167 1    
    89   43  168 1    
    90   44   45 am   BACKBONE|DICT|INTERRES
    91   44  169 1    
    92   45   46 2    
    93   45   47 1    
    94   47   48 1    
    95   47   49 1    
    96   47  170 1    
    97   48  171 1    
    98   48  172 1    
    99   48  173 1    
   100   49   50 am   BACKBONE|DICT|INTERRES
   101   49  174 1    
   102   50   51 2    
   103   50   52 1    
   104   52   53 1    
   105   52   54 1    
   106   52  175 1    
   107   53  176 1    
   108   53  177 1    
   109   53  178 1    
   110   54   55 am   BACKBONE|DICT|INTERRES
   111   54  179 1    
   112   55   56 2    
   113   55   57 1    
   114   57   58 1    
   115   57   59 1    
   116   57  180 1    
   117   58  181 1    
   118   58  182 1    
   119   58  183 1    
   120   59   60 am   BACKBONE|DICT|INTERRES
   121   59  184 1    
   122   60   61 2    
   123   60   62 1    
   124   62   63 1    
   125   62   64 1    
   126   62  185 1    
   127   63  186 1    
   128   63  187 1    
   129   63  188 1    
   130   64   65 am   BACKBONE|DICT|INTERRES
   131   64  189 1    
   132   65   66 2    
   133   67   68 2    
   134   67   69 am   BACKBONE|DICT|INTERRES
   135   69   70 1    
   136   69  190 1    
   137   70   71 1    
   138   70   72 1    
   139   70  191 1    
   140   71  192 1    
   141   71  193 1    
   142   71  194 1    
   143   72   73 2    
   144   72   74 am   BACKBONE|DICT|INTERRES
   145   74   75 1    
   146   74  195 1    
   147   75   76 1    
   148   75   77 1    
   149   75  196 1    
   150   76  197 1    
   151   76  198 1    
   152   76  199 1    
   153   77   78 2    
   154   77   79 am   BACKBONE|DICT|INTERRES
   155   79   80 1    
   156   79  200 1    
   157   80   81 1    
   158   80   82 1    
   159   80  201 1    
   160   81  202 1    
   161   81  203 1    
   162   81  204 1    
   163   82   83 2    
   164   82   84 am   BACKBONE|DICT|INTERRES
   165   84   85 1    
   166   84  205 1    
   167   85   86 1    
   168   85   87 1    
   169   85  206 1    
   170   86  207 1    
   171   86  208 1    
   172   86  209 1    
   173   87   88 2    
   174   87   89 am   BACKBONE|DICT|INTERRES
   175   89   90 1    
   176   89  210 1    
   177   90   91 1    
   178   90   92 1    
   179   90  211 1    
   180   91  212 1    
   181   91  213 1    
   182   91  214 1    
   183   92   93 2    
   184   92   94 am   BACKBONE|DICT|INTERRES
   185   94   95 1    
   186   94  215 1    
   187   95   96 1    
   188   95   97 1    
   189   95  216 1    
   190   96  217 1    
   191   96  218 1    
   192   96  219 1    
   193   97   98 2    
   194   97   99 am   BACKBONE|DICT|INTERRES
   195   99  100 1    
   196   99  220 1    
   197  100  101 1    
   198  100  102 1    
   199  100  221 1    
   200  101  222 1    
   201  101  223 1    
   202  101  224 1    
   203  102  103 2    
   204  102  104 am   BACKBONE|DICT|INTERRES
   205  104  105 1    
   206  104  225 1    
   207  105  106 1    
   208  105  107 1    
   209  105  226 1    
   210  106  227 1    
   211  106  228 1    
   212  106  229 1    
   213  107  108 2    
   214  107  109 am   BACKBONE|DICT|INTERRES
   215  109  110 1    
   216  109  230 1    
   217  110  111 1    
   218  110  112 1    
   219  110  231 1    
   220  111  232 1    
   221  111  233 1    
   222  111  234 1    
   223  112  113 2    
   224  112  114 am   BACKBONE|DICT|INTERRES
   225  114  115 1    
   226  114  235 1    
   227  115  116 1    
   228  115  117 1    
   229  115  236 1    
   230  116  237 1    
   231  116  238 1    
   232  116  239 1    
   233  117  118 2    
   234  117  119 am   BACKBONE|DICT|INTERRES
   235  119  120 1    
   236  119  240 1    
   237  120  121 1    
   238  120  124 1    
   239  120  241 1    
   240  121  122 am   BACKBONE|DICT|INTERRES
   241  121  123 2    
   242  122  242 1    
   243  122  243 1    
   244  124  125 1    
   245  124  244 1    
   246  124  245 1    
   247  125  126 1    
   248  126  246 1    
   249  126  247 1    
@<TRIPOS>SUBSTRUCTURE
     1 UNK         1 GROUP             0       ****    0 ROOT    
