@<TRIPOS>MOLECULE
3R540
247   249    1
SMALL
USER_CHARGES


@<TRIPOS>ATOM
      1 CA          4.8603  -15.2510  -51.1537 C.3       0 UNK        -0.1800 
      2 C           4.4778  -15.3628  -49.6851 C.2       0 UNK         0.5000 
      3 O           5.3338  -15.6425  -48.8447 O.2       0 UNK        -0.5000 
      4 N           3.1974  -15.1386  -49.3671 N.am      1 UNK        -0.5000 
      5 CA          2.6333  -15.1717  -48.0153 C.3       1 UNK         0.1400 
      6 C6          1.1361  -15.5890  -48.0106 C.3       23 UNK        -0.0398 
      7 S7          0.0528  -14.6760  -49.1663 S.3       23 UNK        -0.2404 
      8 C8         -0.0142  -15.7841  -50.6153 C.3       23 UNK        -0.0205 
      9 C9         -0.7643  -17.0856  -50.3571 C.ar      23 UNK        -0.0193 
     10 C10        -2.1190  -17.0641  -50.0128 C.ar      23 UNK        -0.1150 
     11 C11        -2.8232  -18.2560  -49.8215 C.ar      23 UNK        -0.0193 
     12 C12        -2.1611  -19.4772  -49.9697 C.ar      23 UNK        -0.1150 
     13 C13        -0.8127  -19.5170  -50.3360 C.ar      23 UNK        -0.0193 
     14 C14        -0.1198  -18.3160  -50.5254 C.ar      23 UNK        -0.1150 
     15 C15        -0.1362  -20.8637  -50.5749 C.3       23 UNK        -0.0205 
     16 S16         1.4698  -21.0621  -49.7325 S.3       23 UNK        -0.2404 
     17 C17         1.0010  -20.8442  -47.9844 C.3       23 UNK        -0.0398 
     18 CA          0.9243  -22.1504  -47.1574 C.3       11 UNK         0.1400 
     19 N           0.7851  -21.8444  -45.7329 N.am      11 UNK        -0.5000 
     20 C           0.7664  -22.7260  -44.7257 C.2       10 UNK         0.5000 
     21 O           0.9094  -23.9381  -44.8710 O.2       10 UNK        -0.5000 
     22 CA          0.4829  -22.1596  -43.3227 C.3       10 UNK         0.1400 
     23 CB          1.7377  -21.5047  -42.7269 C.3       10 UNK        -0.1800 
     24 N          -0.6242  -21.2015  -43.3228 N.am      10 UNK        -0.5000 
     25 C          -1.8908  -21.5152  -43.6341 C.2       9 UNK         0.5000 
     26 O          -2.2650  -22.6535  -43.9157 O.2       9 UNK        -0.5000 
     27 CA         -2.9022  -20.3568  -43.6789 C.3       9 UNK         0.1400 
     28 CB         -3.3544  -19.9752  -42.2616 C.3       9 UNK        -0.1800 
     29 N          -2.3748  -19.1767  -44.3640 N.am      9 UNK        -0.5000 
     30 C          -2.0274  -19.1456  -45.6592 C.2       8 UNK         0.5000 
     31 O          -2.1567  -20.0986  -46.4264 O.2       8 UNK        -0.5000 
     32 CA         -1.3703  -17.8517  -46.1685 C.3       8 UNK         0.1400 
     33 CB         -2.4244  -16.7672  -46.4204 C.3       8 UNK        -0.1800 
     34 N          -0.3582  -17.3368  -45.2472 N.am      8 UNK        -0.5000 
     35 C           0.7513  -17.9922  -44.8835 C.2       7 UNK         0.5000 
     36 O           1.0632  -19.0985  -45.3148 O.2       7 UNK        -0.5000 
     37 CA          1.6529  -17.3189  -43.8406 C.3       7 UNK         0.1400 
     38 CB          2.6310  -16.3477  -44.5124 C.3       7 UNK        -0.1800 
     39 N           0.8778  -16.6303  -42.8108 N.am      7 UNK        -0.5000 
     40 C           0.2078  -17.2650  -41.8393 C.2       6 UNK         0.5000 
     41 O           0.1980  -18.4891  -41.6991 O.2       6 UNK        -0.5000 
     42 CA         -0.6183  -16.3793  -40.8904 C.3       6 UNK         0.1400 
     43 CB          0.2887  -15.6920  -39.8583 C.3       6 UNK        -0.1800 
     44 N          -1.3965  -15.3665  -41.6047 N.am      6 UNK        -0.5000 
     45 C          -2.4121  -15.6432  -42.4350 C.2       5 UNK         0.5000 
     46 O          -2.7987  -16.7840  -42.6870 O.2       5 UNK        -0.5000 
     47 CA         -3.0910  -14.4486  -43.1313 C.3       5 UNK         0.1400 
     48 CB         -4.1976  -13.8685  -42.2382 C.3       5 UNK        -0.1800 
     49 N          -2.1780  -13.3723  -43.5239 N.am      5 UNK        -0.5000 
     50 C          -1.0763  -13.5045  -44.2757 C.2       4 UNK         0.5000 
     51 O          -0.6492  -14.5864  -44.6821 O.2       4 UNK        -0.5000 
     52 CA         -0.2989  -12.2231  -44.6284 C.3       4 UNK         0.1400 
     53 CB         -0.9022  -10.9206  -44.0545 C.3       4 UNK        -0.1800 
     54 N           1.1113  -12.3496  -44.2616 N.am      4 UNK        -0.5000 
     55 C           1.6212  -12.5409  -43.0353 C.2       3 UNK         0.5000 
     56 O           0.9295  -12.6340  -42.0196 O.2       3 UNK        -0.5000 
     57 CA          3.1557  -12.6709  -42.9169 C.3       3 UNK         0.1400 
     58 CB          3.5549  -13.7643  -41.9094 C.3       3 UNK        -0.1800 
     59 N           3.8073  -12.9251  -44.2086 N.am      3 UNK        -0.5000 
     60 C           4.2291  -11.9680  -45.0473 C.2       2 UNK         0.5000 
     61 O           4.1529  -10.7642  -44.7999 O.2       2 UNK        -0.5000 
     62 CA          4.8085  -12.4196  -46.4027 C.3       2 UNK         0.1400 
     63 CB          6.3318  -12.5900  -46.3026 C.3       2 UNK        -0.1800 
     64 N           4.2304  -13.6493  -46.9554 N.am      2 UNK        -0.5000 
     65 C           2.9423  -13.8532  -47.2661 C.2       1 UNK         0.5000 
     66 O           2.0488  -13.0463  -47.0098 O.2       1 UNK        -0.5000 
     67 C          -0.1973  -23.0897  -47.6458 C.2       11 UNK         0.5000 
     68 O           0.0955  -24.1355  -48.2276 O.2       11 UNK        -0.5000 
     69 N          -1.4549  -22.7288  -47.3552 N.am      12 UNK        -0.5000 
     70 CA         -2.6395  -23.5139  -47.6999 C.3       12 UNK         0.1400 
     71 CB         -3.9030  -22.7046  -47.3733 C.3       12 UNK        -0.1800 
     72 C          -2.6802  -24.8963  -47.0228 C.2       12 UNK         0.5000 
     73 O          -3.1551  -25.8504  -47.6362 O.2       12 UNK        -0.5000 
     74 N          -2.1696  -24.9922  -45.7892 N.am      13 UNK        -0.5000 
     75 CA         -2.0496  -26.2468  -45.0511 C.3       13 UNK         0.1400 
     76 CB         -1.8557  -25.9486  -43.5559 C.3       13 UNK        -0.1800 
     77 C          -0.9130  -27.1383  -45.5842 C.2       13 UNK         0.5000 
     78 O          -1.1368  -28.3256  -45.8238 O.2       13 UNK        -0.5000 
     79 N           0.2881  -26.5633  -45.7316 N.am      14 UNK        -0.5000 
     80 CA          1.5136  -27.2975  -46.0418 C.3       14 UNK         0.1400 
     81 CB          2.7315  -26.4841  -45.5740 C.3       14 UNK        -0.1800 
     82 C           1.6528  -27.6618  -47.5280 C.2       14 UNK         0.5000 
     83 O           1.9848  -28.8072  -47.8377 O.2       14 UNK        -0.5000 
     84 N           1.4333  -26.6860  -48.4188 N.am      15 UNK        -0.5000 
     85 CA          1.6698  -26.8355  -49.8569 C.3       15 UNK         0.1400 
     86 CB          2.1913  -25.5031  -50.4233 C.3       15 UNK        -0.1800 
     87 C           0.4157  -27.2830  -50.6243 C.2       15 UNK         0.5000 
     88 O           0.5485  -27.7563  -51.7533 O.2       15 UNK        -0.5000 
     89 N          -0.7709  -27.0926  -50.0242 N.am      16 UNK        -0.5000 
     90 CA         -2.1027  -27.2930  -50.6172 C.3       16 UNK         0.1400 
     91 CB         -2.3433  -28.7785  -50.9593 C.3       16 UNK        -0.1800 
     92 C          -2.3867  -26.3476  -51.8080 C.2       16 UNK         0.5000 
     93 O          -3.2396  -26.6459  -52.6465 O.2       16 UNK        -0.5000 
     94 N          -1.6601  -25.2253  -51.8580 N.am      17 UNK        -0.5000 
     95 CA         -1.7513  -24.1881  -52.8786 C.3       17 UNK         0.1400 
     96 CB         -0.3278  -23.6788  -53.1613 C.3       17 UNK        -0.1800 
     97 C          -2.6607  -23.0421  -52.4060 C.2       17 UNK         0.5000 
     98 O          -2.9864  -22.9538  -51.2203 O.2       17 UNK        -0.5000 
     99 N          -3.0303  -22.1644  -53.3408 N.am      18 UNK        -0.5000 
    100 CA        -3.8103  -20.9605  -53.0881 C.3       18 UNK         0.1400 
    101 CB        -5.3090  -21.2697  -53.2386 C.3       18 UNK        -0.1800 
    102 C         -3.3740  -19.8766  -54.0780 C.2       18 UNK         0.5000 
    103 O         -3.0460  -20.1931  -55.2240 O.2       18 UNK        -0.5000 
    104 N         -3.4328  -18.6148  -53.6427 N.am      19 UNK        -0.5000 
    105 CA        -3.1570  -17.4240  -54.4482 C.3       19 UNK         0.1400 
    106 CB        -2.5108  -16.3594  -53.5462 C.3       19 UNK        -0.1800 
    107 C         -4.4373  -16.9187  -55.1454 C.2       19 UNK         0.5000 
    108 O         -4.7392  -15.7245  -55.1017 O.2       19 UNK        -0.5000 
    109 N         -5.1825  -17.8539  -55.7520 N.am      20 UNK        -0.5000 
    110 CA        -6.4651  -17.7167  -56.4519 C.3       20 UNK         0.1400 
    111 CB        -6.3448  -16.7951  -57.6810 C.3       20 UNK        -0.1800 
    112 C         -7.6377  -17.2989  -55.5436 C.2       20 UNK         0.5000 
    113 O         -8.6199  -18.0355  -55.4487 O.2       20 UNK        -0.5000 
    114 N         -7.5143  -16.1420  -54.8812 N.am      21 UNK        -0.5000 
    115 CA        -8.5382  -15.5200  -54.0362 C.3       21 UNK         0.1400 
    116 CB        -8.0426  -14.1369  -53.5880 C.3       21 UNK        -0.1800 
    117 C         -8.9434  -16.3696  -52.8170 C.2       21 UNK         0.5000 
    118 O        -10.1095  -16.3479  -52.4213 O.2       21 UNK        -0.5000 
    119 N         -7.9790  -17.1143  -52.2661 N.am      22 UNK        -0.5000 
    120 CA        -8.1713  -18.0958  -51.1882 C.3       22 UNK         0.1400 
    121 C         -8.5341  -19.5284  -51.6844 C.2       22 UNK         0.5000 
    122 N         -8.7301  -19.7660  -52.9770 N.am      22 UNK        -0.7600 
    123 O         -8.6663  -20.4442  -50.8773 O.2       22 UNK        -0.5000 
    124 C124       -6.9873  -18.0805  -50.1848 C.3       23 UNK        -0.0398 
    125 S125       -5.3446  -18.3038  -50.9475 S.3       23 UNK        -0.2404 
    126 C126       -4.3001  -18.2238  -49.4635 C.3       23 UNK        -0.0205 
    127 H127        5.6130  -14.4740  -51.2869 H         1 UNK         0.0600 
    128 H128        4.0016  -15.0045  -51.7787 H         1 UNK         0.0600 
    129 H129        5.2768  -16.1949  -51.5052 H         1 UNK         0.0600 
    130 H130        2.5491  -14.8590  -50.0890 H         1 UNK         0.3000 
    131 H131        3.1571  -15.9550  -47.4659 H         1 UNK         0.0600 
    132 H132        1.0604  -16.6544  -48.2307 H         1 UNK         0.0800 
    133 H133        0.7186  -15.4743  -47.0098 H         1 UNK         0.0800 
    134 H134       -0.5133  -15.2529  -51.4266 H         1 UNK         0.0800 
    135 H135        0.9981  -15.9861  -50.9662 H         1 UNK         0.0800 
    136 H136       -2.6268  -16.1161  -49.9040 H         1 UNK         0.1150 
    137 H137       -2.7057  -20.3999  -49.8223 H         1 UNK         0.1150 
    138 H138        0.9199  -18.3429  -50.8198 H         1 UNK         0.1150 
    139 H139       -0.7886  -21.6815  -50.2667 H         1 UNK         0.0800 
    140 H140        0.0170  -20.9787  -51.6481 H         1 UNK         0.0800 
    141 H141        1.7645  -20.1949  -47.5553 H         1 UNK         0.0800 
    142 H142        0.0692  -20.2844  -47.9088 H         1 UNK         0.0800 
    143 H143        1.8701  -22.6830  -47.2756 H         1 UNK         0.0600 
    144 H144        0.7036  -20.8556  -45.5038 H         1 UNK         0.3000 
    145 H145        0.2002  -22.9953  -42.6793 H         1 UNK         0.0600 
    146 H146        2.5640  -22.2153  -42.6832 H         1 UNK         0.0600 
    147 H147        2.0698  -20.6514  -43.3179 H         1 UNK         0.0600 
    148 H148        1.5544  -21.1552  -41.7107 H         1 UNK         0.0600 
    149 H149       -0.4001  -20.2425  -43.0890 H         1 UNK         0.3000 
    150 H150       -3.7771  -20.7018  -44.2339 H         1 UNK         0.0600 
    151 H151       -3.7454  -20.8423  -41.7280 H         1 UNK         0.0600 
    152 H152       -4.1468  -19.2271  -42.2904 H         1 UNK         0.0600 
    153 H153       -2.5318  -19.5674  -41.6724 H         1 UNK         0.0600 
    154 H154       -2.2766  -18.3347  -43.8046 H         1 UNK         0.3000 
    155 H155       -0.8803  -18.0772  -47.1180 H         1 UNK         0.0600 
    156 H156       -1.9852  -15.8900  -46.8959 H         1 UNK         0.0600 
    157 H157       -3.2128  -17.1346  -47.0730 H         1 UNK         0.0600 
    158 H158       -2.8980  -16.4492  -45.4939 H         1 UNK         0.0600 
    159 H159       -0.5167  -16.4007  -44.8799 H         1 UNK         0.3000 
    160 H160        2.2425  -18.1052  -43.3641 H         1 UNK         0.0600 
    161 H161        2.1260  -15.4493  -44.8672 H         1 UNK         0.0600 
    162 H162        3.1211  -16.8233  -45.3617 H         1 UNK         0.0600 
    163 H163        3.4240  -16.0537  -43.8278 H         1 UNK         0.0600 
    164 H164        0.7620  -15.6317  -42.9065 H         1 UNK         0.3000 
    165 H165       -1.3157  -17.0268  -40.3544 H         1 UNK         0.0600 
    166 H166       -0.2981  -15.1329  -39.1294 H         1 UNK         0.0600 
    167 H167        0.8785  -16.4252  -39.3067 H         1 UNK         0.0600 
    168 H168        0.9850  -14.9975  -40.3301 H         1 UNK         0.0600 
    169 H169       -1.1184  -14.4024  -41.4835 H         1 UNK         0.3000 
    170 H170       -3.5605  -14.8209  -44.0425 H         1 UNK         0.0600 
    171 H171       -4.9089  -14.6419  -41.9449 H         1 UNK         0.0600 
    172 H172       -3.7908  -13.4329  -41.3247 H         1 UNK         0.0600 
    173 H173       -4.7603  -13.0933  -42.7588 H         1 UNK         0.0600 
    174 H174       -2.4286  -12.4441  -43.2165 H         1 UNK         0.3000 
    175 H175       -0.3254  -12.1474  -45.7164 H         1 UNK         0.0600 
    176 H176       -0.9356  -10.9230  -42.9645 H         1 UNK         0.0600 
    177 H177       -0.3149  -10.0551  -44.3617 H         1 UNK         0.0600 
    178 H178       -1.9170  -10.7604  -44.4209 H         1 UNK         0.0600 
    179 H179        1.7456  -12.3711  -45.0517 H         1 UNK         0.3000 
    180 H180        3.5194  -11.7217  -42.5181 H         1 UNK         0.0600 
    181 H181        3.0437  -14.7060  -42.1005 H         1 UNK         0.0600 
    182 H182        3.2928  -13.4640  -40.8942 H         1 UNK         0.0600 
    183 H183        4.6292  -13.9491  -41.9223 H         1 UNK         0.0600 
    184 H184        3.9040  -13.8882  -44.4928 H         1 UNK         0.3000 
    185 H185        4.6046  -11.6211  -47.1189 H         1 UNK         0.0600 
    186 H186        6.8043  -11.6822  -45.9245 H         1 UNK         0.0600 
    187 H187        6.6013  -13.4055  -45.6303 H         1 UNK         0.0600 
    188 H188        6.7705  -12.8005  -47.2783 H         1 UNK         0.0600 
    189 H189        4.8928  -14.3535  -47.2631 H         1 UNK         0.3000 
    190 H190       -1.6242  -21.8406  -46.8883 H         1 UNK         0.3000 
    191 H191       -2.6151  -23.6863  -48.7763 H         1 UNK         0.0600 
    192 H192       -4.8033  -23.2618  -47.6343 H         1 UNK         0.0600 
    193 H193       -3.9259  -21.7697  -47.9339 H         1 UNK         0.0600 
    194 H194       -3.9593  -22.4609  -46.3117 H         1 UNK         0.0600 
    195 H195       -1.8483  -24.1513  -45.3229 H         1 UNK         0.3000 
    196 H196       -2.9848  -26.8006  -45.1586 H         1 UNK         0.0600 
    197 H197       -1.7644  -26.8711  -42.9814 H         1 UNK         0.0600 
    198 H198       -2.7051  -25.3971  -43.1526 H         1 UNK         0.0600 
    199 H199       -0.9584  -25.3567  -43.3729 H         1 UNK         0.0600 
    200 H200        0.3994  -25.5777  -45.4997 H         1 UNK         0.3000 
    201 H201        1.5063  -28.2303  -45.4729 H         1 UNK         0.0600 
    202 H202        2.6795  -26.2775  -44.5046 H         1 UNK         0.0600 
    203 H203        2.8037  -25.5284  -46.0954 H         1 UNK         0.0600 
    204 H204        3.6591  -27.0283  -45.7558 H         1 UNK         0.0600 
    205 H205        1.1070  -25.7750  -48.1060 H         1 UNK         0.3000 
    206 H206        2.4431  -27.5882  -50.0263 H         1 UNK         0.0600 
    207 H207        3.0779  -25.1646  -49.8867 H         1 UNK         0.0600 
    208 H208        2.4684  -25.6091  -51.4729 H         1 UNK         0.0600 
    209 H209        1.4431  -24.7124  -50.3662 H         1 UNK         0.0600 
    210 H210       -0.7628  -26.6938  -49.0952 H         1 UNK         0.3000 
    211 H211       -2.8259  -27.0232  -49.8500 H         1 UNK         0.0600 
    212 H212       -1.7273  -29.1105  -51.7951 H         1 UNK         0.0600 
    213 H213       -3.3841  -28.9510  -51.2354 H         1 UNK         0.0600 
    214 H214       -2.1258  -29.4195  -50.1050 H         1 UNK         0.0600 
    215 H215       -1.0376  -25.0334  -51.0872 H         1 UNK         0.3000 
    216 H216       -2.1668  -24.6011  -53.8001 H         1 UNK         0.0600 
    217 H217        0.2998  -24.4778  -53.5567 H         1 UNK         0.0600 
    218 H218        0.1523  -23.3006  -52.2586 H         1 UNK         0.0600 
    219 H219       -0.3288  -22.8748  -53.8981 H         1 UNK         0.0600 
    220 H220       -2.6946  -22.2550  -54.2914 H         1 UNK         0.3000 
    221 H221       -3.6180  -20.5987  -52.0775 H         1 UNK         0.0600 
    222 H222       -5.5367  -21.6944  -54.2169 H         1 UNK         0.0600 
    223 H223       -5.6434  -21.9763  -52.4788 H         1 UNK         0.0600 
    224 H224       -5.9084  -20.3663  -53.1268 H         1 UNK         0.0600 
    225 H225       -3.7575  -18.4412  -52.6994 H         1 UNK         0.3000 
    226 H226       -2.4401  -17.6693  -55.2345 H         1 UNK         0.0600 
    227 H227       -1.5828  -16.7333  -53.1153 H         1 UNK         0.0600 
    228 H228       -2.2638  -15.4590  -54.1099 H         1 UNK         0.0600 
    229 H229       -3.1707  -16.0687  -52.7279 H         1 UNK         0.0600 
    230 H230       -4.8217  -18.7986  -55.7165 H         1 UNK         0.3000 
    231 H231       -6.7020  -18.7152  -56.8229 H         1 UNK         0.0600 
    232 H232       -7.2811  -16.7700  -58.2397 H         1 UNK         0.0600 
    233 H233       -5.5704  -17.1481  -58.3619 H         1 UNK         0.0600 
    234 H234       -6.1043  -15.7681  -57.4056 H         1 UNK         0.0600 
    235 H235       -6.6299  -15.6492  -54.9754 H         1 UNK         0.3000 
    236 H236       -9.4310  -15.3816  -54.6493 H         1 UNK         0.0600 
    237 H237       -7.8428  -13.4931  -54.4448 H         1 UNK         0.0600 
    238 H238       -8.7886  -13.6340  -52.9712 H         1 UNK         0.0600 
    239 H239       -7.1253  -14.2097  -53.0023 H         1 UNK         0.0600 
    240 H240       -7.0514  -17.0740  -52.6615 H         1 UNK         0.3000 
    241 H241       -9.0468  -17.7890  -50.6133 H         1 UNK         0.0600 
    242 H242       -8.6764  -19.0282  -53.6691 H         1 UNK         0.3800 
    243 H243       -8.9771  -20.6979  -53.2686 H         1 UNK         0.3800 
    244 H244       -6.9814  -17.1221  -49.6639 H         1 UNK         0.0800 
    245 H245       -7.1253  -18.8345  -49.4079 H         1 UNK         0.0800 
    246 H246       -4.5346  -17.3073  -48.9212 H         1 UNK         0.0800 
    247 H247       -4.5416  -19.0535  -48.7968 H         1 UNK         0.0800 
@<TRIPOS>BOND
     1    1    2 1    
     2    1  127 1    
     3    1  128 1    
     4    1  129 1    
     5    2    3 2    
     6    2    4 am   BACKBONE|DICT|INTERRES
     7    4    5 1    
     8    4  130 1    
     9    5    6 1    
    10    5   65 1    
    11    5  131 1    
    12    6    7 1    
    13    6  132 1    
    14    6  133 1    
    15    7    8 1    
    16    8    9 1    
    17    8  134 1    
    18    8  135 1    
    19    9   10 ar   
    20    9   14 ar   
    21   10   11 ar   
    22   10  136 1    
    23   11   12 ar   
    24   11  126 1    
    25   12   13 ar   
    26   12  137 1    
    27   13   14 ar   
    28   13   15 1    
    29   14  138 1    
    30   15   16 1    
    31   15  139 1    
    32   15  140 1    
    33   16   17 1    
    34   17   18 1    
    35   17  141 1    
    36   17  142 1    
    37   18   19 1    
    38   18   67 1    
    39   18  143 1    
    40   19   20 am   BACKBONE|DICT|INTERRES
    41   19  144 1    
    42   20   21 2    
    43   20   22 1    
    44   22   23 1    
    45   22   24 1    
    46   22  145 1    
    47   23  146 1    
    48   23  147 1    
    49   23  148 1    
    50   24   25 am   BACKBONE|DICT|INTERRES
    51   24  149 1    
    52   25   26 2    
    53   25   27 1    
    54   27   28 1    
    55   27   29 1    
    56   27  150 1    
    57   28  151 1    
    58   28  152 1    
    59   28  153 1    
    60   29   30 am   BACKBONE|DICT|INTERRES
    61   29  154 1    
    62   30   31 2    
    63   30   32 1    
    64   32   33 1    
    65   32   34 1    
    66   32  155 1    
    67   33  156 1    
    68   33  157 1    
    69   33  158 1    
    70   34   35 am   BACKBONE|DICT|INTERRES
    71   34  159 1    
    72   35   36 2    
    73   35   37 1    
    74   37   38 1    
    75   37   39 1    
    76   37  160 1    
    77   38  161 1    
    78   38  162 1    
    79   38  163 1    
    80   39   40 am   BACKBONE|DICT|INTERRES
    81   39  164 1    
    82   40   41 2    
    83   40   42 1    
    84   42   43 1    
    85   42   44 1    
    86   42  165 1    
    87   43  166 1    
    88   43  167 1    
    89   43  168 1    
    90   44   45 am   BACKBONE|DICT|INTERRES
    91   44  169 1    
    92   45   46 2    
    93   45   47 1    
    94   47   48 1    
    95   47   49 1    
    96   47  170 1    
    97   48  171 1    
    98   48  172 1    
    99   48  173 1    
   100   49   50 am   BACKBONE|DICT|INTERRES
   101   49  174 1    
   102   50   51 2    
   103   50   52 1    
   104   52   53 1    
   105   52   54 1    
   106   52  175 1    
   107   53  176 1    
   108   53  177 1    
   109   53  178 1    
   110   54   55 am   BACKBONE|DICT|INTERRES
   111   54  179 1    
   112   55   56 2    
   113   55   57 1    
   114   57   58 1    
   115   57   59 1    
   116   57  180 1    
   117   58  181 1    
   118   58  182 1    
   119   58  183 1    
   120   59   60 am   BACKBONE|DICT|INTERRES
   121   59  184 1    
   122   60   61 2    
   123   60   62 1    
   124   62   63 1    
   125   62   64 1    
   126   62  185 1    
   127   63  186 1    
   128   63  187 1    
   129   63  188 1    
   130   64   65 am   BACKBONE|DICT|INTERRES
   131   64  189 1    
   132   65   66 2    
   133   67   68 2    
   134   67   69 am   BACKBONE|DICT|INTERRES
   135   69   70 1    
   136   69  190 1    
   137   70   71 1    
   138   70   72 1    
   139   70  191 1    
   140   71  192 1    
   141   71  193 1    
   142   71  194 1    
   143   72   73 2    
   144   72   74 am   BACKBONE|DICT|INTERRES
   145   74   75 1    
   146   74  195 1    
   147   75   76 1    
   148   75   77 1    
   149   75  196 1    
   150   76  197 1    
   151   76  198 1    
   152   76  199 1    
   153   77   78 2    
   154   77   79 am   BACKBONE|DICT|INTERRES
   155   79   80 1    
   156   79  200 1    
   157   80   81 1    
   158   80   82 1    
   159   80  201 1    
   160   81  202 1    
   161   81  203 1    
   162   81  204 1    
   163   82   83 2    
   164   82   84 am   BACKBONE|DICT|INTERRES
   165   84   85 1    
   166   84  205 1    
   167   85   86 1    
   168   85   87 1    
   169   85  206 1    
   170   86  207 1    
   171   86  208 1    
   172   86  209 1    
   173   87   88 2    
   174   87   89 am   BACKBONE|DICT|INTERRES
   175   89   90 1    
   176   89  210 1    
   177   90   91 1    
   178   90   92 1    
   179   90  211 1    
   180   91  212 1    
   181   91  213 1    
   182   91  214 1    
   183   92   93 2    
   184   92   94 am   BACKBONE|DICT|INTERRES
   185   94   95 1    
   186   94  215 1    
   187   95   96 1    
   188   95   97 1    
   189   95  216 1    
   190   96  217 1    
   191   96  218 1    
   192   96  219 1    
   193   97   98 2    
   194   97   99 am   BACKBONE|DICT|INTERRES
   195   99  100 1    
   196   99  220 1    
   197  100  101 1    
   198  100  102 1    
   199  100  221 1    
   200  101  222 1    
   201  101  223 1    
   202  101  224 1    
   203  102  103 2    
   204  102  104 am   BACKBONE|DICT|INTERRES
   205  104  105 1    
   206  104  225 1    
   207  105  106 1    
   208  105  107 1    
   209  105  226 1    
   210  106  227 1    
   211  106  228 1    
   212  106  229 1    
   213  107  108 2    
   214  107  109 am   BACKBONE|DICT|INTERRES
   215  109  110 1    
   216  109  230 1    
   217  110  111 1    
   218  110  112 1    
   219  110  231 1    
   220  111  232 1    
   221  111  233 1    
   222  111  234 1    
   223  112  113 2    
   224  112  114 am   BACKBONE|DICT|INTERRES
   225  114  115 1    
   226  114  235 1    
   227  115  116 1    
   228  115  117 1    
   229  115  236 1    
   230  116  237 1    
   231  116  238 1    
   232  116  239 1    
   233  117  118 2    
   234  117  119 am   BACKBONE|DICT|INTERRES
   235  119  120 1    
   236  119  240 1    
   237  120  121 1    
   238  120  124 1    
   239  120  241 1    
   240  121  122 am   BACKBONE|DICT|INTERRES
   241  121  123 2    
   242  122  242 1    
   243  122  243 1    
   244  124  125 1    
   245  124  244 1    
   246  124  245 1    
   247  125  126 1    
   248  126  246 1    
   249  126  247 1    
@<TRIPOS>SUBSTRUCTURE
     1 UNK         1 GROUP             0       ****    0 ROOT    
