@<TRIPOS>MOLECULE
3R540
247   249    1
SMALL
USER_CHARGES


@<TRIPOS>ATOM
      1 CA          0.2578  -11.5183  -43.7659 C.3       0 UNK        -0.1800 
      2 C           0.6791  -12.0534  -45.1261 C.2       0 UNK         0.5000 
      3 O           0.8758  -13.2601  -45.2618 O.2       0 UNK        -0.5000 
      4 N           0.8270  -11.1593  -46.1128 N.am      1 UNK        -0.5000 
      5 CA          1.2329  -11.3491  -47.5182 C.3       1 UNK         0.1400 
      6 C6          0.1969  -12.0923  -48.4103 C.3       23 UNK        -0.0398 
      7 S7          0.1808  -13.9228  -48.3590 S.3       23 UNK        -0.2404 
      8 C8          1.0698  -14.3437  -49.8916 C.3       23 UNK        -0.0205 
      9 C9          0.8259  -15.7916  -50.2855 C.ar      23 UNK        -0.0193 
     10 C10        -0.1848  -16.1086  -51.1971 C.ar      23 UNK        -0.1150 
     11 C11        -0.4382  -17.4391  -51.5415 C.ar      23 UNK        -0.0193 
     12 C12         0.3350  -18.4570  -50.9771 C.ar      23 UNK        -0.1150 
     13 C13         1.3525  -18.1521  -50.0691 C.ar      23 UNK        -0.0193 
     14 C14         1.5987  -16.8170  -49.7343 C.ar      23 UNK        -0.1150 
     15 C15         2.1831  -19.2624  -49.4452 C.3       23 UNK        -0.0205 
     16 S16         1.5028  -19.7876  -47.8412 S.3       23 UNK        -0.2404 
     17 C17         0.0256  -20.7293  -48.3478 C.3       23 UNK        -0.0398 
     18 CA         -0.3587  -21.7922  -47.2938 C.3       11 UNK         0.1400 
     19 N          -0.6663  -21.2047  -45.9873 N.am      11 UNK        -0.5000 
     20 C          -0.7841  -21.9004  -44.8484 C.2       10 UNK         0.5000 
     21 O          -0.6097  -23.1147  -44.7690 O.2       10 UNK        -0.5000 
     22 CA         -1.2259  -21.1149  -43.6036 C.3       10 UNK         0.1400 
     23 CB         -0.0141  -20.5195  -42.8770 C.3       10 UNK        -0.1800 
     24 N          -2.1756  -20.0572  -43.9507 N.am      10 UNK        -0.5000 
     25 C          -3.4485  -20.3006  -44.2958 C.2       9 UNK         0.5000 
     26 O          -3.9436  -21.4283  -44.3158 O.2       9 UNK        -0.5000 
     27 CA         -4.2951  -19.0962  -44.7404 C.3       9 UNK         0.1400 
     28 CB         -4.8952  -18.3811  -43.5222 C.3       9 UNK        -0.1800 
     29 N          -3.5398  -18.1445  -45.5570 N.am      9 UNK        -0.5000 
     30 C          -3.0810  -18.4133  -46.7883 C.2       8 UNK         0.5000 
     31 O          -3.2387  -19.5052  -47.3337 O.2       8 UNK        -0.5000 
     32 CA         -2.2869  -17.3277  -47.5395 C.3       8 UNK         0.1400 
     33 CB         -2.8353  -17.1173  -48.9618 C.3       8 UNK        -0.1800 
     34 N          -2.1593  -16.0584  -46.8218 N.am      8 UNK        -0.5000 
     35 C          -3.0917  -15.1271  -46.5786 C.2       7 UNK         0.5000 
     36 O          -4.2630  -15.1962  -46.9531 O.2       7 UNK        -0.5000 
     37 CA         -2.6045  -13.9321  -45.7334 C.3       7 UNK         0.1400 
     38 CB         -3.7484  -13.0462  -45.1982 C.3       7 UNK        -0.1800 
     39 N          -1.7103  -14.3609  -44.6504 N.am      7 UNK        -0.5000 
     40 C          -2.0209  -15.1697  -43.6277 C.2       6 UNK         0.5000 
     41 O          -3.1450  -15.6364  -43.4434 O.2       6 UNK        -0.5000 
     42 CA         -0.8580  -15.5493  -42.6895 C.3       6 UNK         0.1400 
     43 CB         -1.2553  -16.6071  -41.6384 C.3       6 UNK        -0.1800 
     44 N           0.3374  -15.9866  -43.4156 N.am      6 UNK        -0.5000 
     45 C           0.4309  -17.0099  -44.2806 C.2       5 UNK         0.5000 
     46 O          -0.5256  -17.6947  -44.6484 O.2       5 UNK        -0.5000 
     47 CA          1.8354  -17.3414  -44.8224 C.3       5 UNK         0.1400 
     48 CB          2.0476  -16.6473  -46.1718 C.3       5 UNK        -0.1800 
     49 N           2.9246  -16.9702  -43.9159 N.am      5 UNK        -0.5000 
     50 C           3.0949  -17.4487  -42.6738 C.2       4 UNK         0.5000 
     51 O           2.4310  -18.3709  -42.2019 O.2       4 UNK        -0.5000 
     52 CA          4.1612  -16.7721  -41.7879 C.3       4 UNK         0.1400 
     53 CB          5.3915  -17.6804  -41.6382 C.3       4 UNK        -0.1800 
     54 N           4.6047  -15.4567  -42.2556 N.am      4 UNK        -0.5000 
     55 C           3.8438  -14.3668  -42.4294 C.2       3 UNK         0.5000 
     56 O           2.6302  -14.3335  -42.2187 O.2       3 UNK        -0.5000 
     57 CA          4.5562  -13.1103  -42.9690 C.3       3 UNK         0.1400 
     58 CB          6.0496  -13.0361  -42.5814 C.3       3 UNK        -0.1800 
     59 N           4.4036  -12.9530  -44.4192 N.am      3 UNK        -0.5000 
     60 C           4.7054  -13.8342  -45.3868 C.2       2 UNK         0.5000 
     61 O           5.1188  -14.9764  -45.1816 O.2       2 UNK        -0.5000 
     62 CA          4.4619  -13.3436  -46.8223 C.3       2 UNK         0.1400 
     63 CB          4.6739  -14.4219  -47.9019 C.3       2 UNK        -0.1800 
     64 N           3.1114  -12.8035  -46.8990 N.am      2 UNK        -0.5000 
     65 C           2.6865  -11.8362  -47.7124 C.2       1 UNK         0.5000 
     66 O           3.3971  -11.3014  -48.5649 O.2       1 UNK        -0.5000 
     67 C          -1.5107  -22.6834  -47.7980 C.2       11 UNK         0.5000 
     68 O          -1.2485  -23.7153  -48.4145 O.2       11 UNK        -0.5000 
     69 N          -2.7613  -22.2978  -47.5157 N.am      12 UNK        -0.5000 
     70 CA         -3.9508  -23.1049  -47.7749 C.3       12 UNK         0.1400 
     71 CB         -5.2075  -22.2364  -47.6375 C.3       12 UNK        -0.1800 
     72 C          -4.0191  -24.3442  -46.8683 C.2       12 UNK         0.5000 
     73 O          -4.2713  -25.4398  -47.3681 O.2       12 UNK        -0.5000 
     74 N          -3.7354  -24.1671  -45.5690 N.am      13 UNK        -0.5000 
     75 CA         -3.6726  -25.2473  -44.5781 C.3       13 UNK         0.1400 
     76 CB         -3.4878  -24.6497  -43.1755 C.3       13 UNK        -0.1800 
     77 C          -2.5728  -26.2856  -44.8800 C.2       13 UNK         0.5000 
     78 O          -2.7990  -27.4828  -44.7019 O.2       13 UNK        -0.5000 
     79 N          -1.4200  -25.8113  -45.3705 N.am      14 UNK        -0.5000 
     80 CA         -0.2986  -26.6295  -45.8379 C.3       14 UNK         0.1400 
     81 CB          0.9605  -25.7487  -45.8886 C.3       14 UNK        -0.1800 
     82 C          -0.5382  -27.2849  -47.2145 C.2       14 UNK         0.5000 
     83 O           0.2551  -28.1383  -47.6133 O.2       14 UNK        -0.5000 
     84 N          -1.5960  -26.8600  -47.9230 N.am      15 UNK        -0.5000 
     85 CA         -1.9662  -27.2328  -49.2925 C.3       15 UNK         0.1400 
     86 CB         -2.3531  -28.7229  -49.3816 C.3       15 UNK        -0.1800 
     87 C          -0.9121  -26.8115  -50.3403 C.2       15 UNK         0.5000 
     88 O          -0.7456  -27.4813  -51.3607 O.2       15 UNK        -0.5000 
     89 N          -0.2293  -25.6937  -50.0692 N.am      16 UNK        -0.5000 
     90 CA          0.7561  -25.0673  -50.9447 C.3       16 UNK         0.1400 
     91 CB          1.8291  -24.3884  -50.0781 C.3       16 UNK        -0.1800 
     92 C           0.1011  -24.0428  -51.8866 C.2       16 UNK         0.5000 
     93 O           0.5561  -23.8951  -53.0208 O.2       16 UNK        -0.5000 
     94 N          -0.9440  -23.3520  -51.4029 N.am      17 UNK        -0.5000 
     95 CA         -1.7059  -22.3590  -52.1646 C.3       17 UNK         0.1400 
     96 CB         -2.5874  -21.5038  -51.2380 C.3       17 UNK        -0.1800 
     97 C          -2.4858  -22.9499  -53.3634 C.2       17 UNK         0.5000 
     98 O          -2.2661  -22.4882  -54.4806 O.2       17 UNK        -0.5000 
     99 N          -3.3576  -23.9604  -53.2108 N.am      18 UNK        -0.5000 
    100 CA        -3.9214  -24.5418  -51.9870 C.3       18 UNK         0.1400 
    101 CB        -4.0873  -26.0528  -52.2122 C.3       18 UNK        -0.1800 
    102 C         -5.2864  -23.9211  -51.6209 C.2       18 UNK         0.5000 
    103 O         -5.7801  -24.1608  -50.5214 O.2       18 UNK        -0.5000 
    104 N         -5.8722  -23.1336  -52.5330 N.am      19 UNK        -0.5000 
    105 CA        -7.2122  -22.5469  -52.4151 C.3       19 UNK         0.1400 
    106 CB        -7.8344  -22.4954  -53.8219 C.3       19 UNK        -0.1800 
    107 C         -7.2197  -21.1499  -51.7577 C.2       19 UNK         0.5000 
    108 O         -8.2271  -20.4470  -51.8497 O.2       19 UNK        -0.5000 
    109 N         -6.0907  -20.7459  -51.1572 N.am      20 UNK        -0.5000 
    110 CA        -5.7660  -19.4347  -50.5724 C.3       20 UNK         0.1400 
    111 CB        -6.7480  -19.0315  -49.4554 C.3       20 UNK        -0.1800 
    112 C         -5.6261  -18.3164  -51.6232 C.2       20 UNK         0.5000 
    113 O         -4.6282  -17.6007  -51.6149 O.2       20 UNK        -0.5000 
    114 N         -6.5906  -18.2052  -52.5411 N.am      21 UNK        -0.5000 
    115 CA        -6.5842  -17.2843  -53.6759 C.3       21 UNK         0.1400 
    116 CB        -8.0415  -17.0022  -54.0835 C.3       21 UNK        -0.1800 
    117 C         -5.7396  -17.8532  -54.8352 C.2       21 UNK         0.5000 
    118 O         -6.2860  -18.2089  -55.8811 O.2       21 UNK        -0.5000 
    119 N         -4.4231  -17.9678  -54.6148 N.am      22 UNK        -0.5000 
    120 CA        -3.4605  -18.5258  -55.5821 C.3       22 UNK         0.1400 
    121 C         -3.0834  -17.5921  -56.7720 C.2       22 UNK         0.5000 
    122 N         -3.4732  -16.3229  -56.7733 N.am      22 UNK        -0.7600 
    123 O         -2.4404  -18.0336  -57.7205 O.2       22 UNK        -0.5000 
    124 C124       -2.2230  -19.1451  -54.8798 C.3       23 UNK        -0.0398 
    125 S125       -1.0037  -17.9634  -54.1984 S.3       23 UNK        -0.2404 
    126 C126       -1.5765  -17.7831  -52.4852 C.3       23 UNK        -0.0205 
    127 H127        0.3014  -10.4297  -43.7267 H         1 UNK         0.0600 
    128 H128        0.9149  -11.9124  -42.9903 H         1 UNK         0.0600 
    129 H129       -0.7622  -11.8276  -43.5388 H         1 UNK         0.0600 
    130 H130        0.6592  -10.1908  -45.8777 H         1 UNK         0.3000 
    131 H131        1.2441  -10.3247  -47.8947 H         1 UNK         0.0600 
    132 H132       -0.8060  -11.7503  -48.1527 H         1 UNK         0.0800 
    133 H133        0.3370  -11.7796  -49.4458 H         1 UNK         0.0800 
    134 H134        2.1371  -14.1664  -49.7534 H         1 UNK         0.0800 
    135 H135        0.7488  -13.6871  -50.7015 H         1 UNK         0.0800 
    136 H136       -0.7906  -15.3206  -51.6218 H         1 UNK         0.1150 
    137 H137        0.1382  -19.4866  -51.2398 H         1 UNK         0.1150 
    138 H138        2.3829  -16.5761  -49.0322 H         1 UNK         0.1150 
    139 H139        3.2046  -18.9110  -49.2925 H         1 UNK         0.0800 
    140 H140        2.2551  -20.1173  -50.1192 H         1 UNK         0.0800 
    141 H141        0.2331  -21.2093  -49.3058 H         1 UNK         0.0800 
    142 H142       -0.7941  -20.0306  -48.5203 H         1 UNK         0.0800 
    143 H143        0.5040  -22.4483  -47.1587 H         1 UNK         0.0600 
    144 H144       -0.8246  -20.2083  -45.9621 H         1 UNK         0.3000 
    145 H145       -1.7180  -21.8088  -42.9193 H         1 UNK         0.0600 
    146 H146        0.6308  -21.3086  -42.4889 H         1 UNK         0.0600 
    147 H147       -0.3168  -19.9001  -42.0326 H         1 UNK         0.0600 
    148 H148        0.5924  -19.9076  -43.5427 H         1 UNK         0.0600 
    149 H149       -1.8075  -19.1137  -44.0288 H         1 UNK         0.3000 
    150 H150       -5.1192  -19.4749  -45.3488 H         1 UNK         0.0600 
    151 H151       -4.1210  -18.0313  -42.8387 H         1 UNK         0.0600 
    152 H152       -5.5467  -19.0516  -42.9605 H         1 UNK         0.0600 
    153 H153       -5.4929  -17.5201  -43.8222 H         1 UNK         0.0600 
    154 H154       -3.3460  -17.2399  -45.1467 H         1 UNK         0.3000 
    155 H155       -1.2683  -17.7069  -47.6346 H         1 UNK         0.0600 
    156 H156       -3.9048  -16.9061  -48.9581 H         1 UNK         0.0600 
    157 H157       -2.6836  -18.0084  -49.5713 H         1 UNK         0.0600 
    158 H158       -2.3357  -16.2889  -49.4615 H         1 UNK         0.0600 
    159 H159       -1.2463  -15.8967  -46.4209 H         1 UNK         0.3000 
    160 H160       -2.0030  -13.3131  -46.3991 H         1 UNK         0.0600 
    161 H161       -4.4418  -13.6080  -44.5720 H         1 UNK         0.0600 
    162 H162       -4.3251  -12.6192  -46.0193 H         1 UNK         0.0600 
    163 H163       -3.3600  -12.2158  -44.6087 H         1 UNK         0.0600 
    164 H164       -0.7389  -14.0746  -44.7530 H         1 UNK         0.3000 
    165 H165       -0.5795  -14.6384  -42.1576 H         1 UNK         0.0600 
    166 H166       -2.0731  -16.2487  -41.0123 H         1 UNK         0.0600 
    167 H167       -1.5827  -17.5379  -42.1026 H         1 UNK         0.0600 
    168 H168       -0.4187  -16.8398  -40.9794 H         1 UNK         0.0600 
    169 H169        1.1842  -15.4718  -43.1959 H         1 UNK         0.3000 
    170 H170        1.8814  -18.4204  -44.9799 H         1 UNK         0.0600 
    171 H171        2.9653  -16.9962  -46.6442 H         1 UNK         0.0600 
    172 H172        2.1066  -15.5643  -46.0657 H         1 UNK         0.0600 
    173 H173        1.2260  -16.8626  -46.8559 H         1 UNK         0.0600 
    174 H174        3.5512  -16.2398  -44.2320 H         1 UNK         0.3000 
    175 H175        3.7145  -16.6338  -40.8014 H         1 UNK         0.0600 
    176 H176        5.1099  -18.6631  -41.2573 H         1 UNK         0.0600 
    177 H177        5.8967  -17.8307  -42.5931 H         1 UNK         0.0600 
    178 H178        6.1125  -17.2577  -40.9382 H         1 UNK         0.0600 
    179 H179        5.5767  -15.3891  -42.5206 H         1 UNK         0.3000 
    180 H180        4.0558  -12.2570  -42.5087 H         1 UNK         0.0600 
    181 H181        6.6485  -13.7966  -43.0836 H         1 UNK         0.0600 
    182 H182        6.1840  -13.1620  -41.5062 H         1 UNK         0.0600 
    183 H183        6.4691  -12.0651  -42.8446 H         1 UNK         0.0600 
    184 H184        4.0316  -12.0611  -44.7129 H         1 UNK         0.3000 
    185 H185        5.1800  -12.5401  -46.9982 H         1 UNK         0.0600 
    186 H186        5.6706  -14.8589  -47.8315 H         1 UNK         0.0600 
    187 H187        3.9509  -15.2297  -47.8099 H         1 UNK         0.0600 
    188 H188        4.5761  -14.0013  -48.9025 H         1 UNK         0.0600 
    189 H189        2.4342  -13.1790  -46.2366 H         1 UNK         0.3000 
    190 H190       -2.9142  -21.3813  -47.1046 H         1 UNK         0.3000 
    191 H191       -3.8967  -23.4601  -48.8038 H         1 UNK         0.0600 
    192 H192       -5.1621  -21.3872  -48.3170 H         1 UNK         0.0600 
    193 H193       -6.1046  -22.8053  -47.8846 H         1 UNK         0.0600 
    194 H194       -5.3272  -21.8489  -46.6259 H         1 UNK         0.0600 
    195 H195       -3.5787  -23.2250  -45.2257 H         1 UNK         0.3000 
    196 H196       -4.6319  -25.7683  -44.5996 H         1 UNK         0.0600 
    197 H197       -3.4950  -25.4313  -42.4149 H         1 UNK         0.0600 
    198 H198       -4.2904  -23.9527  -42.9338 H         1 UNK         0.0600 
    199 H199       -2.5421  -24.1156  -43.0866 H         1 UNK         0.0600 
    200 H200       -1.2825  -24.8045  -45.3956 H         1 UNK         0.3000 
    201 H201       -0.1285  -27.4314  -45.1167 H         1 UNK         0.0600 
    202 H202        1.8343  -26.3265  -46.1922 H         1 UNK         0.0600 
    203 H203        1.1808  -25.3181  -44.9116 H         1 UNK         0.0600 
    204 H204        0.8465  -24.9284  -46.5985 H         1 UNK         0.0600 
    205 H205       -2.1976  -26.1680  -47.4940 H         1 UNK         0.3000 
    206 H206       -2.8596  -26.6510  -49.5195 H         1 UNK         0.0600 
    207 H207       -3.1026  -28.9798  -48.6330 H         1 UNK         0.0600 
    208 H208       -2.7780  -28.9576  -50.3582 H         1 UNK         0.0600 
    209 H209       -1.4928  -29.3761  -49.2346 H         1 UNK         0.0600 
    210 H210       -0.4805  -25.1718  -49.2335 H         1 UNK         0.3000 
    211 H211        1.2429  -25.8302  -51.5560 H         1 UNK         0.0600 
    212 H212        2.3246  -25.1111  -49.4295 H         1 UNK         0.0600 
    213 H213        2.5981  -23.9271  -50.6990 H         1 UNK         0.0600 
    214 H214        1.4062  -23.6077  -49.4451 H         1 UNK         0.0600 
    215 H215       -1.2306  -23.5312  -50.4485 H         1 UNK         0.3000 
    216 H216       -0.9730  -21.6730  -52.5963 H         1 UNK         0.0600 
    217 H217       -3.2213  -22.1042  -50.5906 H         1 UNK         0.0600 
    218 H218       -3.2324  -20.8424  -51.8168 H         1 UNK         0.0600 
    219 H219       -1.9777  -20.8693  -50.5959 H         1 UNK         0.0600 
    220 H220       -3.7497  -24.3401  -54.0600 H         1 UNK         0.3000 
    221 H221       -3.2580  -24.4052  -51.1355 H         1 UNK         0.0600 
    222 H222       -4.7758  -26.2650  -53.0311 H         1 UNK         0.0600 
    223 H223       -3.1341  -26.5237  -52.4515 H         1 UNK         0.0600 
    224 H224       -4.4807  -26.5447  -51.3217 H         1 UNK         0.0600 
    225 H225       -5.3896  -22.9673  -53.4042 H         1 UNK         0.3000 
    226 H226       -7.8372  -23.1933  -51.7955 H         1 UNK         0.0600 
    227 H227       -7.8467  -23.4827  -54.2841 H         1 UNK         0.0600 
    228 H228       -8.8676  -22.1473  -53.7858 H         1 UNK         0.0600 
    229 H229       -7.2840  -21.8225  -54.4809 H         1 UNK         0.0600 
    230 H230       -5.3354  -21.4128  -51.1541 H         1 UNK         0.3000 
    231 H231       -4.7853  -19.5539  -50.1083 H         1 UNK         0.0600 
    232 H232       -7.7392  -18.7969  -49.8439 H         1 UNK         0.0600 
    233 H233       -6.3884  -18.1456  -48.9304 H         1 UNK         0.0600 
    234 H234       -6.8603  -19.8227  -48.7152 H         1 UNK         0.0600 
    235 H235       -7.3635  -18.8624  -52.4848 H         1 UNK         0.3000 
    236 H236       -6.1343  -16.3368  -53.3719 H         1 UNK         0.0600 
    237 H237       -8.5633  -17.9148  -54.3749 H         1 UNK         0.0600 
    238 H238       -8.5975  -16.5477  -53.2633 H         1 UNK         0.0600 
    239 H239       -8.0858  -16.3120  -54.9269 H         1 UNK         0.0600 
    240 H240       -4.0571  -17.6715  -53.7187 H         1 UNK         0.3000 
    241 H241       -3.9686  -19.3679  -56.0568 H         1 UNK         0.0600 
    242 H242       -3.2299  -15.7296  -57.5510 H         1 UNK         0.3800 
    243 H243       -3.9992  -15.9473  -56.0013 H         1 UNK         0.3800 
    244 H244       -2.5503  -19.8226  -54.0921 H         1 UNK         0.0800 
    245 H245       -1.6890  -19.7794  -55.5894 H         1 UNK         0.0800 
    246 H246       -2.0658  -18.6938  -52.1411 H         1 UNK         0.0800 
    247 H247       -2.3274  -16.9940  -52.4556 H         1 UNK         0.0800 
@<TRIPOS>BOND
     1    1    2 1    
     2    1  127 1    
     3    1  128 1    
     4    1  129 1    
     5    2    3 2    
     6    2    4 am   BACKBONE|DICT|INTERRES
     7    4    5 1    
     8    4  130 1    
     9    5    6 1    
    10    5   65 1    
    11    5  131 1    
    12    6    7 1    
    13    6  132 1    
    14    6  133 1    
    15    7    8 1    
    16    8    9 1    
    17    8  134 1    
    18    8  135 1    
    19    9   10 ar   
    20    9   14 ar   
    21   10   11 ar   
    22   10  136 1    
    23   11   12 ar   
    24   11  126 1    
    25   12   13 ar   
    26   12  137 1    
    27   13   14 ar   
    28   13   15 1    
    29   14  138 1    
    30   15   16 1    
    31   15  139 1    
    32   15  140 1    
    33   16   17 1    
    34   17   18 1    
    35   17  141 1    
    36   17  142 1    
    37   18   19 1    
    38   18   67 1    
    39   18  143 1    
    40   19   20 am   BACKBONE|DICT|INTERRES
    41   19  144 1    
    42   20   21 2    
    43   20   22 1    
    44   22   23 1    
    45   22   24 1    
    46   22  145 1    
    47   23  146 1    
    48   23  147 1    
    49   23  148 1    
    50   24   25 am   BACKBONE|DICT|INTERRES
    51   24  149 1    
    52   25   26 2    
    53   25   27 1    
    54   27   28 1    
    55   27   29 1    
    56   27  150 1    
    57   28  151 1    
    58   28  152 1    
    59   28  153 1    
    60   29   30 am   BACKBONE|DICT|INTERRES
    61   29  154 1    
    62   30   31 2    
    63   30   32 1    
    64   32   33 1    
    65   32   34 1    
    66   32  155 1    
    67   33  156 1    
    68   33  157 1    
    69   33  158 1    
    70   34   35 am   BACKBONE|DICT|INTERRES
    71   34  159 1    
    72   35   36 2    
    73   35   37 1    
    74   37   38 1    
    75   37   39 1    
    76   37  160 1    
    77   38  161 1    
    78   38  162 1    
    79   38  163 1    
    80   39   40 am   BACKBONE|DICT|INTERRES
    81   39  164 1    
    82   40   41 2    
    83   40   42 1    
    84   42   43 1    
    85   42   44 1    
    86   42  165 1    
    87   43  166 1    
    88   43  167 1    
    89   43  168 1    
    90   44   45 am   BACKBONE|DICT|INTERRES
    91   44  169 1    
    92   45   46 2    
    93   45   47 1    
    94   47   48 1    
    95   47   49 1    
    96   47  170 1    
    97   48  171 1    
    98   48  172 1    
    99   48  173 1    
   100   49   50 am   BACKBONE|DICT|INTERRES
   101   49  174 1    
   102   50   51 2    
   103   50   52 1    
   104   52   53 1    
   105   52   54 1    
   106   52  175 1    
   107   53  176 1    
   108   53  177 1    
   109   53  178 1    
   110   54   55 am   BACKBONE|DICT|INTERRES
   111   54  179 1    
   112   55   56 2    
   113   55   57 1    
   114   57   58 1    
   115   57   59 1    
   116   57  180 1    
   117   58  181 1    
   118   58  182 1    
   119   58  183 1    
   120   59   60 am   BACKBONE|DICT|INTERRES
   121   59  184 1    
   122   60   61 2    
   123   60   62 1    
   124   62   63 1    
   125   62   64 1    
   126   62  185 1    
   127   63  186 1    
   128   63  187 1    
   129   63  188 1    
   130   64   65 am   BACKBONE|DICT|INTERRES
   131   64  189 1    
   132   65   66 2    
   133   67   68 2    
   134   67   69 am   BACKBONE|DICT|INTERRES
   135   69   70 1    
   136   69  190 1    
   137   70   71 1    
   138   70   72 1    
   139   70  191 1    
   140   71  192 1    
   141   71  193 1    
   142   71  194 1    
   143   72   73 2    
   144   72   74 am   BACKBONE|DICT|INTERRES
   145   74   75 1    
   146   74  195 1    
   147   75   76 1    
   148   75   77 1    
   149   75  196 1    
   150   76  197 1    
   151   76  198 1    
   152   76  199 1    
   153   77   78 2    
   154   77   79 am   BACKBONE|DICT|INTERRES
   155   79   80 1    
   156   79  200 1    
   157   80   81 1    
   158   80   82 1    
   159   80  201 1    
   160   81  202 1    
   161   81  203 1    
   162   81  204 1    
   163   82   83 2    
   164   82   84 am   BACKBONE|DICT|INTERRES
   165   84   85 1    
   166   84  205 1    
   167   85   86 1    
   168   85   87 1    
   169   85  206 1    
   170   86  207 1    
   171   86  208 1    
   172   86  209 1    
   173   87   88 2    
   174   87   89 am   BACKBONE|DICT|INTERRES
   175   89   90 1    
   176   89  210 1    
   177   90   91 1    
   178   90   92 1    
   179   90  211 1    
   180   91  212 1    
   181   91  213 1    
   182   91  214 1    
   183   92   93 2    
   184   92   94 am   BACKBONE|DICT|INTERRES
   185   94   95 1    
   186   94  215 1    
   187   95   96 1    
   188   95   97 1    
   189   95  216 1    
   190   96  217 1    
   191   96  218 1    
   192   96  219 1    
   193   97   98 2    
   194   97   99 am   BACKBONE|DICT|INTERRES
   195   99  100 1    
   196   99  220 1    
   197  100  101 1    
   198  100  102 1    
   199  100  221 1    
   200  101  222 1    
   201  101  223 1    
   202  101  224 1    
   203  102  103 2    
   204  102  104 am   BACKBONE|DICT|INTERRES
   205  104  105 1    
   206  104  225 1    
   207  105  106 1    
   208  105  107 1    
   209  105  226 1    
   210  106  227 1    
   211  106  228 1    
   212  106  229 1    
   213  107  108 2    
   214  107  109 am   BACKBONE|DICT|INTERRES
   215  109  110 1    
   216  109  230 1    
   217  110  111 1    
   218  110  112 1    
   219  110  231 1    
   220  111  232 1    
   221  111  233 1    
   222  111  234 1    
   223  112  113 2    
   224  112  114 am   BACKBONE|DICT|INTERRES
   225  114  115 1    
   226  114  235 1    
   227  115  116 1    
   228  115  117 1    
   229  115  236 1    
   230  116  237 1    
   231  116  238 1    
   232  116  239 1    
   233  117  118 2    
   234  117  119 am   BACKBONE|DICT|INTERRES
   235  119  120 1    
   236  119  240 1    
   237  120  121 1    
   238  120  124 1    
   239  120  241 1    
   240  121  122 am   BACKBONE|DICT|INTERRES
   241  121  123 2    
   242  122  242 1    
   243  122  243 1    
   244  124  125 1    
   245  124  244 1    
   246  124  245 1    
   247  125  126 1    
   248  126  246 1    
   249  126  247 1    
@<TRIPOS>SUBSTRUCTURE
     1 UNK         1 GROUP             0       ****    0 ROOT    
