@<TRIPOS>MOLECULE
3R540
247   249    1
SMALL
USER_CHARGES


@<TRIPOS>ATOM
      1 CA         -4.5474  -18.1867  -45.9212 C.3       0 UNK        -0.1800 
      2 C          -4.4870  -17.4117  -47.2293 C.2       0 UNK         0.5000 
      3 O          -5.5009  -16.8656  -47.6651 O.2       0 UNK        -0.5000 
      4 N          -3.3033  -17.3565  -47.8515 N.am      1 UNK        -0.5000 
      5 CA         -3.0085  -16.5147  -49.0148 C.3       1 UNK         0.1400 
      6 C6         -1.7549  -17.0210  -49.7748 C.3       23 UNK        -0.0398 
      7 S7         -0.2027  -16.9022  -48.8229 S.3       23 UNK        -0.2404 
      8 C8          1.0399  -16.9485  -50.1453 C.3       23 UNK        -0.0205 
      9 C9          1.1897  -18.3470  -50.7202 C.ar      23 UNK        -0.0193 
     10 C10         0.6378  -18.6654  -51.9643 C.ar      23 UNK        -0.1150 
     11 C11         0.8111  -19.9383  -52.5203 C.ar      23 UNK        -0.0193 
     12 C12         1.5299  -20.8965  -51.7984 C.ar      23 UNK        -0.1150 
     13 C13         2.0641  -20.5994  -50.5415 C.ar      23 UNK        -0.0193 
     14 C14         1.8962  -19.3201  -50.0091 C.ar      23 UNK        -0.1150 
     15 C15         2.8312  -21.6619  -49.7722 C.3       23 UNK        -0.0205 
     16 S16         1.7154  -22.9100  -49.0630 S.3       23 UNK        -0.2404 
     17 C17         1.1177  -22.0951  -47.5467 C.3       23 UNK        -0.0398 
     18 CA          0.5909  -23.1336  -46.5218 C.3       11 UNK         0.1400 
     19 N           0.8696  -22.7494  -45.1352 N.am      11 UNK        -0.5000 
     20 C           0.7745  -23.5900  -44.0946 C.2       10 UNK         0.5000 
     21 O           0.4729  -24.7782  -44.2072 O.2       10 UNK        -0.5000 
     22 CA          1.0067  -22.9989  -42.6925 C.3       10 UNK         0.1400 
     23 CB          2.5078  -22.8652  -42.3974 C.3       10 UNK        -0.1800 
     24 N           0.3471  -21.7051  -42.5106 N.am      10 UNK        -0.5000 
     25 C          -0.9805  -21.5205  -42.5423 C.2       9 UNK         0.5000 
     26 O          -1.7910  -22.4358  -42.6805 O.2       9 UNK        -0.5000 
     27 CA         -1.4879  -20.0687  -42.4613 C.3       9 UNK         0.1400 
     28 CB         -1.5122  -19.5707  -41.0089 C.3       9 UNK        -0.1800 
     29 N          -0.6978  -19.1511  -43.2812 N.am      9 UNK        -0.5000 
     30 C          -0.5869  -19.2231  -44.6153 C.2       8 UNK         0.5000 
     31 O          -1.1759  -20.0452  -45.3156 O.2       8 UNK        -0.5000 
     32 CA          0.3925  -18.2381  -45.2682 C.3       8 UNK         0.1400 
     33 CB         -0.2471  -16.8454  -45.3879 C.3       8 UNK        -0.1800 
     34 N           1.6475  -18.1569  -44.5177 N.am      8 UNK        -0.5000 
     35 C           2.5312  -19.1617  -44.4141 C.2       7 UNK         0.5000 
     36 O           2.3979  -20.2462  -44.9789 O.2       7 UNK        -0.5000 
     37 CA          3.7452  -18.9367  -43.4930 C.3       7 UNK         0.1400 
     38 CB          4.8688  -18.2140  -44.2506 C.3       7 UNK        -0.1800 
     39 N           3.4091  -18.1783  -42.2880 N.am      7 UNK        -0.5000 
     40 C           2.5948  -18.6105  -41.3134 C.2       6 UNK         0.5000 
     41 O           2.0940  -19.7336  -41.2912 O.2       6 UNK        -0.5000 
     42 CA          2.2265  -17.5883  -40.2176 C.3       6 UNK         0.1400 
     43 CB          3.2394  -17.6420  -39.0648 C.3       6 UNK        -0.1800 
     44 N           2.1411  -16.2158  -40.7305 N.am      6 UNK        -0.5000 
     45 C           1.2875  -15.8250  -41.6866 C.2       5 UNK         0.5000 
     46 O           0.4216  -16.5678  -42.1551 O.2       5 UNK        -0.5000 
     47 CA          1.5073  -14.4132  -42.2641 C.3       5 UNK         0.1400 
     48 CB          2.8985  -14.3014  -42.9144 C.3       5 UNK        -0.1800 
     49 N           0.5162  -14.0796  -43.2846 N.am      5 UNK        -0.5000 
     50 C          -0.7160  -13.6131  -43.0561 C.2       4 UNK         0.5000 
     51 O          -1.1595  -13.4079  -41.9245 O.2       4 UNK        -0.5000 
     52 CA         -1.6067  -13.3312  -44.2916 C.3       4 UNK         0.1400 
     53 CB         -2.4515  -12.0533  -44.1136 C.3       4 UNK        -0.1800 
     54 N          -0.9149  -13.2951  -45.5906 N.am      4 UNK        -0.5000 
     55 C           0.0823  -12.4788  -45.9746 C.2       3 UNK         0.5000 
     56 O           0.6398  -11.6725  -45.2302 O.2       3 UNK        -0.5000 
     57 CA          0.5315  -12.5713  -47.4480 C.3       3 UNK         0.1400 
     58 CB          1.6593  -13.6024  -47.6095 C.3       3 UNK        -0.1800 
     59 N          -0.5613  -12.9047  -48.3632 N.am      3 UNK        -0.5000 
     60 C          -1.6156  -12.1123  -48.6059 C.2       2 UNK         0.5000 
     61 O          -1.7234  -10.9704  -48.1567 O.2       2 UNK        -0.5000 
     62 CA         -2.7503  -12.6767  -49.4881 C.3       2 UNK         0.1400 
     63 CB         -2.6817  -12.0538  -50.8918 C.3       2 UNK        -0.1800 
     64 N          -2.8017  -14.1401  -49.6189 N.am      2 UNK        -0.5000 
     65 C          -2.8989  -15.0217  -48.6124 C.2       1 UNK         0.5000 
     66 O          -2.8636  -14.6965  -47.4214 O.2       1 UNK        -0.5000 
     67 C          -0.9010  -23.4718  -46.7400 C.2       11 UNK         0.5000 
     68 O          -1.2137  -24.3876  -47.5010 O.2       11 UNK        -0.5000 
     69 N          -1.8019  -22.7628  -46.0453 N.am      12 UNK        -0.5000 
     70 CA         -3.2402  -23.0297  -46.0444 C.3       12 UNK         0.1400 
     71 CB         -3.9929  -21.8335  -45.4520 C.3       12 UNK        -0.1800 
     72 C          -3.5996  -24.3341  -45.3159 C.2       12 UNK         0.5000 
     73 O          -4.4469  -25.0782  -45.8075 O.2       12 UNK        -0.5000 
     74 N          -2.9142  -24.6275  -44.2019 N.am      13 UNK        -0.5000 
     75 CA         -3.0164  -25.8975  -43.4759 C.3       13 UNK         0.1400 
     76 CB         -2.2562  -25.7951  -42.1452 C.3       13 UNK        -0.1800 
     77 C          -2.5184  -27.0979  -44.3067 C.2       13 UNK         0.5000 
     78 O          -3.0892  -28.1845  -44.2107 O.2       13 UNK        -0.5000 
     79 N          -1.4995  -26.8640  -45.1452 N.am      14 UNK        -0.5000 
     80 CA         -0.9928  -27.8063  -46.1459 C.3       14 UNK         0.1400 
     81 CB          0.4413  -27.3989  -46.5223 C.3       14 UNK        -0.1800 
     82 C          -1.8788  -27.9029  -47.4091 C.2       14 UNK         0.5000 
     83 O          -1.6168  -28.7589  -48.2548 O.2       14 UNK        -0.5000 
     84 N          -2.8918  -27.0286  -47.5236 N.am      15 UNK        -0.5000 
     85 CA         -3.8348  -26.8741  -48.6376 C.3       15 UNK         0.1400 
     86 CB         -4.7231  -28.1271  -48.7841 C.3       15 UNK        -0.1800 
     87 C          -3.1591  -26.4507  -49.9601 C.2       15 UNK         0.5000 
     88 O          -3.6372  -26.8093  -51.0379 O.2       15 UNK        -0.5000 
     89 N          -2.0624  -25.6909  -49.8537 N.am      16 UNK        -0.5000 
     90 CA         -1.2214  -25.2572  -50.9689 C.3       16 UNK         0.1400 
     91 CB          0.2095  -25.7565  -50.7120 C.3       16 UNK        -0.1800 
     92 C          -1.2583  -23.7325  -51.1943 C.2       16 UNK         0.5000 
     93 O          -0.7439  -23.2767  -52.2153 O.2       16 UNK        -0.5000 
     94 N          -1.8804  -22.9729  -50.2758 N.am      17 UNK        -0.5000 
     95 CA         -2.0229  -21.5095  -50.3388 C.3       17 UNK         0.1400 
     96 CB         -2.6487  -20.9959  -49.0328 C.3       17 UNK        -0.1800 
     97 C          -2.8463  -20.9981  -51.5374 C.2       17 UNK         0.5000 
     98 O          -2.6659  -19.8515  -51.9453 O.2       17 UNK        -0.5000 
     99 N          -3.7266  -21.8567  -52.0708 N.am      18 UNK        -0.5000 
    100 CA        -4.5932  -21.6626  -53.2344 C.3       18 UNK         0.1400 
    101 CB        -3.7672  -21.4655  -54.5227 C.3       18 UNK        -0.1800 
    102 C         -5.6473  -20.5572  -53.0388 C.2       18 UNK         0.5000 
    103 O         -6.8178  -20.8760  -52.8247 O.2       18 UNK        -0.5000 
    104 N         -5.2276  -19.2912  -53.1317 N.am      19 UNK        -0.5000 
    105 CA        -6.0729  -18.1032  -53.1120 C.3       19 UNK         0.1400 
    106 CB        -6.9202  -18.0390  -54.4026 C.3       19 UNK        -0.1800 
    107 C         -5.1977  -16.8469  -52.9900 C.2       19 UNK         0.5000 
    108 O         -3.9683  -16.9192  -53.0943 O.2       19 UNK        -0.5000 
    109 N         -5.8588  -15.6906  -52.8503 N.am      20 UNK        -0.5000 
    110 CA        -5.2476  -14.3580  -52.8712 C.3       20 UNK         0.1400 
    111 CB        -6.3096  -13.3147  -52.4925 C.3       20 UNK        -0.1800 
    112 C         -4.5773  -13.9931  -54.2142 C.2       20 UNK         0.5000 
    113 O         -3.7264  -13.1047  -54.2397 O.2       20 UNK        -0.5000 
    114 N         -4.9463  -14.6999  -55.2933 N.am      21 UNK        -0.5000 
    115 CA        -4.2924  -14.6392  -56.6017 C.3       21 UNK         0.1400 
    116 CB        -5.1517  -15.3939  -57.6277 C.3       21 UNK        -0.1800 
    117 C         -2.8563  -15.2028  -56.5780 C.2       21 UNK         0.5000 
    118 O         -2.0005  -14.7001  -57.3073 O.2       21 UNK        -0.5000 
    119 N         -2.6166  -16.2157  -55.7330 N.am      22 UNK        -0.5000 
    120 CA        -1.2757  -16.7122  -55.3944 C.3       22 UNK         0.1400 
    121 C         -0.6290  -15.8361  -54.2886 C.2       22 UNK         0.5000 
    122 N         -1.3531  -15.5306  -53.2182 N.am      22 UNK        -0.7600 
    123 O          0.5172  -15.4139  -54.4096 O.2       22 UNK        -0.5000 
    124 C124       -1.3126  -18.2108  -54.9986 C.3       23 UNK        -0.0398 
    125 S125        0.3134  -19.0298  -55.1554 S.3       23 UNK        -0.2404 
    126 C126        0.2082  -20.3244  -53.8713 C.3       23 UNK        -0.0205 
    127 H127       -4.8795  -17.5326  -45.1151 H         1 UNK         0.0600 
    128 H128       -5.2556  -19.0107  -46.0047 H         1 UNK         0.0600 
    129 H129       -3.5738  -18.5916  -45.6450 H         1 UNK         0.0600 
    130 H130       -2.5029  -17.8108  -47.4380 H         1 UNK         0.3000 
    131 H131       -3.8541  -16.5943  -49.7018 H         1 UNK         0.0600 
    132 H132       -1.6391  -16.4759  -50.7096 H         1 UNK         0.0800 
    133 H133       -1.8923  -18.0605  -50.0711 H         1 UNK         0.0800 
    134 H134        1.9978  -16.6241  -49.7363 H         1 UNK         0.0800 
    135 H135        0.7845  -16.2295  -50.9252 H         1 UNK         0.0800 
    136 H136        0.0759  -17.9163  -52.4980 H         1 UNK         0.1150 
    137 H137        1.6566  -21.8905  -52.2045 H         1 UNK         0.1150 
    138 H138        2.3130  -19.0786  -49.0412 H         1 UNK         0.1150 
    139 H139        3.5240  -22.1604  -50.4516 H         1 UNK         0.0800 
    140 H140        3.4446  -21.2163  -48.9876 H         1 UNK         0.0800 
    141 H141        1.9662  -21.5556  -47.1277 H         1 UNK         0.0800 
    142 H142        0.3740  -21.3359  -47.7937 H         1 UNK         0.0800 
    143 H143        1.1410  -24.0644  -46.6776 H         1 UNK         0.0600 
    144 H144        1.1702  -21.7927  -44.9746 H         1 UNK         0.3000 
    145 H145        0.5806  -23.6936  -41.9659 H         1 UNK         0.0600 
    146 H146        2.6793  -22.5163  -41.3790 H         1 UNK         0.0600 
    147 H147        3.0129  -23.8262  -42.5015 H         1 UNK         0.0600 
    148 H148        2.9921  -22.1643  -43.0770 H         1 UNK         0.0600 
    149 H149        0.9490  -20.9084  -42.3237 H         1 UNK         0.3000 
    150 H150       -2.5111  -20.0527  -42.8418 H         1 UNK         0.0600 
    151 H151       -2.1416  -20.2104  -40.3890 H         1 UNK         0.0600 
    152 H152       -1.9128  -18.5587  -40.9458 H         1 UNK         0.0600 
    153 H153       -0.5162  -19.5637  -40.5666 H         1 UNK         0.0600 
    154 H154       -0.1983  -18.4129  -42.7959 H         1 UNK         0.3000 
    155 H155        0.6208  -18.5996  -46.2733 H         1 UNK         0.0600 
    156 H156        0.4521  -16.1229  -45.8052 H         1 UNK         0.0600 
    157 H157       -0.5960  -16.4653  -44.4305 H         1 UNK         0.0600 
    158 H158       -1.1186  -16.8732  -46.0406 H         1 UNK         0.0600 
    159 H159        1.7893  -17.3260  -43.9644 H         1 UNK         0.3000 
    160 H160        4.1160  -19.9161  -43.1840 H         1 UNK         0.0600 
    161 H161        4.5667  -17.2143  -44.5655 H         1 UNK         0.0600 
    162 H162        5.1539  -18.7680  -45.1460 H         1 UNK         0.0600 
    163 H163        5.7616  -18.1163  -43.6327 H         1 UNK         0.0600 
    164 H164        3.7879  -17.2461  -42.2170 H         1 UNK         0.3000 
    165 H165        1.2450  -17.8625  -39.8255 H         1 UNK         0.0600 
    166 H166        4.2391  -17.3530  -39.3915 H         1 UNK         0.0600 
    167 H167        2.9463  -16.9784  -38.2510 H         1 UNK         0.0600 
    168 H168        3.3071  -18.6497  -38.6523 H         1 UNK         0.0600 
    169 H169        2.8241  -15.5597  -40.3799 H         1 UNK         0.3000 
    170 H170        1.4393  -13.6935  -41.4458 H         1 UNK         0.0600 
    171 H171        3.6963  -14.4517  -42.1864 H         1 UNK         0.0600 
    172 H172        3.0339  -15.0357  -43.7097 H         1 UNK         0.0600 
    173 H173        3.0487  -13.3122  -43.3482 H         1 UNK         0.0600 
    174 H174        0.7888  -14.2242  -44.2438 H         1 UNK         0.3000 
    175 H175       -2.2975  -14.1734  -44.3524 H         1 UNK         0.0600 
    176 H176       -3.1025  -11.8903  -44.9728 H         1 UNK         0.0600 
    177 H177       -3.0914  -12.1210  -43.2331 H         1 UNK         0.0600 
    178 H178       -1.8242  -11.1692  -43.9961 H         1 UNK         0.0600 
    179 H179       -1.3324  -13.8889  -46.3006 H         1 UNK         0.3000 
    180 H180        0.9234  -11.5928  -47.7337 H         1 UNK         0.0600 
    181 H181        2.0500  -13.6019  -48.6272 H         1 UNK         0.0600 
    182 H182        2.4927  -13.3794  -46.9421 H         1 UNK         0.0600 
    183 H183        1.3195  -14.6128  -47.3847 H         1 UNK         0.0600 
    184 H184       -0.5519  -13.8288  -48.7682 H         1 UNK         0.3000 
    185 H185       -3.6876  -12.3633  -49.0242 H         1 UNK         0.0600 
    186 H186       -3.5817  -12.2668  -51.4653 H         1 UNK         0.0600 
    187 H187       -2.5944  -10.9676  -50.8387 H         1 UNK         0.0600 
    188 H188       -1.8248  -12.4227  -51.4567 H         1 UNK         0.0600 
    189 H189       -2.8157  -14.4877  -50.5644 H         1 UNK         0.3000 
    190 H190       -1.4861  -21.9689  -45.4960 H         1 UNK         0.3000 
    191 H191       -3.5618  -23.1441  -47.0810 H         1 UNK         0.0600 
    192 H192       -5.0706  -21.9999  -45.4667 H         1 UNK         0.0600 
    193 H193       -3.7926  -20.9358  -46.0338 H         1 UNK         0.0600 
    194 H194       -3.7017  -21.6387  -44.4204 H         1 UNK         0.0600 
    195 H195       -2.2835  -23.9295  -43.8174 H         1 UNK         0.3000 
    196 H196       -4.0712  -26.0674  -43.2503 H         1 UNK         0.0600 
    197 H197       -2.3570  -26.7143  -41.5671 H         1 UNK         0.0600 
    198 H198       -2.6427  -24.9806  -41.5324 H         1 UNK         0.0600 
    199 H199       -1.1917  -25.6204  -42.2996 H         1 UNK         0.0600 
    200 H200       -1.0408  -25.9607  -45.1020 H         1 UNK         0.3000 
    201 H201       -0.9558  -28.8011  -45.6976 H         1 UNK         0.0600 
    202 H202        1.0809  -27.3425  -45.6412 H         1 UNK         0.0600 
    203 H203        0.4679  -26.4287  -47.0178 H         1 UNK         0.0600 
    204 H204        0.8888  -28.1242  -47.2028 H         1 UNK         0.0600 
    205 H205       -3.0244  -26.3696  -46.7671 H         1 UNK         0.3000 
    206 H206       -4.4882  -26.0451  -48.3640 H         1 UNK         0.0600 
    207 H207       -5.1902  -28.3908  -47.8352 H         1 UNK         0.0600 
    208 H208       -5.5257  -27.9562  -49.5023 H         1 UNK         0.0600 
    209 H209       -4.1541  -28.9903  -49.1302 H         1 UNK         0.0600 
    210 H210       -1.7447  -25.4167  -48.9254 H         1 UNK         0.3000 
    211 H211       -1.5633  -25.7073  -51.9029 H         1 UNK         0.0600 
    212 H212        0.5633  -25.4674  -49.7228 H         1 UNK         0.0600 
    213 H213        0.9112  -25.3605  -51.4471 H         1 UNK         0.0600 
    214 H214        0.2562  -26.8440  -50.7699 H         1 UNK         0.0600 
    215 H215       -2.2453  -23.4326  -49.4548 H         1 UNK         0.3000 
    216 H216       -1.0239  -21.0795  -50.4286 H         1 UNK         0.0600 
    217 H217       -2.8692  -19.9306  -49.0903 H         1 UNK         0.0600 
    218 H218       -1.9730  -21.1269  -48.1912 H         1 UNK         0.0600 
    219 H219       -3.5864  -21.5036  -48.8079 H         1 UNK         0.0600 
    220 H220       -3.8031  -22.7603  -51.6272 H         1 UNK         0.3000 
    221 H221       -5.1433  -22.5977  -53.3513 H         1 UNK         0.0600 
    222 H222       -3.1620  -20.5607  -54.4925 H         1 UNK         0.0600 
    223 H223       -3.0946  -22.3071  -54.6889 H         1 UNK         0.0600 
    224 H224       -4.4185  -21.3915  -55.3943 H         1 UNK         0.0600 
    225 H225       -4.2285  -19.1066  -53.1573 H         1 UNK         0.3000 
    226 H226       -6.7264  -18.1489  -52.2387 H         1 UNK         0.0600 
    227 H227       -7.5597  -17.1561  -54.4224 H         1 UNK         0.0600 
    228 H228       -6.2903  -18.0099  -55.2927 H         1 UNK         0.0600 
    229 H229       -7.5808  -18.9009  -54.4942 H         1 UNK         0.0600 
    230 H230       -6.8658  -15.7132  -52.7741 H         1 UNK         0.3000 
    231 H231       -4.4676  -14.3465  -52.1093 H         1 UNK         0.0600 
    232 H232       -5.8874  -12.3090  -52.4817 H         1 UNK         0.0600 
    233 H233       -6.7131  -13.5059  -51.4980 H         1 UNK         0.0600 
    234 H234       -7.1405  -13.3128  -53.1991 H         1 UNK         0.0600 
    235 H235       -5.6789  -15.3844  -55.1859 H         1 UNK         0.3000 
    236 H236       -4.2349  -13.5918  -56.9053 H         1 UNK         0.0600 
    237 H237       -5.2615  -16.4470  -57.3657 H         1 UNK         0.0600 
    238 H238       -6.1491  -14.9601  -57.7026 H         1 UNK         0.0600 
    239 H239       -4.7031  -15.3479  -58.6209 H         1 UNK         0.0600 
    240 H240       -3.3636  -16.5274  -55.1274 H         1 UNK         0.3000 
    241 H241       -0.6511  -16.6253  -56.2860 H         1 UNK         0.0600 
    242 H242       -0.9537  -14.9220  -52.5251 H         1 UNK         0.3800 
    243 H243       -2.2860  -15.9139  -53.1112 H         1 UNK         0.3800 
    244 H244       -1.9949  -18.7461  -55.6599 H         1 UNK         0.0800 
    245 H245       -1.7113  -18.3418  -53.9913 H         1 UNK         0.0800 
    246 H246       -0.8278  -20.6291  -53.7300 H         1 UNK         0.0800 
    247 H247        0.7225  -21.2047  -54.2594 H         1 UNK         0.0800 
@<TRIPOS>BOND
     1    1    2 1    
     2    1  127 1    
     3    1  128 1    
     4    1  129 1    
     5    2    3 2    
     6    2    4 am   BACKBONE|DICT|INTERRES
     7    4    5 1    
     8    4  130 1    
     9    5    6 1    
    10    5   65 1    
    11    5  131 1    
    12    6    7 1    
    13    6  132 1    
    14    6  133 1    
    15    7    8 1    
    16    8    9 1    
    17    8  134 1    
    18    8  135 1    
    19    9   10 ar   
    20    9   14 ar   
    21   10   11 ar   
    22   10  136 1    
    23   11   12 ar   
    24   11  126 1    
    25   12   13 ar   
    26   12  137 1    
    27   13   14 ar   
    28   13   15 1    
    29   14  138 1    
    30   15   16 1    
    31   15  139 1    
    32   15  140 1    
    33   16   17 1    
    34   17   18 1    
    35   17  141 1    
    36   17  142 1    
    37   18   19 1    
    38   18   67 1    
    39   18  143 1    
    40   19   20 am   BACKBONE|DICT|INTERRES
    41   19  144 1    
    42   20   21 2    
    43   20   22 1    
    44   22   23 1    
    45   22   24 1    
    46   22  145 1    
    47   23  146 1    
    48   23  147 1    
    49   23  148 1    
    50   24   25 am   BACKBONE|DICT|INTERRES
    51   24  149 1    
    52   25   26 2    
    53   25   27 1    
    54   27   28 1    
    55   27   29 1    
    56   27  150 1    
    57   28  151 1    
    58   28  152 1    
    59   28  153 1    
    60   29   30 am   BACKBONE|DICT|INTERRES
    61   29  154 1    
    62   30   31 2    
    63   30   32 1    
    64   32   33 1    
    65   32   34 1    
    66   32  155 1    
    67   33  156 1    
    68   33  157 1    
    69   33  158 1    
    70   34   35 am   BACKBONE|DICT|INTERRES
    71   34  159 1    
    72   35   36 2    
    73   35   37 1    
    74   37   38 1    
    75   37   39 1    
    76   37  160 1    
    77   38  161 1    
    78   38  162 1    
    79   38  163 1    
    80   39   40 am   BACKBONE|DICT|INTERRES
    81   39  164 1    
    82   40   41 2    
    83   40   42 1    
    84   42   43 1    
    85   42   44 1    
    86   42  165 1    
    87   43  166 1    
    88   43  167 1    
    89   43  168 1    
    90   44   45 am   BACKBONE|DICT|INTERRES
    91   44  169 1    
    92   45   46 2    
    93   45   47 1    
    94   47   48 1    
    95   47   49 1    
    96   47  170 1    
    97   48  171 1    
    98   48  172 1    
    99   48  173 1    
   100   49   50 am   BACKBONE|DICT|INTERRES
   101   49  174 1    
   102   50   51 2    
   103   50   52 1    
   104   52   53 1    
   105   52   54 1    
   106   52  175 1    
   107   53  176 1    
   108   53  177 1    
   109   53  178 1    
   110   54   55 am   BACKBONE|DICT|INTERRES
   111   54  179 1    
   112   55   56 2    
   113   55   57 1    
   114   57   58 1    
   115   57   59 1    
   116   57  180 1    
   117   58  181 1    
   118   58  182 1    
   119   58  183 1    
   120   59   60 am   BACKBONE|DICT|INTERRES
   121   59  184 1    
   122   60   61 2    
   123   60   62 1    
   124   62   63 1    
   125   62   64 1    
   126   62  185 1    
   127   63  186 1    
   128   63  187 1    
   129   63  188 1    
   130   64   65 am   BACKBONE|DICT|INTERRES
   131   64  189 1    
   132   65   66 2    
   133   67   68 2    
   134   67   69 am   BACKBONE|DICT|INTERRES
   135   69   70 1    
   136   69  190 1    
   137   70   71 1    
   138   70   72 1    
   139   70  191 1    
   140   71  192 1    
   141   71  193 1    
   142   71  194 1    
   143   72   73 2    
   144   72   74 am   BACKBONE|DICT|INTERRES
   145   74   75 1    
   146   74  195 1    
   147   75   76 1    
   148   75   77 1    
   149   75  196 1    
   150   76  197 1    
   151   76  198 1    
   152   76  199 1    
   153   77   78 2    
   154   77   79 am   BACKBONE|DICT|INTERRES
   155   79   80 1    
   156   79  200 1    
   157   80   81 1    
   158   80   82 1    
   159   80  201 1    
   160   81  202 1    
   161   81  203 1    
   162   81  204 1    
   163   82   83 2    
   164   82   84 am   BACKBONE|DICT|INTERRES
   165   84   85 1    
   166   84  205 1    
   167   85   86 1    
   168   85   87 1    
   169   85  206 1    
   170   86  207 1    
   171   86  208 1    
   172   86  209 1    
   173   87   88 2    
   174   87   89 am   BACKBONE|DICT|INTERRES
   175   89   90 1    
   176   89  210 1    
   177   90   91 1    
   178   90   92 1    
   179   90  211 1    
   180   91  212 1    
   181   91  213 1    
   182   91  214 1    
   183   92   93 2    
   184   92   94 am   BACKBONE|DICT|INTERRES
   185   94   95 1    
   186   94  215 1    
   187   95   96 1    
   188   95   97 1    
   189   95  216 1    
   190   96  217 1    
   191   96  218 1    
   192   96  219 1    
   193   97   98 2    
   194   97   99 am   BACKBONE|DICT|INTERRES
   195   99  100 1    
   196   99  220 1    
   197  100  101 1    
   198  100  102 1    
   199  100  221 1    
   200  101  222 1    
   201  101  223 1    
   202  101  224 1    
   203  102  103 2    
   204  102  104 am   BACKBONE|DICT|INTERRES
   205  104  105 1    
   206  104  225 1    
   207  105  106 1    
   208  105  107 1    
   209  105  226 1    
   210  106  227 1    
   211  106  228 1    
   212  106  229 1    
   213  107  108 2    
   214  107  109 am   BACKBONE|DICT|INTERRES
   215  109  110 1    
   216  109  230 1    
   217  110  111 1    
   218  110  112 1    
   219  110  231 1    
   220  111  232 1    
   221  111  233 1    
   222  111  234 1    
   223  112  113 2    
   224  112  114 am   BACKBONE|DICT|INTERRES
   225  114  115 1    
   226  114  235 1    
   227  115  116 1    
   228  115  117 1    
   229  115  236 1    
   230  116  237 1    
   231  116  238 1    
   232  116  239 1    
   233  117  118 2    
   234  117  119 am   BACKBONE|DICT|INTERRES
   235  119  120 1    
   236  119  240 1    
   237  120  121 1    
   238  120  124 1    
   239  120  241 1    
   240  121  122 am   BACKBONE|DICT|INTERRES
   241  121  123 2    
   242  122  242 1    
   243  122  243 1    
   244  124  125 1    
   245  124  244 1    
   246  124  245 1    
   247  125  126 1    
   248  126  246 1    
   249  126  247 1    
@<TRIPOS>SUBSTRUCTURE
     1 UNK         1 GROUP             0       ****    0 ROOT    
