@<TRIPOS>MOLECULE
3R540
247   249    1
SMALL
USER_CHARGES


@<TRIPOS>ATOM
      1 CA         -2.4460  -10.1800  -49.6739 C.3       0 UNK        -0.1800 
      2 C          -1.4715  -11.0140  -48.8555 C.2       0 UNK         0.5000 
      3 O          -1.1168  -10.6245  -47.7431 O.2       0 UNK        -0.5000 
      4 N          -1.0504  -12.1690  -49.3911 N.am      1 UNK        -0.5000 
      5 CA         -0.0951  -13.0989  -48.7679 C.3       1 UNK         0.1400 
      6 C6          0.2817  -14.2569  -49.7295 C.3       23 UNK        -0.0398 
      7 S7          1.9798  -14.8699  -49.4608 S.3       23 UNK        -0.2404 
      8 C8          2.4370  -15.4664  -51.1200 C.3       23 UNK        -0.0205 
      9 C9          1.8704  -16.8475  -51.4252 C.ar      23 UNK        -0.0193 
     10 C10         0.5574  -16.9868  -51.8855 C.ar      23 UNK        -0.1150 
     11 C11         0.0545  -18.2455  -52.2296 C.ar      23 UNK        -0.0193 
     12 C12         0.8796  -19.3643  -52.1115 C.ar      23 UNK        -0.1150 
     13 C13         2.1845  -19.2536  -51.6218 C.ar      23 UNK        -0.0193 
     14 C14         2.6724  -17.9863  -51.2839 C.ar      23 UNK        -0.1150 
     15 C15         3.0982  -20.4743  -51.5071 C.3       23 UNK        -0.0205 
     16 S16         2.2460  -22.0508  -51.1297 S.3       23 UNK        -0.2404 
     17 C17         2.0789  -22.0070  -49.3151 C.3       23 UNK        -0.0398 
     18 CA          0.6139  -21.8343  -48.8298 C.3       11 UNK         0.1400 
     19 N           0.4232  -22.4061  -47.4943 N.am      11 UNK        -0.5000 
     20 C          -0.7443  -22.5148  -46.8428 C.2       10 UNK         0.5000 
     21 O          -1.8393  -22.2213  -47.3243 O.2       10 UNK        -0.5000 
     22 CA         -0.6702  -23.0102  -45.3853 C.3       10 UNK         0.1400 
     23 CB         -0.7465  -24.5439  -45.3392 C.3       10 UNK        -0.1800 
     24 N           0.5224  -22.5770  -44.6479 N.am      10 UNK        -0.5000 
     25 C           0.9567  -21.3183  -44.4958 C.2       9 UNK         0.5000 
     26 O           0.4267  -20.3401  -45.0236 O.2       9 UNK        -0.5000 
     27 CA          2.1920  -21.1402  -43.5954 C.3       9 UNK         0.1400 
     28 CB          2.7552  -19.7080  -43.6356 C.3       9 UNK        -0.1800 
     29 N           1.8790  -21.4992  -42.2115 N.am      9 UNK        -0.5000 
     30 C           1.9277  -22.7438  -41.7137 C.2       8 UNK         0.5000 
     31 O           2.1970  -23.7292  -42.4028 O.2       8 UNK        -0.5000 
     32 CA          1.6478  -22.9382  -40.2091 C.3       8 UNK         0.1400 
     33 CB          2.9556  -23.2447  -39.4621 C.3       8 UNK        -0.1800 
     34 N           1.0178  -21.7766  -39.5816 N.am      8 UNK        -0.5000 
     35 C          -0.2983  -21.5264  -39.5786 C.2       7 UNK         0.5000 
     36 O          -1.1396  -22.2809  -40.0675 O.2       7 UNK        -0.5000 
     37 CA         -0.7479  -20.1950  -38.9375 C.3       7 UNK         0.1400 
     38 CB         -1.1343  -20.4109  -37.4663 C.3       7 UNK        -0.1800 
     39 N           0.2519  -19.1211  -39.0190 N.am      7 UNK        -0.5000 
     40 C           0.7299  -18.6217  -40.1657 C.2       6 UNK         0.5000 
     41 O           0.3934  -19.0437  -41.2744 O.2       6 UNK        -0.5000 
     42 CA          1.8052  -17.5238  -40.0572 C.3       6 UNK         0.1400 
     43 CB          3.1530  -18.1365  -39.6421 C.3       6 UNK        -0.1800 
     44 N           1.9739  -16.8703  -41.3532 N.am      6 UNK        -0.5000 
     45 C           1.1834  -15.8985  -41.8197 C.2       5 UNK         0.5000 
     46 O           0.3831  -15.2641  -41.1278 O.2       5 UNK        -0.5000 
     47 CA          1.2520  -15.6624  -43.3393 C.3       5 UNK         0.1400 
     48 CB          0.0720  -16.3763  -44.0166 C.3       5 UNK        -0.1800 
     49 N           1.2248  -14.2528  -43.7212 N.am      5 UNK        -0.5000 
     50 C           2.1060  -13.3134  -43.3533 C.2       4 UNK         0.5000 
     51 O           3.0629  -13.5220  -42.6062 O.2       4 UNK        -0.5000 
     52 CA          1.9024  -11.9045  -43.9421 C.3       4 UNK         0.1400 
     53 CB          2.7852  -11.7114  -45.1856 C.3       4 UNK        -0.1800 
     54 N           0.5086  -11.6524  -44.3107 N.am      4 UNK        -0.5000 
     55 C          -0.4237  -11.1682  -43.4783 C.2       3 UNK         0.5000 
     56 O          -0.1951  -10.8370  -42.3144 O.2       3 UNK        -0.5000 
     57 CA         -1.8538  -11.0299  -44.0357 C.3       3 UNK         0.1400 
     58 CB         -2.0829   -9.6165  -44.5923 C.3       3 UNK        -0.1800 
     59 N          -2.1400  -12.0164  -45.0790 N.am      3 UNK        -0.5000 
     60 C          -2.4278  -13.3027  -44.8287 C.2       2 UNK         0.5000 
     61 O          -2.5662  -13.7570  -43.6935 O.2       2 UNK        -0.5000 
     62 CA         -2.5651  -14.2549  -46.0332 C.3       2 UNK         0.1400 
     63 CB         -4.0418  -14.5410  -46.3426 C.3       2 UNK        -0.1800 
     64 N          -1.9053  -13.7820  -47.2500 N.am      2 UNK        -0.5000 
     65 C          -0.5815  -13.6312  -47.4002 C.2       1 UNK         0.5000 
     66 O           0.2287  -13.8307  -46.4954 O.2       1 UNK        -0.5000 
     67 C           0.1604  -20.3627  -48.8585 C.2       11 UNK         0.5000 
     68 O          -0.8134  -20.0347  -49.5353 O.2       11 UNK        -0.5000 
     69 N           0.8433  -19.5250  -48.0650 N.am      12 UNK        -0.5000 
     70 CA          0.5988  -18.0888  -47.9447 C.3       12 UNK         0.1400 
     71 CB          1.6865  -17.4744  -47.0510 C.3       12 UNK        -0.1800 
     72 C          -0.8056  -17.7613  -47.4128 C.2       12 UNK         0.5000 
     73 O          -1.4464  -16.8385  -47.9112 O.2       12 UNK        -0.5000 
     74 N          -1.2762  -18.5581  -46.4442 N.am      13 UNK        -0.5000 
     75 CA         -2.6238  -18.4906  -45.8801 C.3       13 UNK         0.1400 
     76 CB         -2.6776  -19.3701  -44.6214 C.3       13 UNK        -0.1800 
     77 C          -3.7374  -18.8948  -46.8689 C.2       13 UNK         0.5000 
     78 O          -4.9026  -18.6083  -46.5920 O.2       13 UNK        -0.5000 
     79 N          -3.3688  -19.5469  -47.9843 N.am      14 UNK        -0.5000 
     80 CA         -4.2333  -20.0514  -49.0530 C.3       14 UNK         0.1400 
     81 CB         -4.8797  -18.8772  -49.8178 C.3       14 UNK        -0.1800 
     82 C          -5.2488  -21.0847  -48.5253 C.2       14 UNK         0.5000 
     83 O          -6.4491  -20.9731  -48.7815 O.2       14 UNK        -0.5000 
     84 N          -4.7397  -22.0506  -47.7493 N.am      15 UNK        -0.5000 
     85 CA         -5.5082  -23.0850  -47.0618 C.3       15 UNK         0.1400 
     86 CB         -4.6062  -23.7429  -46.0048 C.3       15 UNK        -0.1800 
     87 C          -6.0941  -24.1205  -48.0413 C.2       15 UNK         0.5000 
     88 O          -5.4488  -25.1319  -48.3278 O.2       15 UNK        -0.5000 
     89 N          -7.3045  -23.8383  -48.5429 N.am      16 UNK        -0.5000 
     90 CA         -8.1000  -24.6596  -49.4600 C.3       16 UNK         0.1400 
     91 CB         -8.6397  -25.9098  -48.7291 C.3       16 UNK        -0.1800 
     92 C          -7.3235  -24.9736  -50.7540 C.2       16 UNK         0.5000 
     93 O          -7.0846  -24.0619  -51.5457 O.2       16 UNK        -0.5000 
     94 N          -6.9028  -26.2335  -50.9305 N.am      17 UNK        -0.5000 
     95 CA         -6.0992  -26.7092  -52.0588 C.3       17 UNK         0.1400 
     96 CB         -5.9221  -28.2302  -51.9401 C.3       17 UNK        -0.1800 
     97 C          -4.7280  -26.0162  -52.1915 C.2       17 UNK         0.5000 
     98 O          -4.2055  -25.9297  -53.3024 O.2       17 UNK        -0.5000 
     99 N          -4.1837  -25.4970  -51.0803 N.am      18 UNK        -0.5000 
    100 CA        -2.9262  -24.7467  -51.0505 C.3       18 UNK         0.1400 
    101 CB        -2.4542  -24.6088  -49.5973 C.3       18 UNK        -0.1800 
    102 C         -3.0118  -23.3672  -51.7377 C.2       18 UNK         0.5000 
    103 O         -1.9722  -22.8075  -52.0842 O.2       18 UNK        -0.5000 
    104 N         -4.2323  -22.8549  -51.9679 N.am      19 UNK        -0.5000 
    105 CA        -4.4859  -21.6246  -52.7228 C.3       19 UNK         0.1400 
    106 CB        -5.9693  -21.2490  -52.6007 C.3       19 UNK        -0.1800 
    107 C         -4.1009  -21.7346  -54.2105 C.2       19 UNK         0.5000 
    108 O         -3.7802  -20.7184  -54.8277 O.2       19 UNK        -0.5000 
    109 N         -4.1028  -22.9593  -54.7608 N.am      20 UNK        -0.5000 
    110 CA        -3.7638  -23.2624  -56.1561 C.3       20 UNK         0.1400 
    111 CB        -4.0604  -24.7435  -56.4340 C.3       20 UNK        -0.1800 
    112 C         -2.3096  -22.9213  -56.5426 C.2       20 UNK         0.5000 
    113 O         -2.0101  -22.8123  -57.7320 O.2       20 UNK        -0.5000 
    114 N         -1.4411  -22.7330  -55.5398 N.am      21 UNK        -0.5000 
    115 CA        -0.0664  -22.2645  -55.6944 C.3       21 UNK         0.1400 
    116 CB         0.7107  -22.5895  -54.4112 C.3       21 UNK        -0.1800 
    117 C          0.0492  -20.7685  -56.0631 C.2       21 UNK         0.5000 
    118 O          1.1366  -20.3482  -56.4621 O.2       21 UNK        -0.5000 
    119 N         -1.0430  -19.9954  -55.9589 N.am      22 UNK        -0.5000 
    120 CA        -1.1061  -18.5993  -56.4247 C.3       22 UNK         0.1400 
    121 C         -2.4351  -18.2073  -57.1310 C.2       22 UNK         0.5000 
    122 N         -3.5396  -18.9178  -56.9391 N.am      22 UNK        -0.7600 
    123 O         -2.4576  -17.2493  -57.8994 O.2       22 UNK        -0.5000 
    124 C124       -0.6611  -17.5827  -55.3399 C.3       23 UNK        -0.0398 
    125 S125       -1.8819  -17.2607  -54.0138 S.3       23 UNK        -0.2404 
    126 C126       -1.3815  -18.4285  -52.7080 C.3       23 UNK        -0.0205 
    127 H127       -2.6806  -10.6503  -50.6291 H         1 UNK         0.0600 
    128 H128       -2.0205   -9.1967  -49.8739 H         1 UNK         0.0600 
    129 H129       -3.3768  -10.0442  -49.1232 H         1 UNK         0.0600 
    130 H130       -1.3888  -12.4327  -50.3056 H         1 UNK         0.3000 
    131 H131        0.8034  -12.5091  -48.5726 H         1 UNK         0.0600 
    132 H132        0.2250  -13.9065  -50.7607 H         1 UNK         0.0800 
    133 H133       -0.4222  -15.0881  -49.6615 H         1 UNK         0.0800 
    134 H134        2.1154  -14.7525  -51.8795 H         1 UNK         0.0800 
    135 H135        3.5258  -15.4943  -51.1838 H         1 UNK         0.0800 
    136 H136       -0.0718  -16.1147  -51.9885 H         1 UNK         0.1150 
    137 H137        0.4854  -20.3314  -52.3787 H         1 UNK         0.1150 
    138 H138        3.6877  -17.8821  -50.9277 H         1 UNK         0.1150 
    139 H139        3.6105  -20.5916  -52.4627 H         1 UNK         0.0800 
    140 H140        3.8784  -20.3006  -50.7647 H         1 UNK         0.0800 
    141 H141        2.7492  -21.2596  -48.8883 H         1 UNK         0.0800 
    142 H142        2.4639  -22.9663  -48.9665 H         1 UNK         0.0800 
    143 H143       -0.0387  -22.3875  -49.5072 H         1 UNK         0.0600 
    144 H144        1.2583  -22.6763  -46.9970 H         1 UNK         0.3000 
    145 H145       -1.5399  -22.6102  -44.8619 H         1 UNK         0.0600 
    146 H146       -0.8436  -24.9023  -44.3142 H         1 UNK         0.0600 
    147 H147       -1.6063  -24.9172  -45.8953 H         1 UNK         0.0600 
    148 H148        0.1433  -25.0028  -45.7719 H         1 UNK         0.0600 
    149 H149        1.0215  -23.2978  -44.1393 H         1 UNK         0.3000 
    150 H150        2.9726  -21.8042  -43.9729 H         1 UNK         0.0600 
    151 H151        3.0927  -19.4535  -44.6407 H         1 UNK         0.0600 
    152 H152        3.6108  -19.6000  -42.9690 H         1 UNK         0.0600 
    153 H153        2.0067  -18.9713  -43.3483 H         1 UNK         0.0600 
    154 H154        1.5235  -20.7490  -41.6307 H         1 UNK         0.3000 
    155 H155        0.9892  -23.8034  -40.1077 H         1 UNK         0.0600 
    156 H156        3.6617  -22.4160  -39.5291 H         1 UNK         0.0600 
    157 H157        3.4454  -24.1276  -39.8752 H         1 UNK         0.0600 
    158 H158        2.7694  -23.4434  -38.4065 H         1 UNK         0.0600 
    159 H159        1.6338  -21.1050  -39.1479 H         1 UNK         0.3000 
    160 H160       -1.6362  -19.8603  -39.4776 H         1 UNK         0.0600 
    161 H161       -0.2770  -20.7183  -36.8662 H         1 UNK         0.0600 
    162 H162       -1.8960  -21.1861  -37.3718 H         1 UNK         0.0600 
    163 H163       -1.5437  -19.5008  -37.0276 H         1 UNK         0.0600 
    164 H164        0.5789  -18.7426  -38.1414 H         1 UNK         0.3000 
    165 H165        1.4953  -16.7925  -39.3078 H         1 UNK         0.0600 
    166 H166        3.9314  -17.3749  -39.5912 H         1 UNK         0.0600 
    167 H167        3.0901  -18.5978  -38.6559 H         1 UNK         0.0600 
    168 H168        3.4823  -18.9044  -40.3437 H         1 UNK         0.0600 
    169 H169        2.5761  -17.3505  -42.0044 H         1 UNK         0.3000 
    170 H170        2.1816  -16.0831  -43.7279 H         1 UNK         0.0600 
    171 H171       -0.8846  -16.0455  -43.6106 H         1 UNK         0.0600 
    172 H172        0.0565  -16.1870  -45.0874 H         1 UNK         0.0600 
    173 H173        0.1300  -17.4563  -43.8743 H         1 UNK         0.0600 
    174 H174        0.5203  -13.9907  -44.3982 H         1 UNK         0.3000 
    175 H175        2.2175  -11.1794  -43.1888 H         1 UNK         0.0600 
    176 H176        2.5308  -12.4184  -45.9763 H         1 UNK         0.0600 
    177 H177        2.6814  -10.7045  -45.5902 H         1 UNK         0.0600 
    178 H178        3.8385  -11.8571  -44.9425 H         1 UNK         0.0600 
    179 H179        0.2328  -11.9319  -45.2427 H         1 UNK         0.3000 
    180 H180       -2.5506  -11.1806  -43.2082 H         1 UNK         0.0600 
    181 H181       -3.0938   -9.5043  -44.9844 H         1 UNK         0.0600 
    182 H182       -1.3827   -9.3789  -45.3935 H         1 UNK         0.0600 
    183 H183       -1.9513   -8.8661  -43.8117 H         1 UNK         0.0600 
    184 H184       -2.0179  -11.7125  -46.0377 H         1 UNK         0.3000 
    185 H185       -2.0919  -15.1953  -45.7490 H         1 UNK         0.0600 
    186 H186       -4.1397  -15.2943  -47.1251 H         1 UNK         0.0600 
    187 H187       -4.5594  -14.9233  -45.4618 H         1 UNK         0.0600 
    188 H188       -4.5662  -13.6423  -46.6694 H         1 UNK         0.0600 
    189 H189       -2.5019  -13.5782  -48.0378 H         1 UNK         0.3000 
    190 H190        1.5682  -19.8998  -47.4728 H         1 UNK         0.3000 
    191 H191        0.6808  -17.6529  -48.9412 H         1 UNK         0.0600 
    192 H192        1.5336  -16.4017  -46.9290 H         1 UNK         0.0600 
    193 H193        2.6764  -17.6105  -47.4868 H         1 UNK         0.0600 
    194 H194        1.6906  -17.9210  -46.0565 H         1 UNK         0.0600 
    195 H195       -0.6622  -19.2748  -46.0613 H         1 UNK         0.3000 
    196 H196       -2.8128  -17.4585  -45.5814 H         1 UNK         0.0600 
    197 H197       -2.5084  -20.4194  -44.8627 H         1 UNK         0.0600 
    198 H198       -1.9246  -19.0678  -43.8928 H         1 UNK         0.0600 
    199 H199       -3.6500  -19.2980  -44.1332 H         1 UNK         0.0600 
    200 H200       -2.3818  -19.7371  -48.1180 H         1 UNK         0.3000 
    201 H201       -3.5836  -20.5846  -49.7485 H         1 UNK         0.0600 
    202 H202       -5.5715  -18.3146  -49.1906 H         1 UNK         0.0600 
    203 H203       -5.4405  -19.2275  -50.6824 H         1 UNK         0.0600 
    204 H204       -4.1216  -18.1845  -50.1837 H         1 UNK         0.0600 
    205 H205       -3.7333  -22.0670  -47.5999 H         1 UNK         0.3000 
    206 H206       -6.3360  -22.6045  -46.5361 H         1 UNK         0.0600 
    207 H207       -5.1498  -24.5063  -45.4470 H         1 UNK         0.0600 
    208 H208       -3.7425  -24.2236  -46.4632 H         1 UNK         0.0600 
    209 H209       -4.2393  -23.0103  -45.2856 H         1 UNK         0.0600 
    210 H210       -7.6882  -22.9248  -48.3366 H         1 UNK         0.3000 
    211 H211       -8.9576  -24.0549  -49.7584 H         1 UNK         0.0600 
    212 H212       -9.2598  -26.5159  -49.3910 H         1 UNK         0.0600 
    213 H213       -9.2639  -25.6226  -47.8828 H         1 UNK         0.0600 
    214 H214       -7.8410  -26.5447  -48.3442 H         1 UNK         0.0600 
    215 H215       -7.1100  -26.9089  -50.2093 H         1 UNK         0.3000 
    216 H216       -6.6577  -26.4994  -52.9733 H         1 UNK         0.0600 
    217 H217       -5.3931  -28.5027  -51.0259 H         1 UNK         0.0600 
    218 H218       -5.3494  -28.6240  -52.7809 H         1 UNK         0.0600 
    219 H219       -6.8850  -28.7413  -51.9373 H         1 UNK         0.0600 
    220 H220       -4.6840  -25.5783  -50.2004 H         1 UNK         0.3000 
    221 H221       -2.1781  -25.3307  -51.5908 H         1 UNK         0.0600 
    222 H222       -2.4305  -25.5735  -49.0905 H         1 UNK         0.0600 
    223 H223       -3.1035  -23.9464  -49.0273 H         1 UNK         0.0600 
    224 H224       -1.4469  -24.1973  -49.5541 H         1 UNK         0.0600 
    225 H225       -5.0501  -23.3813  -51.6812 H         1 UNK         0.3000 
    226 H226       -3.8868  -20.8266  -52.2795 H         1 UNK         0.0600 
    227 H227       -6.2988  -21.2427  -51.5622 H         1 UNK         0.0600 
    228 H228       -6.1535  -20.2554  -53.0111 H         1 UNK         0.0600 
    229 H229       -6.6066  -21.9484  -53.1432 H         1 UNK         0.0600 
    230 H230       -4.3415  -23.7513  -54.1780 H         1 UNK         0.3000 
    231 H231       -4.4157  -22.6587  -56.7907 H         1 UNK         0.0600 
    232 H232       -3.4144  -25.3980  -55.8478 H         1 UNK         0.0600 
    233 H233       -3.9008  -24.9835  -57.4859 H         1 UNK         0.0600 
    234 H234       -5.0950  -24.9927  -56.1975 H         1 UNK         0.0600 
    235 H235       -1.7730  -22.8422  -54.5909 H         1 UNK         0.3000 
    236 H236        0.3943  -22.8236  -56.5115 H         1 UNK         0.0600 
    237 H237        0.7974  -23.6665  -54.2676 H         1 UNK         0.0600 
    238 H238        1.7228  -22.1836  -54.4408 H         1 UNK         0.0600 
    239 H239        0.2152  -22.1813  -53.5325 H         1 UNK         0.0600 
    240 H240       -1.9085  -20.3933  -55.6159 H         1 UNK         0.3000 
    241 H241       -0.3755  -18.5084  -57.2313 H         1 UNK         0.0600 
    242 H242       -4.3790  -18.6455  -57.4246 H         1 UNK         0.3800 
    243 H243       -3.5970  -19.6338  -56.2185 H         1 UNK         0.3800 
    244 H244       -0.4511  -16.6236  -55.8157 H         1 UNK         0.0800 
    245 H245        0.2888  -17.8949  -54.9054 H         1 UNK         0.0800 
    246 H246       -2.0462  -18.3069  -51.8518 H         1 UNK         0.0800 
    247 H247       -1.5416  -19.4438  -53.0750 H         1 UNK         0.0800 
@<TRIPOS>BOND
     1    1    2 1    
     2    1  127 1    
     3    1  128 1    
     4    1  129 1    
     5    2    3 2    
     6    2    4 am   BACKBONE|DICT|INTERRES
     7    4    5 1    
     8    4  130 1    
     9    5    6 1    
    10    5   65 1    
    11    5  131 1    
    12    6    7 1    
    13    6  132 1    
    14    6  133 1    
    15    7    8 1    
    16    8    9 1    
    17    8  134 1    
    18    8  135 1    
    19    9   10 ar   
    20    9   14 ar   
    21   10   11 ar   
    22   10  136 1    
    23   11   12 ar   
    24   11  126 1    
    25   12   13 ar   
    26   12  137 1    
    27   13   14 ar   
    28   13   15 1    
    29   14  138 1    
    30   15   16 1    
    31   15  139 1    
    32   15  140 1    
    33   16   17 1    
    34   17   18 1    
    35   17  141 1    
    36   17  142 1    
    37   18   19 1    
    38   18   67 1    
    39   18  143 1    
    40   19   20 am   BACKBONE|DICT|INTERRES
    41   19  144 1    
    42   20   21 2    
    43   20   22 1    
    44   22   23 1    
    45   22   24 1    
    46   22  145 1    
    47   23  146 1    
    48   23  147 1    
    49   23  148 1    
    50   24   25 am   BACKBONE|DICT|INTERRES
    51   24  149 1    
    52   25   26 2    
    53   25   27 1    
    54   27   28 1    
    55   27   29 1    
    56   27  150 1    
    57   28  151 1    
    58   28  152 1    
    59   28  153 1    
    60   29   30 am   BACKBONE|DICT|INTERRES
    61   29  154 1    
    62   30   31 2    
    63   30   32 1    
    64   32   33 1    
    65   32   34 1    
    66   32  155 1    
    67   33  156 1    
    68   33  157 1    
    69   33  158 1    
    70   34   35 am   BACKBONE|DICT|INTERRES
    71   34  159 1    
    72   35   36 2    
    73   35   37 1    
    74   37   38 1    
    75   37   39 1    
    76   37  160 1    
    77   38  161 1    
    78   38  162 1    
    79   38  163 1    
    80   39   40 am   BACKBONE|DICT|INTERRES
    81   39  164 1    
    82   40   41 2    
    83   40   42 1    
    84   42   43 1    
    85   42   44 1    
    86   42  165 1    
    87   43  166 1    
    88   43  167 1    
    89   43  168 1    
    90   44   45 am   BACKBONE|DICT|INTERRES
    91   44  169 1    
    92   45   46 2    
    93   45   47 1    
    94   47   48 1    
    95   47   49 1    
    96   47  170 1    
    97   48  171 1    
    98   48  172 1    
    99   48  173 1    
   100   49   50 am   BACKBONE|DICT|INTERRES
   101   49  174 1    
   102   50   51 2    
   103   50   52 1    
   104   52   53 1    
   105   52   54 1    
   106   52  175 1    
   107   53  176 1    
   108   53  177 1    
   109   53  178 1    
   110   54   55 am   BACKBONE|DICT|INTERRES
   111   54  179 1    
   112   55   56 2    
   113   55   57 1    
   114   57   58 1    
   115   57   59 1    
   116   57  180 1    
   117   58  181 1    
   118   58  182 1    
   119   58  183 1    
   120   59   60 am   BACKBONE|DICT|INTERRES
   121   59  184 1    
   122   60   61 2    
   123   60   62 1    
   124   62   63 1    
   125   62   64 1    
   126   62  185 1    
   127   63  186 1    
   128   63  187 1    
   129   63  188 1    
   130   64   65 am   BACKBONE|DICT|INTERRES
   131   64  189 1    
   132   65   66 2    
   133   67   68 2    
   134   67   69 am   BACKBONE|DICT|INTERRES
   135   69   70 1    
   136   69  190 1    
   137   70   71 1    
   138   70   72 1    
   139   70  191 1    
   140   71  192 1    
   141   71  193 1    
   142   71  194 1    
   143   72   73 2    
   144   72   74 am   BACKBONE|DICT|INTERRES
   145   74   75 1    
   146   74  195 1    
   147   75   76 1    
   148   75   77 1    
   149   75  196 1    
   150   76  197 1    
   151   76  198 1    
   152   76  199 1    
   153   77   78 2    
   154   77   79 am   BACKBONE|DICT|INTERRES
   155   79   80 1    
   156   79  200 1    
   157   80   81 1    
   158   80   82 1    
   159   80  201 1    
   160   81  202 1    
   161   81  203 1    
   162   81  204 1    
   163   82   83 2    
   164   82   84 am   BACKBONE|DICT|INTERRES
   165   84   85 1    
   166   84  205 1    
   167   85   86 1    
   168   85   87 1    
   169   85  206 1    
   170   86  207 1    
   171   86  208 1    
   172   86  209 1    
   173   87   88 2    
   174   87   89 am   BACKBONE|DICT|INTERRES
   175   89   90 1    
   176   89  210 1    
   177   90   91 1    
   178   90   92 1    
   179   90  211 1    
   180   91  212 1    
   181   91  213 1    
   182   91  214 1    
   183   92   93 2    
   184   92   94 am   BACKBONE|DICT|INTERRES
   185   94   95 1    
   186   94  215 1    
   187   95   96 1    
   188   95   97 1    
   189   95  216 1    
   190   96  217 1    
   191   96  218 1    
   192   96  219 1    
   193   97   98 2    
   194   97   99 am   BACKBONE|DICT|INTERRES
   195   99  100 1    
   196   99  220 1    
   197  100  101 1    
   198  100  102 1    
   199  100  221 1    
   200  101  222 1    
   201  101  223 1    
   202  101  224 1    
   203  102  103 2    
   204  102  104 am   BACKBONE|DICT|INTERRES
   205  104  105 1    
   206  104  225 1    
   207  105  106 1    
   208  105  107 1    
   209  105  226 1    
   210  106  227 1    
   211  106  228 1    
   212  106  229 1    
   213  107  108 2    
   214  107  109 am   BACKBONE|DICT|INTERRES
   215  109  110 1    
   216  109  230 1    
   217  110  111 1    
   218  110  112 1    
   219  110  231 1    
   220  111  232 1    
   221  111  233 1    
   222  111  234 1    
   223  112  113 2    
   224  112  114 am   BACKBONE|DICT|INTERRES
   225  114  115 1    
   226  114  235 1    
   227  115  116 1    
   228  115  117 1    
   229  115  236 1    
   230  116  237 1    
   231  116  238 1    
   232  116  239 1    
   233  117  118 2    
   234  117  119 am   BACKBONE|DICT|INTERRES
   235  119  120 1    
   236  119  240 1    
   237  120  121 1    
   238  120  124 1    
   239  120  241 1    
   240  121  122 am   BACKBONE|DICT|INTERRES
   241  121  123 2    
   242  122  242 1    
   243  122  243 1    
   244  124  125 1    
   245  124  244 1    
   246  124  245 1    
   247  125  126 1    
   248  126  246 1    
   249  126  247 1    
@<TRIPOS>SUBSTRUCTURE
     1 UNK         1 GROUP             0       ****    0 ROOT    
