@<TRIPOS>MOLECULE
3R540
247   249    1
SMALL
USER_CHARGES


@<TRIPOS>ATOM
      1 CA         -0.0613  -10.2912  -45.8093 C.3       0 UNK        -0.1800 
      2 C           1.2034  -10.7631  -46.5132 C.2       0 UNK         0.5000 
      3 O           1.9474   -9.9436  -47.0533 O.2       0 UNK        -0.5000 
      4 N           1.4415  -12.0799  -46.5155 N.am      1 UNK        -0.5000 
      5 CA          2.6292  -12.7230  -47.0905 C.3       1 UNK         0.1400 
      6 C6          2.4318  -14.2471  -47.3163 C.3       23 UNK        -0.0398 
      7 S7          0.8712  -14.6568  -48.1774 S.3       23 UNK        -0.2404 
      8 C8          1.4518  -14.9823  -49.8709 C.3       23 UNK        -0.0205 
      9 C9          1.5784  -16.4694  -50.1807 C.ar      23 UNK        -0.0193 
     10 C10         0.9230  -16.9977  -51.2950 C.ar      23 UNK        -0.1150 
     11 C11         1.0668  -18.3436  -51.6411 C.ar      23 UNK        -0.0193 
     12 C12         1.8736  -19.1721  -50.8531 C.ar      23 UNK        -0.1150 
     13 C13         2.5417  -18.6575  -49.7349 C.ar      23 UNK        -0.0193 
     14 C14         2.3854  -17.3074  -49.4041 C.ar      23 UNK        -0.1150 
     15 C15         3.5055  -19.5252  -48.9318 C.3       23 UNK        -0.0205 
     16 S16         2.7430  -21.0152  -48.2149 S.3       23 UNK        -0.2404 
     17 C17         1.6596  -20.3189  -46.9204 C.3       23 UNK        -0.0398 
     18 CA          0.3124  -21.0755  -46.8314 C.3       11 UNK         0.1400 
     19 N          -0.3820  -20.8429  -45.5615 N.am      11 UNK        -0.5000 
     20 C          -1.4692  -21.5181  -45.1577 C.2       10 UNK         0.5000 
     21 O          -1.9849  -22.4292  -45.8022 O.2       10 UNK        -0.5000 
     22 CA         -2.1290  -21.0715  -43.8411 C.3       10 UNK         0.1400 
     23 CB         -1.3333  -21.5743  -42.6286 C.3       10 UNK        -0.1800 
     24 N          -2.2946  -19.6209  -43.7671 N.am      10 UNK        -0.5000 
     25 C          -3.0459  -18.9035  -44.6158 C.2       9 UNK         0.5000 
     26 O          -3.7204  -19.3938  -45.5208 O.2       9 UNK        -0.5000 
     27 CA         -2.9949  -17.3758  -44.4579 C.3       9 UNK         0.1400 
     28 CB         -3.9708  -16.9024  -43.3704 C.3       9 UNK        -0.1800 
     29 N          -1.6488  -16.8981  -44.1490 N.am      9 UNK        -0.5000 
     30 C          -0.5991  -16.9861  -44.9776 C.2       8 UNK         0.5000 
     31 O          -0.6446  -17.4803  -46.1041 O.2       8 UNK        -0.5000 
     32 CA          0.7364  -16.4733  -44.4155 C.3       8 UNK         0.1400 
     33 CB          0.6958  -14.9418  -44.2730 C.3       8 UNK        -0.1800 
     34 N           1.0505  -17.0755  -43.1186 N.am      8 UNK        -0.5000 
     35 C           1.2433  -18.3881  -42.9090 C.2       7 UNK         0.5000 
     36 O           1.2569  -19.2240  -43.8112 O.2       7 UNK        -0.5000 
     37 CA          1.4036  -18.8654  -41.4496 C.3       7 UNK         0.1400 
     38 CB          2.8892  -18.9510  -41.0720 C.3       7 UNK        -0.1800 
     39 N           0.7165  -18.0229  -40.4720 N.am      7 UNK        -0.5000 
     40 C          -0.5916  -17.7296  -40.4644 C.2       6 UNK         0.5000 
     41 O          -1.4111  -18.2489  -41.2238 O.2       6 UNK        -0.5000 
     42 CA         -1.0450  -16.6181  -39.4917 C.3       6 UNK         0.1400 
     43 CB         -1.7094  -17.2329  -38.2512 C.3       6 UNK        -0.1800 
     44 N           0.0263  -15.7043  -39.0604 N.am      6 UNK        -0.5000 
     45 C           0.8017  -14.9731  -39.8749 C.2       5 UNK         0.5000 
     46 O           0.6996  -14.9939  -41.1040 O.2       5 UNK        -0.5000 
     47 CA          1.9106  -14.1336  -39.2222 C.3       5 UNK         0.1400 
     48 CB          2.8857  -15.0191  -38.4192 C.3       5 UNK        -0.1800 
     49 N           2.6371  -13.4391  -40.2805 N.am      5 UNK        -0.5000 
     50 C           3.4397  -12.3810  -40.1359 C.2       4 UNK         0.5000 
     51 O           3.6300  -11.8158  -39.0568 O.2       4 UNK        -0.5000 
     52 CA          4.1475  -11.8822  -41.4171 C.3       4 UNK         0.1400 
     53 CB          5.3332  -10.9419  -41.1180 C.3       4 UNK        -0.1800 
     54 N           4.5760  -12.9567  -42.3240 N.am      4 UNK        -0.5000 
     55 C           5.3858  -13.9922  -42.0384 C.2       3 UNK         0.5000 
     56 O           5.8396  -14.2271  -40.9181 O.2       3 UNK        -0.5000 
     57 CA          5.7745  -14.9216  -43.2090 C.3       3 UNK         0.1400 
     58 CB          4.8023  -16.1089  -43.2941 C.3       3 UNK        -0.1800 
     59 N           5.8107  -14.2424  -44.5056 N.am      3 UNK        -0.5000 
     60 C           6.6387  -13.2390  -44.8312 C.2       2 UNK         0.5000 
     61 O           7.5651  -12.8625  -44.1123 O.2       2 UNK        -0.5000 
     62 CA          6.3848  -12.5125  -46.1713 C.3       2 UNK         0.1400 
     63 CB          7.4624  -12.8953  -47.1981 C.3       2 UNK        -0.1800 
     64 N           5.0629  -12.7251  -46.7792 N.am      2 UNK        -0.5000 
     65 C           3.8752  -12.4648  -46.2132 C.2       1 UNK         0.5000 
     66 O           3.7460  -12.0933  -45.0425 O.2       1 UNK        -0.5000 
     67 C          -0.5918  -20.7755  -48.0421 C.2       11 UNK         0.5000 
     68 O          -0.6807  -21.6059  -48.9466 O.2       11 UNK        -0.5000 
     69 N          -1.2842  -19.6279  -48.0101 N.am      12 UNK        -0.5000 
     70 CA         -2.2118  -19.2035  -49.0574 C.3       12 UNK         0.1400 
     71 CB         -2.6947  -17.7750  -48.7690 C.3       12 UNK        -0.1800 
     72 C          -3.4007  -20.1654  -49.2497 C.2       12 UNK         0.5000 
     73 O          -3.8242  -20.3845  -50.3833 O.2       12 UNK        -0.5000 
     74 N          -3.9022  -20.7409  -48.1484 N.am      13 UNK        -0.5000 
     75 CA         -4.9371  -21.7721  -48.1624 C.3       13 UNK         0.1400 
     76 CB         -5.5633  -21.8884  -46.7647 C.3       13 UNK        -0.1800 
     77 C          -4.4066  -23.1385  -48.6335 C.2       13 UNK         0.5000 
     78 O          -5.1040  -23.8294  -49.3727 O.2       13 UNK        -0.5000 
     79 N          -3.2020  -23.5203  -48.1880 N.am      14 UNK        -0.5000 
     80 CA         -2.5827  -24.8107  -48.4941 C.3       14 UNK         0.1400 
     81 CB         -1.4022  -25.0551  -47.5421 C.3       14 UNK        -0.1800 
     82 C          -2.1229  -24.9475  -49.9556 C.2       14 UNK         0.5000 
     83 O          -2.2092  -26.0462  -50.5065 O.2       14 UNK        -0.5000 
     84 N          -1.6308  -23.8496  -50.5460 N.am      15 UNK        -0.5000 
     85 CA         -1.0921  -23.7658  -51.9044 C.3       15 UNK         0.1400 
     86 CB         -0.6315  -22.3268  -52.1677 C.3       15 UNK        -0.1800 
     87 C          -2.0918  -24.2355  -52.9789 C.2       15 UNK         0.5000 
     88 O          -3.0350  -23.5095  -53.2995 O.2       15 UNK        -0.5000 
     89 N          -1.8638  -25.4569  -53.4853 N.am      16 UNK        -0.5000 
     90 CA         -2.6958  -26.1995  -54.4411 C.3       16 UNK         0.1400 
     91 CB         -2.7264  -25.4866  -55.8104 C.3       16 UNK        -0.1800 
     92 C          -4.1017  -26.5573  -53.9025 C.2       16 UNK         0.5000 
     93 O          -5.0050  -26.8264  -54.6956 O.2       16 UNK        -0.5000 
     94 N          -4.2421  -26.5819  -52.5672 N.am      17 UNK        -0.5000 
     95 CA         -5.4651  -26.7330  -51.7717 C.3       17 UNK         0.1400 
     96 CB         -6.2075  -28.0425  -52.1078 C.3       17 UNK        -0.1800 
     97 C          -6.4004  -25.5109  -51.8642 C.2       17 UNK         0.5000 
     98 O          -6.2930  -24.6918  -52.7796 O.2       17 UNK        -0.5000 
     99 N          -7.3281  -25.4143  -50.9023 N.am      18 UNK        -0.5000 
    100 CA        -8.2227  -24.2671  -50.7044 C.3       18 UNK         0.1400 
    101 CB        -8.9718  -24.4438  -49.3750 C.3       18 UNK        -0.1800 
    102 C         -9.2116  -24.0146  -51.8597 C.2       18 UNK         0.5000 
    103 O         -9.7339  -22.9059  -51.9774 O.2       18 UNK        -0.5000 
    104 N         -9.4332  -25.0327  -52.7019 N.am      19 UNK        -0.5000 
    105 CA       -10.1939  -24.9376  -53.9469 C.3       19 UNK         0.1400 
    106 CB       -10.4592  -26.3550  -54.4770 C.3       19 UNK        -0.1800 
    107 C         -9.4894  -24.0830  -55.0210 C.2       19 UNK         0.5000 
    108 O        -10.1742  -23.4932  -55.8579 O.2       19 UNK        -0.5000 
    109 N         -8.1506  -24.0290  -54.9804 N.am      20 UNK        -0.5000 
    110 CA        -7.3241  -23.2194  -55.8724 C.3       20 UNK         0.1400 
    111 CB        -6.1415  -24.0573  -56.3757 C.3       20 UNK        -0.1800 
    112 C         -6.8166  -21.9598  -55.1563 C.2       20 UNK         0.5000 
    113 O         -6.8790  -20.8801  -55.7439 O.2       20 UNK        -0.5000 
    114 N         -6.3181  -22.1225  -53.9193 N.am      21 UNK        -0.5000 
    115 CA        -5.7717  -21.0952  -53.0233 C.3       21 UNK         0.1400 
    116 CB        -6.9206  -20.2843  -52.3926 C.3       21 UNK        -0.1800 
    117 C         -4.7176  -20.2061  -53.7187 C.2       21 UNK         0.5000 
    118 O         -4.9639  -19.0239  -53.9667 O.2       21 UNK        -0.5000 
    119 N         -3.5994  -20.8364  -54.0945 N.am      22 UNK        -0.5000 
    120 CA        -2.5152  -20.3219  -54.9525 C.3       22 UNK         0.1400 
    121 C         -2.8400  -20.3291  -56.4764 C.2       22 UNK         0.5000 
    122 N         -4.0719  -20.5619  -56.9129 N.am      22 UNK        -0.7600 
    123 O         -1.9399  -20.1448  -57.2912 O.2       22 UNK        -0.5000 
    124 C124       -1.9230  -18.9450  -54.5295 C.3       23 UNK        -0.0398 
    125 S125       -1.4160  -18.8294  -52.7804 S.3       23 UNK        -0.2404 
    126 C126        0.4000  -18.8648  -52.9068 C.3       23 UNK        -0.0205 
    127 H127       -0.7086   -9.7663  -46.5118 H         1 UNK         0.0600 
    128 H128        0.1936   -9.6062  -45.0007 H         1 UNK         0.0600 
    129 H129       -0.6237  -11.1234  -45.3850 H         1 UNK         0.0600 
    130 H130        0.7910  -12.6990  -46.0569 H         1 UNK         0.3000 
    131 H131        2.8123  -12.2631  -48.0641 H         1 UNK         0.0600 
    132 H132        2.4428  -14.7848  -46.3695 H         1 UNK         0.0800 
    133 H133        3.2698  -14.6542  -47.8834 H         1 UNK         0.0800 
    134 H134        0.7419  -14.5149  -50.5550 H         1 UNK         0.0800 
    135 H135        2.4074  -14.4899  -50.0535 H         1 UNK         0.0800 
    136 H136        0.3113  -16.3563  -51.9142 H         1 UNK         0.1150 
    137 H137        2.0070  -20.2101  -51.1233 H         1 UNK         0.1150 
    138 H138        2.9130  -16.9016  -48.5538 H         1 UNK         0.1150 
    139 H139        4.3158  -19.8373  -49.5919 H         1 UNK         0.0800 
    140 H140        3.9734  -18.9517  -48.1300 H         1 UNK         0.0800 
    141 H141        1.5018  -19.2502  -47.0782 H         1 UNK         0.0800 
    142 H142        2.1997  -20.4086  -45.9775 H         1 UNK         0.0800 
    143 H143        0.5349  -22.1447  -46.8565 H         1 UNK         0.0600 
    144 H144        0.0068  -20.1213  -44.9607 H         1 UNK         0.3000 
    145 H145       -3.1256  -21.5160  -43.7982 H         1 UNK         0.0600 
    146 H146       -1.7670  -21.2221  -41.6924 H         1 UNK         0.0600 
    147 H147       -1.3272  -22.6644  -42.5969 H         1 UNK         0.0600 
    148 H148       -0.2957  -21.2469  -42.6659 H         1 UNK         0.0600 
    149 H149       -1.8087  -19.1355  -43.0201 H         1 UNK         0.3000 
    150 H150       -3.2998  -16.9314  -45.4075 H         1 UNK         0.0600 
    151 H151       -4.9885  -17.2249  -43.5945 H         1 UNK         0.0600 
    152 H152       -3.9834  -15.8148  -43.2980 H         1 UNK         0.0600 
    153 H153       -3.7094  -17.3013  -42.3896 H         1 UNK         0.0600 
    154 H154       -1.5011  -16.5294  -43.2211 H         1 UNK         0.3000 
    155 H155        1.5262  -16.7421  -45.1199 H         1 UNK         0.0600 
    156 H156       -0.0382  -14.6216  -43.5338 H         1 UNK         0.0600 
    157 H157        0.4099  -14.4710  -45.2120 H         1 UNK         0.0600 
    158 H158        1.6649  -14.5395  -43.9779 H         1 UNK         0.0600 
    159 H159        1.0190  -16.4494  -42.3191 H         1 UNK         0.3000 
    160 H160        0.9771  -19.8661  -41.3777 H         1 UNK         0.0600 
    161 H161        3.3488  -17.9636  -41.0288 H         1 UNK         0.0600 
    162 H162        3.4468  -19.5446  -41.7979 H         1 UNK         0.0600 
    163 H163        3.0208  -19.4232  -40.0983 H         1 UNK         0.0600 
    164 H164        1.3025  -17.5472  -39.8031 H         1 UNK         0.3000 
    165 H165       -1.7914  -16.0204  -40.0188 H         1 UNK         0.0600 
    166 H166       -2.1279  -16.4620  -37.6039 H         1 UNK         0.0600 
    167 H167       -2.5280  -17.8964  -38.5339 H         1 UNK         0.0600 
    168 H168       -1.0003  -17.8179  -37.6641 H         1 UNK         0.0600 
    169 H169        0.1765  -15.6400  -38.0638 H         1 UNK         0.3000 
    170 H170        1.4406  -13.4010  -38.5634 H         1 UNK         0.0600 
    171 H171        2.3797  -15.5380  -37.6047 H         1 UNK         0.0600 
    172 H172        3.3546  -15.7733  -39.0528 H         1 UNK         0.0600 
    173 H173        3.6819  -14.4259  -37.9694 H         1 UNK         0.0600 
    174 H174        2.4694  -13.8151  -41.2053 H         1 UNK         0.3000 
    175 H175        3.4023  -11.3047  -41.9660 H         1 UNK         0.0600 
    176 H176        6.1051  -11.4411  -40.5312 H         1 UNK         0.0600 
    177 H177        5.7927  -10.5840  -42.0395 H         1 UNK         0.0600 
    178 H178        5.0087  -10.0650  -40.5567 H         1 UNK         0.0600 
    179 H179        4.2762  -12.8399  -43.2880 H         1 UNK         0.3000 
    180 H180        6.7750  -15.3094  -43.0065 H         1 UNK         0.0600 
    181 H181        3.7802  -15.7828  -43.4878 H         1 UNK         0.0600 
    182 H182        4.7974  -16.6691  -42.3592 H         1 UNK         0.0600 
    183 H183        5.0901  -16.8027  -44.0842 H         1 UNK         0.0600 
    184 H184        5.0905  -14.4899  -45.1657 H         1 UNK         0.3000 
    185 H185        6.4747  -11.4436  -45.9677 H         1 UNK         0.0600 
    186 H186        8.4636  -12.7179  -46.8026 H         1 UNK         0.0600 
    187 H187        7.3998  -13.9495  -47.4709 H         1 UNK         0.0600 
    188 H188        7.3684  -12.3049  -48.1098 H         1 UNK         0.0600 
    189 H189        5.0793  -13.0389  -47.7390 H         1 UNK         0.3000 
    190 H190       -1.1395  -18.9803  -47.2400 H         1 UNK         0.3000 
    191 H191       -1.6470  -19.1881  -49.9890 H         1 UNK         0.0600 
    192 H192       -1.8558  -17.0798  -48.7183 H         1 UNK         0.0600 
    193 H193       -3.3619  -17.4235  -49.5568 H         1 UNK         0.0600 
    194 H194       -3.2368  -17.7178  -47.8249 H         1 UNK         0.0600 
    195 H195       -3.5466  -20.4597  -47.2404 H         1 UNK         0.3000 
    196 H196       -5.7217  -21.4635  -48.8569 H         1 UNK         0.0600 
    197 H197       -6.3490  -22.6449  -46.7499 H         1 UNK         0.0600 
    198 H198       -6.0133  -20.9448  -46.4558 H         1 UNK         0.0600 
    199 H199       -4.8229  -22.1662  -46.0135 H         1 UNK         0.0600 
    200 H200       -2.7044  -22.9234  -47.5336 H         1 UNK         0.3000 
    201 H201       -3.3253  -25.5905  -48.3121 H         1 UNK         0.0600 
    202 H202       -1.7322  -25.0781  -46.5035 H         1 UNK         0.0600 
    203 H203       -0.6436  -24.2773  -47.6367 H         1 UNK         0.0600 
    204 H204       -0.9213  -26.0118  -47.7501 H         1 UNK         0.0600 
    205 H205       -1.5589  -23.0018  -49.9897 H         1 UNK         0.3000 
    206 H206       -0.2098  -24.4072  -51.9469 H         1 UNK         0.0600 
    207 H207       -1.4487  -21.6213  -52.0163 H         1 UNK         0.0600 
    208 H208        0.1817  -22.0422  -51.5001 H         1 UNK         0.0600 
    209 H209       -0.2704  -22.2083  -53.1896 H         1 UNK         0.0600 
    210 H210       -1.0792  -25.9761  -53.1157 H         1 UNK         0.3000 
    211 H211       -2.1955  -27.1572  -54.5903 H         1 UNK         0.0600 
    212 H212       -3.1885  -24.5019  -55.7496 H         1 UNK         0.0600 
    213 H213       -3.2845  -26.0654  -56.5471 H         1 UNK         0.0600 
    214 H214       -1.7186  -25.3539  -56.2033 H         1 UNK         0.0600 
    215 H215       -3.4215  -26.3453  -52.0169 H         1 UNK         0.3000 
    216 H216       -5.1269  -26.7938  -50.7360 H         1 UNK         0.0600 
    217 H217       -6.9962  -28.2425  -51.3819 H         1 UNK         0.0600 
    218 H218       -5.5300  -28.8962  -52.0903 H         1 UNK         0.0600 
    219 H219       -6.6780  -28.0067  -53.0907 H         1 UNK         0.0600 
    220 H220       -7.3586  -26.1249  -50.1860 H         1 UNK         0.3000 
    221 H221       -7.5970  -23.3755  -50.6245 H         1 UNK         0.0600 
    222 H222       -9.5898  -25.3424  -49.3783 H         1 UNK         0.0600 
    223 H223       -8.2761  -24.5144  -48.5384 H         1 UNK         0.0600 
    224 H224       -9.6272  -23.5942  -49.1784 H         1 UNK         0.0600 
    225 H225       -8.9672  -25.9087  -52.5184 H         1 UNK         0.3000 
    226 H226      -11.1546  -24.4678  -53.7255 H         1 UNK         0.0600 
    227 H227      -11.0178  -26.9492  -53.7536 H         1 UNK         0.0600 
    228 H228      -11.0480  -26.3246  -55.3948 H         1 UNK         0.0600 
    229 H229       -9.5303  -26.8815  -54.7001 H         1 UNK         0.0600 
    230 H230       -7.6603  -24.5040  -54.2297 H         1 UNK         0.3000 
    231 H231       -7.9003  -22.9025  -56.7442 H         1 UNK         0.0600 
    232 H232       -6.4812  -24.9502  -56.9005 H         1 UNK         0.0600 
    233 H233       -5.5082  -24.3758  -55.5491 H         1 UNK         0.0600 
    234 H234       -5.5192  -23.4858  -57.0653 H         1 UNK         0.0600 
    235 H235       -6.2663  -23.0713  -53.5507 H         1 UNK         0.3000 
    236 H236       -5.2616  -21.6307  -52.2211 H         1 UNK         0.0600 
    237 H237       -6.5330  -19.5516  -51.6838 H         1 UNK         0.0600 
    238 H238       -7.4967  -19.7451  -53.1452 H         1 UNK         0.0600 
    239 H239       -7.6058  -20.9333  -51.8475 H         1 UNK         0.0600 
    240 H240       -3.5019  -21.8174  -53.8360 H         1 UNK         0.3000 
    241 H241       -1.7167  -21.0552  -54.8394 H         1 UNK         0.0600 
    242 H242       -4.2451  -20.5675  -57.9054 H         1 UNK         0.3800 
    243 H243       -4.8496  -20.6452  -56.2708 H         1 UNK         0.3800 
    244 H244       -1.0649  -18.7012  -55.1574 H         1 UNK         0.0800 
    245 H245       -2.6457  -18.1497  -54.7146 H         1 UNK         0.0800 
    246 H246        0.7236  -18.2427  -53.7423 H         1 UNK         0.0800 
    247 H247        0.7267  -19.8805  -53.1319 H         1 UNK         0.0800 
@<TRIPOS>BOND
     1    1    2 1    
     2    1  127 1    
     3    1  128 1    
     4    1  129 1    
     5    2    3 2    
     6    2    4 am   BACKBONE|DICT|INTERRES
     7    4    5 1    
     8    4  130 1    
     9    5    6 1    
    10    5   65 1    
    11    5  131 1    
    12    6    7 1    
    13    6  132 1    
    14    6  133 1    
    15    7    8 1    
    16    8    9 1    
    17    8  134 1    
    18    8  135 1    
    19    9   10 ar   
    20    9   14 ar   
    21   10   11 ar   
    22   10  136 1    
    23   11   12 ar   
    24   11  126 1    
    25   12   13 ar   
    26   12  137 1    
    27   13   14 ar   
    28   13   15 1    
    29   14  138 1    
    30   15   16 1    
    31   15  139 1    
    32   15  140 1    
    33   16   17 1    
    34   17   18 1    
    35   17  141 1    
    36   17  142 1    
    37   18   19 1    
    38   18   67 1    
    39   18  143 1    
    40   19   20 am   BACKBONE|DICT|INTERRES
    41   19  144 1    
    42   20   21 2    
    43   20   22 1    
    44   22   23 1    
    45   22   24 1    
    46   22  145 1    
    47   23  146 1    
    48   23  147 1    
    49   23  148 1    
    50   24   25 am   BACKBONE|DICT|INTERRES
    51   24  149 1    
    52   25   26 2    
    53   25   27 1    
    54   27   28 1    
    55   27   29 1    
    56   27  150 1    
    57   28  151 1    
    58   28  152 1    
    59   28  153 1    
    60   29   30 am   BACKBONE|DICT|INTERRES
    61   29  154 1    
    62   30   31 2    
    63   30   32 1    
    64   32   33 1    
    65   32   34 1    
    66   32  155 1    
    67   33  156 1    
    68   33  157 1    
    69   33  158 1    
    70   34   35 am   BACKBONE|DICT|INTERRES
    71   34  159 1    
    72   35   36 2    
    73   35   37 1    
    74   37   38 1    
    75   37   39 1    
    76   37  160 1    
    77   38  161 1    
    78   38  162 1    
    79   38  163 1    
    80   39   40 am   BACKBONE|DICT|INTERRES
    81   39  164 1    
    82   40   41 2    
    83   40   42 1    
    84   42   43 1    
    85   42   44 1    
    86   42  165 1    
    87   43  166 1    
    88   43  167 1    
    89   43  168 1    
    90   44   45 am   BACKBONE|DICT|INTERRES
    91   44  169 1    
    92   45   46 2    
    93   45   47 1    
    94   47   48 1    
    95   47   49 1    
    96   47  170 1    
    97   48  171 1    
    98   48  172 1    
    99   48  173 1    
   100   49   50 am   BACKBONE|DICT|INTERRES
   101   49  174 1    
   102   50   51 2    
   103   50   52 1    
   104   52   53 1    
   105   52   54 1    
   106   52  175 1    
   107   53  176 1    
   108   53  177 1    
   109   53  178 1    
   110   54   55 am   BACKBONE|DICT|INTERRES
   111   54  179 1    
   112   55   56 2    
   113   55   57 1    
   114   57   58 1    
   115   57   59 1    
   116   57  180 1    
   117   58  181 1    
   118   58  182 1    
   119   58  183 1    
   120   59   60 am   BACKBONE|DICT|INTERRES
   121   59  184 1    
   122   60   61 2    
   123   60   62 1    
   124   62   63 1    
   125   62   64 1    
   126   62  185 1    
   127   63  186 1    
   128   63  187 1    
   129   63  188 1    
   130   64   65 am   BACKBONE|DICT|INTERRES
   131   64  189 1    
   132   65   66 2    
   133   67   68 2    
   134   67   69 am   BACKBONE|DICT|INTERRES
   135   69   70 1    
   136   69  190 1    
   137   70   71 1    
   138   70   72 1    
   139   70  191 1    
   140   71  192 1    
   141   71  193 1    
   142   71  194 1    
   143   72   73 2    
   144   72   74 am   BACKBONE|DICT|INTERRES
   145   74   75 1    
   146   74  195 1    
   147   75   76 1    
   148   75   77 1    
   149   75  196 1    
   150   76  197 1    
   151   76  198 1    
   152   76  199 1    
   153   77   78 2    
   154   77   79 am   BACKBONE|DICT|INTERRES
   155   79   80 1    
   156   79  200 1    
   157   80   81 1    
   158   80   82 1    
   159   80  201 1    
   160   81  202 1    
   161   81  203 1    
   162   81  204 1    
   163   82   83 2    
   164   82   84 am   BACKBONE|DICT|INTERRES
   165   84   85 1    
   166   84  205 1    
   167   85   86 1    
   168   85   87 1    
   169   85  206 1    
   170   86  207 1    
   171   86  208 1    
   172   86  209 1    
   173   87   88 2    
   174   87   89 am   BACKBONE|DICT|INTERRES
   175   89   90 1    
   176   89  210 1    
   177   90   91 1    
   178   90   92 1    
   179   90  211 1    
   180   91  212 1    
   181   91  213 1    
   182   91  214 1    
   183   92   93 2    
   184   92   94 am   BACKBONE|DICT|INTERRES
   185   94   95 1    
   186   94  215 1    
   187   95   96 1    
   188   95   97 1    
   189   95  216 1    
   190   96  217 1    
   191   96  218 1    
   192   96  219 1    
   193   97   98 2    
   194   97   99 am   BACKBONE|DICT|INTERRES
   195   99  100 1    
   196   99  220 1    
   197  100  101 1    
   198  100  102 1    
   199  100  221 1    
   200  101  222 1    
   201  101  223 1    
   202  101  224 1    
   203  102  103 2    
   204  102  104 am   BACKBONE|DICT|INTERRES
   205  104  105 1    
   206  104  225 1    
   207  105  106 1    
   208  105  107 1    
   209  105  226 1    
   210  106  227 1    
   211  106  228 1    
   212  106  229 1    
   213  107  108 2    
   214  107  109 am   BACKBONE|DICT|INTERRES
   215  109  110 1    
   216  109  230 1    
   217  110  111 1    
   218  110  112 1    
   219  110  231 1    
   220  111  232 1    
   221  111  233 1    
   222  111  234 1    
   223  112  113 2    
   224  112  114 am   BACKBONE|DICT|INTERRES
   225  114  115 1    
   226  114  235 1    
   227  115  116 1    
   228  115  117 1    
   229  115  236 1    
   230  116  237 1    
   231  116  238 1    
   232  116  239 1    
   233  117  118 2    
   234  117  119 am   BACKBONE|DICT|INTERRES
   235  119  120 1    
   236  119  240 1    
   237  120  121 1    
   238  120  124 1    
   239  120  241 1    
   240  121  122 am   BACKBONE|DICT|INTERRES
   241  121  123 2    
   242  122  242 1    
   243  122  243 1    
   244  124  125 1    
   245  124  244 1    
   246  124  245 1    
   247  125  126 1    
   248  126  246 1    
   249  126  247 1    
@<TRIPOS>SUBSTRUCTURE
     1 UNK         1 GROUP             0       ****    0 ROOT    
