@<TRIPOS>MOLECULE
3R540
247   249    1
SMALL
USER_CHARGES


@<TRIPOS>ATOM
      1 CA         -1.2448  -15.2271  -49.6517 C.3       0 UNK        -0.1800 
      2 C           0.1056  -14.7986  -49.0972 C.2       0 UNK         0.5000 
      3 O           0.7865  -15.5925  -48.4458 O.2       0 UNK        -0.5000 
      4 N           0.4833  -13.5390  -49.3522 N.am      1 UNK        -0.5000 
      5 CA          1.7561  -12.9188  -48.9614 C.3       1 UNK         0.1400 
      6 C6          2.9780  -13.5657  -49.6807 C.3       23 UNK        -0.0398 
      7 S7          2.8738  -13.4298  -51.4967 S.3       23 UNK        -0.2404 
      8 C8          3.2911  -15.1230  -52.0325 C.3       23 UNK        -0.0205 
      9 C9          2.1199  -16.0967  -51.9602 C.ar      23 UNK        -0.0193 
     10 C10         0.9110  -15.7956  -52.5969 C.ar      23 UNK        -0.1150 
     11 C11        -0.1394  -16.7182  -52.6121 C.ar      23 UNK        -0.0193 
     12 C12         0.0295  -17.9508  -51.9738 C.ar      23 UNK        -0.1150 
     13 C13         1.2251  -18.2667  -51.3256 C.ar      23 UNK        -0.0193 
     14 C14         2.2674  -17.3334  -51.3212 C.ar      23 UNK        -0.1150 
     15 C15         1.4094  -19.6464  -50.7036 C.3       23 UNK        -0.0205 
     16 S16         1.6841  -19.6077  -48.9035 S.3       23 UNK        -0.2404 
     17 C17         0.0143  -19.2942  -48.2320 C.3       23 UNK        -0.0398 
     18 CA         -0.8358  -20.5803  -48.0419 C.3       11 UNK         0.1400 
     19 N          -0.0868  -21.6662  -47.3978 N.am      11 UNK        -0.5000 
     20 C          -0.5582  -22.8735  -47.0516 C.2       10 UNK         0.5000 
     21 O          -1.7067  -23.2582  -47.2787 O.2       10 UNK        -0.5000 
     22 CA          0.3934  -23.7892  -46.2605 C.3       10 UNK         0.1400 
     23 CB          1.0998  -24.7621  -47.2151 C.3       10 UNK        -0.1800 
     24 N           1.4006  -23.0909  -45.4502 N.am      10 UNK        -0.5000 
     25 C           1.1693  -22.1396  -44.5333 C.2       9 UNK         0.5000 
     26 O           0.0599  -21.6441  -44.3141 O.2       9 UNK        -0.5000 
     27 CA          2.4044  -21.6067  -43.7908 C.3       9 UNK         0.1400 
     28 CB          3.0355  -20.4624  -44.5909 C.3       9 UNK        -0.1800 
     29 N           2.0550  -21.1219  -42.4568 N.am      9 UNK        -0.5000 
     30 C           1.8282  -21.9201  -41.4052 C.2       8 UNK         0.5000 
     31 O           1.9356  -23.1467  -41.4473 O.2       8 UNK        -0.5000 
     32 CA          1.4406  -21.2481  -40.0743 C.3       8 UNK         0.1400 
     33 CB          2.6714  -21.1169  -39.1638 C.3       8 UNK        -0.1800 
     34 N           0.8313  -19.9270  -40.2275 N.am      8 UNK        -0.5000 
     35 C          -0.4078  -19.6947  -40.6736 C.2       7 UNK         0.5000 
     36 O          -1.1670  -20.5843  -41.0554 O.2       7 UNK        -0.5000 
     37 CA         -0.9028  -18.2348  -40.6948 C.3       7 UNK         0.1400 
     38 CB         -1.7836  -17.9349  -39.4676 C.3       7 UNK        -0.1800 
     39 N           0.1316  -17.2049  -40.8626 N.am      7 UNK        -0.5000 
     40 C           1.1098  -16.8231  -40.0282 C.2       6 UNK         0.5000 
     41 O           1.3646  -17.3941  -38.9678 O.2       6 UNK        -0.5000 
     42 CA          1.9631  -15.6088  -40.4511 C.3       6 UNK         0.1400 
     43 CB          3.3672  -16.0618  -40.8811 C.3       6 UNK        -0.1800 
     44 N           1.3621  -14.8259  -41.5336 N.am      6 UNK        -0.5000 
     45 C           0.2988  -14.0189  -41.4057 C.2       5 UNK         0.5000 
     46 O          -0.2444  -13.7697  -40.3292 O.2       5 UNK        -0.5000 
     47 CA         -0.2831  -13.4280  -42.7062 C.3       5 UNK         0.1400 
     48 CB          0.4145  -12.1087  -43.0672 C.3       5 UNK        -0.1800 
     49 N          -0.2027  -14.3598  -43.8363 N.am      5 UNK        -0.5000 
     50 C          -0.8844  -15.5134  -43.9082 C.2       4 UNK         0.5000 
     51 O          -1.6862  -15.8833  -43.0520 O.2       4 UNK        -0.5000 
     52 CA         -0.6034  -16.4310  -45.1109 C.3       4 UNK         0.1400 
     53 CB         -1.5820  -16.1267  -46.2503 C.3       4 UNK        -0.1800 
     54 N           0.7786  -16.3422  -45.5858 N.am      4 UNK        -0.5000 
     55 C           1.8231  -16.8065  -44.8838 C.2       3 UNK         0.5000 
     56 O           1.7104  -17.3743  -43.7967 O.2       3 UNK        -0.5000 
     57 CA          3.2272  -16.5462  -45.4589 C.3       3 UNK         0.1400 
     58 CB          3.4954  -17.3941  -46.7109 C.3       3 UNK        -0.1800 
     59 N           3.4398  -15.1419  -45.7944 N.am      3 UNK        -0.5000 
     60 C           3.3901  -14.1127  -44.9375 C.2       2 UNK         0.5000 
     61 O           3.2050  -14.2381  -43.7285 O.2       2 UNK        -0.5000 
     62 CA          3.5448  -12.7018  -45.5413 C.3       2 UNK         0.1400 
     63 CB          4.9900  -12.2066  -45.3852 C.3       2 UNK        -0.1800 
     64 N           3.1669  -12.6440  -46.9559 N.am      2 UNK        -0.5000 
     65 C           1.9252  -12.8480  -47.4205 C.2       1 UNK         0.5000 
     66 O           0.9504  -12.9814  -46.6735 O.2       1 UNK        -0.5000 
     67 C          -2.1552  -20.2645  -47.3026 C.2       11 UNK         0.5000 
     68 O          -3.1780  -20.0659  -47.9589 O.2       11 UNK        -0.5000 
     69 N          -2.1122  -20.3031  -45.9623 N.am      12 UNK        -0.5000 
     70 CA         -3.2771  -20.1973  -45.0879 C.3       12 UNK         0.1400 
     71 CB         -2.9953  -19.1705  -43.9825 C.3       12 UNK        -0.1800 
     72 C          -3.6440  -21.5553  -44.4679 C.2       12 UNK         0.5000 
     73 O          -4.8209  -21.9139  -44.4753 O.2       12 UNK        -0.5000 
     74 N          -2.6501  -22.2919  -43.9477 N.am      13 UNK        -0.5000 
     75 CA         -2.8425  -23.5040  -43.1417 C.3       13 UNK         0.1400 
     76 CB         -1.5030  -23.9313  -42.5227 C.3       13 UNK        -0.1800 
     77 C          -3.4816  -24.6837  -43.8966 C.2       13 UNK         0.5000 
     78 O          -4.2188  -25.4592  -43.2869 O.2       13 UNK        -0.5000 
     79 N          -3.2063  -24.7864  -45.2019 N.am      14 UNK        -0.5000 
     80 CA         -3.8158  -25.7556  -46.1152 C.3       14 UNK         0.1400 
     81 CB         -2.6945  -26.5247  -46.8361 C.3       14 UNK        -0.1800 
     82 C          -4.7476  -25.0565  -47.1253 C.2       14 UNK         0.5000 
     83 O          -5.2416  -25.7127  -48.0427 O.2       14 UNK        -0.5000 
     84 N          -4.9474  -23.7385  -46.9556 N.am      15 UNK        -0.5000 
     85 CA         -5.6715  -22.8139  -47.8322 C.3       15 UNK         0.1400 
     86 CB         -7.1853  -23.1056  -47.7991 C.3       15 UNK        -0.1800 
     87 C          -5.1084  -22.7671  -49.2678 C.2       15 UNK         0.5000 
     88 O          -5.8586  -22.5062  -50.2112 O.2       15 UNK        -0.5000 
     89 N          -3.7970  -23.0108  -49.4235 N.am      16 UNK        -0.5000 
     90 CA         -3.1305  -23.1422  -50.7212 C.3       16 UNK         0.1400 
     91 CB         -1.7004  -23.6697  -50.5313 C.3       16 UNK        -0.1800 
     92 C          -3.1450  -21.8612  -51.5743 C.2       16 UNK         0.5000 
     93 O          -2.9868  -21.9632  -52.7870 O.2       16 UNK        -0.5000 
     94 N          -3.3759  -20.6945  -50.9537 N.am      17 UNK        -0.5000 
     95 CA         -3.5838  -19.4232  -51.6478 C.3       17 UNK         0.1400 
     96 CB         -3.4319  -18.2713  -50.6436 C.3       17 UNK        -0.1800 
     97 C          -4.9375  -19.3212  -52.3748 C.2       17 UNK         0.5000 
     98 O          -5.0558  -18.5092  -53.2927 O.2       17 UNK        -0.5000 
     99 N          -5.9247  -20.1187  -51.9465 N.am      18 UNK        -0.5000 
    100 CA        -7.2609  -20.1809  -52.5350 C.3       18 UNK         0.1400 
    101 CB        -8.3069  -20.1158  -51.4104 C.3       18 UNK        -0.1800 
    102 C         -7.4404  -21.4635  -53.3616 C.2       18 UNK         0.5000 
    103 O         -8.0437  -21.4140  -54.4340 O.2       18 UNK        -0.5000 
    104 N         -6.9205  -22.5893  -52.8520 N.am      19 UNK        -0.5000 
    105 CA        -7.0156  -23.9086  -53.4794 C.3       19 UNK         0.1400 
    106 CB        -6.7001  -24.9817  -52.4256 C.3       19 UNK        -0.1800 
    107 C         -6.1042  -24.0760  -54.7111 C.2       19 UNK         0.5000 
    108 O         -6.3804  -24.9326  -55.5523 O.2       19 UNK        -0.5000 
    109 N         -5.0416  -23.2701  -54.7972 N.am      20 UNK        -0.5000 
    110 CA        -4.0635  -23.2499  -55.8785 C.3       20 UNK         0.1400 
    111 CB        -3.0375  -24.3865  -55.6742 C.3       20 UNK        -0.1800 
    112 C         -3.4331  -21.8459  -55.9335 C.2       20 UNK         0.5000 
    113 O         -4.1017  -20.8717  -55.5761 O.2       20 UNK        -0.5000 
    114 N         -2.1643  -21.7705  -56.3645 N.am      21 UNK        -0.5000 
    115 CA        -1.2871  -20.5953  -56.3769 C.3       21 UNK         0.1400 
    116 CB        -0.7860  -20.2980  -54.9448 C.3       21 UNK        -0.1800 
    117 C         -1.9277  -19.3766  -57.0718 C.2       21 UNK         0.5000 
    118 O         -1.9819  -19.3407  -58.3023 O.2       21 UNK        -0.5000 
    119 N         -2.3963  -18.4135  -56.2723 N.am      22 UNK        -0.5000 
    120 CA        -3.0579  -17.1793  -56.7157 C.3       22 UNK         0.1400 
    121 C         -4.5301  -17.3756  -57.1839 C.2       22 UNK         0.5000 
    122 N         -5.1634  -18.5183  -56.9455 N.am      22 UNK        -0.7600 
    123 O         -5.1060  -16.4729  -57.7854 O.2       22 UNK        -0.5000 
    124 C124       -2.9658  -16.0599  -55.6447 C.3       23 UNK        -0.0398 
    125 S125       -1.2670  -15.8124  -55.0111 S.3       23 UNK        -0.2404 
    126 C126       -1.4632  -16.3880  -53.2929 C.3       23 UNK        -0.0205 
    127 H127       -2.0349  -15.0524  -48.9231 H         1 UNK         0.0600 
    128 H128       -1.2286  -16.2883  -49.8934 H         1 UNK         0.0600 
    129 H129       -1.4897  -14.6758  -50.5590 H         1 UNK         0.0600 
    130 H130       -0.1438  -12.9369  -49.8651 H         1 UNK         0.3000 
    131 H131        1.6925  -11.8800  -49.2885 H         1 UNK         0.0600 
    132 H132        3.9120  -13.0776  -49.4017 H         1 UNK         0.0800 
    133 H133        3.0827  -14.6133  -49.3939 H         1 UNK         0.0800 
    134 H134        4.1409  -15.4861  -51.4524 H         1 UNK         0.0800 
    135 H135        3.6292  -15.0799  -53.0686 H         1 UNK         0.0800 
    136 H136        0.7927  -14.8441  -53.0960 H         1 UNK         0.1150 
    137 H137       -0.7643  -18.6794  -51.9893 H         1 UNK         0.1150 
    138 H138        3.2018  -17.5847  -50.8395 H         1 UNK         0.1150 
    139 H139        0.5591  -20.2943  -50.9221 H         1 UNK         0.0800 
    140 H140        2.2740  -20.1192  -51.1712 H         1 UNK         0.0800 
    141 H141       -0.4971  -18.5788  -48.8768 H         1 UNK         0.0800 
    142 H142        0.1541  -18.7874  -47.2754 H         1 UNK         0.0800 
    143 H143       -1.1099  -20.9341  -49.0352 H         1 UNK         0.0600 
    144 H144        0.8758  -21.4565  -47.1782 H         1 UNK         0.3000 
    145 H145       -0.2227  -24.3761  -45.5781 H         1 UNK         0.0600 
    146 H146        0.3780  -25.3110  -47.8218 H         1 UNK         0.0600 
    147 H147        1.6854  -25.4995  -46.6660 H         1 UNK         0.0600 
    148 H148        1.7708  -24.2391  -47.8978 H         1 UNK         0.0600 
    149 H149        2.3514  -23.4074  -45.5757 H         1 UNK         0.3000 
    150 H150        3.1386  -22.4092  -43.6912 H         1 UNK         0.0600 
    151 H151        2.2947  -19.6994  -44.8239 H         1 UNK         0.0600 
    152 H152        3.4405  -20.8231  -45.5371 H         1 UNK         0.0600 
    153 H153        3.8517  -19.9894  -44.0444 H         1 UNK         0.0600 
    154 H154        1.8939  -20.1302  -42.3573 H         1 UNK         0.3000 
    155 H155        0.7181  -21.9001  -39.5788 H         1 UNK         0.0600 
    156 H156        3.4234  -20.4569  -39.5983 H         1 UNK         0.0600 
    157 H157        3.1413  -22.0871  -38.9972 H         1 UNK         0.0600 
    158 H158        2.3985  -20.7170  -38.1870 H         1 UNK         0.0600 
    159 H159        1.3486  -19.1335  -39.8644 H         1 UNK         0.3000 
    160 H160       -1.5403  -18.1443  -41.5736 H         1 UNK         0.0600 
    161 H161       -1.2267  -18.0232  -38.5345 H         1 UNK         0.0600 
    162 H162       -2.6226  -18.6297  -39.4123 H         1 UNK         0.0600 
    163 H163       -2.1986  -16.9281  -39.5186 H         1 UNK         0.0600 
    164 H164        0.0519  -16.6800  -41.7234 H         1 UNK         0.3000 
    165 H165        2.0666  -14.9631  -39.5768 H         1 UNK         0.0600 
    166 H166        3.9995  -15.2073  -41.1229 H         1 UNK         0.0600 
    167 H167        3.8626  -16.6166  -40.0834 H         1 UNK         0.0600 
    168 H168        3.3316  -16.7087  -41.7579 H         1 UNK         0.0600 
    169 H169        1.8003  -14.9114  -42.4454 H         1 UNK         0.3000 
    170 H170       -1.3393  -13.2128  -42.5308 H         1 UNK         0.0600 
    171 H171        0.0505  -11.7103  -44.0146 H         1 UNK         0.0600 
    172 H172        1.4937  -12.2320  -43.1433 H         1 UNK         0.0600 
    173 H173        0.2297  -11.3535  -42.3025 H         1 UNK         0.0600 
    174 H174        0.4178  -14.1136  -44.5964 H         1 UNK         0.3000 
    175 H175       -0.7715  -17.4602  -44.7894 H         1 UNK         0.0600 
    176 H176       -2.6152  -16.2497  -45.9238 H         1 UNK         0.0600 
    177 H177       -1.4713  -15.0995  -46.5981 H         1 UNK         0.0600 
    178 H178       -1.4285  -16.7968  -47.0955 H         1 UNK         0.0600 
    179 H179        0.9290  -15.9080  -46.4930 H         1 UNK         0.3000 
    180 H180        3.9555  -16.8235  -44.6940 H         1 UNK         0.0600 
    181 H181        2.8396  -17.1151  -47.5363 H         1 UNK         0.0600 
    182 H182        3.3402  -18.4537  -46.5169 H         1 UNK         0.0600 
    183 H183        4.5242  -17.2784  -47.0515 H         1 UNK         0.0600 
    184 H184        3.5833  -14.9356  -46.7705 H         1 UNK         0.3000 
    185 H185        2.8910  -12.0255  -44.9887 H         1 UNK         0.0600 
    186 H186        5.2924  -12.2118  -44.3370 H         1 UNK         0.0600 
    187 H187        5.6935  -12.8352  -45.9326 H         1 UNK         0.0600 
    188 H188        5.0988  -11.1842  -45.7477 H         1 UNK         0.0600 
    189 H189        3.9211  -12.4928  -47.6095 H         1 UNK         0.3000 
    190 H190       -1.2391  -20.5601  -45.5145 H         1 UNK         0.3000 
    191 H191       -4.1476  -19.8504  -45.6489 H         1 UNK         0.0600 
    192 H192       -2.9744  -18.1596  -44.3857 H         1 UNK         0.0600 
    193 H193       -3.7685  -19.1898  -43.2131 H         1 UNK         0.0600 
    194 H194       -2.0394  -19.3643  -43.4959 H         1 UNK         0.0600 
    195 H195       -1.6954  -21.9412  -43.9917 H         1 UNK         0.3000 
    196 H196       -3.5170  -23.2415  -42.3240 H         1 UNK         0.0600 
    197 H197       -1.6332  -24.7894  -41.8624 H         1 UNK         0.0600 
    198 H198       -1.0690  -23.1291  -41.9268 H         1 UNK         0.0600 
    199 H199       -0.7751  -24.2123  -43.2828 H         1 UNK         0.0600 
    200 H200       -2.6062  -24.0959  -45.6385 H         1 UNK         0.3000 
    201 H201       -4.4244  -26.4770  -45.5667 H         1 UNK         0.0600 
    202 H202       -3.1042  -27.3221  -47.4570 H         1 UNK         0.0600 
    203 H203       -2.0121  -26.9880  -46.1234 H         1 UNK         0.0600 
    204 H204       -2.1098  -25.8743  -47.4864 H         1 UNK         0.0600 
    205 H205       -4.5494  -23.3138  -46.1282 H         1 UNK         0.3000 
    206 H206       -5.5165  -21.8171  -47.4169 H         1 UNK         0.0600 
    207 H207       -7.5600  -23.1251  -46.7757 H         1 UNK         0.0600 
    208 H208       -7.7447  -22.3368  -48.3333 H         1 UNK         0.0600 
    209 H209       -7.4225  -24.0636  -48.2629 H         1 UNK         0.0600 
    210 H210       -3.2273  -23.1841  -48.6013 H         1 UNK         0.3000 
    211 H211       -3.6802  -23.8975  -51.2849 H         1 UNK         0.0600 
    212 H212       -1.0590  -22.9477  -50.0306 H         1 UNK         0.0600 
    213 H213       -1.2409  -23.8948  -51.4945 H         1 UNK         0.0600 
    214 H214       -1.6922  -24.5892  -49.9457 H         1 UNK         0.0600 
    215 H215       -3.4957  -20.6860  -49.9467 H         1 UNK         0.3000 
    216 H216       -2.8143  -19.3270  -52.4116 H         1 UNK         0.0600 
    217 H217       -3.5172  -17.3025  -51.1370 H         1 UNK         0.0600 
    218 H218       -2.4612  -18.3037  -50.1528 H         1 UNK         0.0600 
    219 H219       -4.1982  -18.3120  -49.8685 H         1 UNK         0.0600 
    220 H220       -5.7326  -20.7794  -51.2017 H         1 UNK         0.3000 
    221 H221       -7.4278  -19.3305  -53.1995 H         1 UNK         0.0600 
    222 H222       -8.1980  -20.9422  -50.7067 H         1 UNK         0.0600 
    223 H223       -8.2212  -19.1856  -50.8486 H         1 UNK         0.0600 
    224 H224       -9.3187  -20.1595  -51.8153 H         1 UNK         0.0600 
    225 H225       -6.4833  -22.5577  -51.9341 H         1 UNK         0.3000 
    226 H226       -8.0455  -24.0545  -53.8121 H         1 UNK         0.0600 
    227 H227       -6.8148  -25.9837  -52.8408 H         1 UNK         0.0600 
    228 H228       -5.6786  -24.8949  -52.0561 H         1 UNK         0.0600 
    229 H229       -7.3715  -24.9051  -51.5699 H         1 UNK         0.0600 
    230 H230       -4.9001  -22.5540  -54.0948 H         1 UNK         0.3000 
    231 H231       -4.5804  -23.4021  -56.8279 H         1 UNK         0.0600 
    232 H232       -2.4424  -24.2282  -54.7735 H         1 UNK         0.0600 
    233 H233       -2.3543  -24.4677  -56.5200 H         1 UNK         0.0600 
    234 H234       -3.5311  -25.3535  -55.5776 H         1 UNK         0.0600 
    235 H235       -1.7272  -22.6291  -56.6664 H         1 UNK         0.3000 
    236 H236       -0.4163  -20.8636  -56.9769 H         1 UNK         0.0600 
    237 H237       -1.6073  -20.1056  -54.2559 H         1 UNK         0.0600 
    238 H238       -0.2216  -21.1415  -54.5473 H         1 UNK         0.0600 
    239 H239       -0.1242  -19.4307  -54.9269 H         1 UNK         0.0600 
    240 H240       -2.3490  -18.5552  -55.2757 H         1 UNK         0.3000 
    241 H241       -2.5136  -16.8248  -57.5932 H         1 UNK         0.0600 
    242 H242       -6.1150  -18.6319  -57.2542 H         1 UNK         0.3800 
    243 H243       -4.7117  -19.2665  -56.4245 H         1 UNK         0.3800 
    244 H244       -3.6409  -16.2734  -54.8137 H         1 UNK         0.0800 
    245 H245       -3.3034  -15.1114  -56.0658 H         1 UNK         0.0800 
    246 H246       -2.1091  -17.2652  -53.2933 H         1 UNK         0.0800 
    247 H247       -1.9832  -15.6212  -52.7185 H         1 UNK         0.0800 
@<TRIPOS>BOND
     1    1    2 1    
     2    1  127 1    
     3    1  128 1    
     4    1  129 1    
     5    2    3 2    
     6    2    4 am   BACKBONE|DICT|INTERRES
     7    4    5 1    
     8    4  130 1    
     9    5    6 1    
    10    5   65 1    
    11    5  131 1    
    12    6    7 1    
    13    6  132 1    
    14    6  133 1    
    15    7    8 1    
    16    8    9 1    
    17    8  134 1    
    18    8  135 1    
    19    9   10 ar   
    20    9   14 ar   
    21   10   11 ar   
    22   10  136 1    
    23   11   12 ar   
    24   11  126 1    
    25   12   13 ar   
    26   12  137 1    
    27   13   14 ar   
    28   13   15 1    
    29   14  138 1    
    30   15   16 1    
    31   15  139 1    
    32   15  140 1    
    33   16   17 1    
    34   17   18 1    
    35   17  141 1    
    36   17  142 1    
    37   18   19 1    
    38   18   67 1    
    39   18  143 1    
    40   19   20 am   BACKBONE|DICT|INTERRES
    41   19  144 1    
    42   20   21 2    
    43   20   22 1    
    44   22   23 1    
    45   22   24 1    
    46   22  145 1    
    47   23  146 1    
    48   23  147 1    
    49   23  148 1    
    50   24   25 am   BACKBONE|DICT|INTERRES
    51   24  149 1    
    52   25   26 2    
    53   25   27 1    
    54   27   28 1    
    55   27   29 1    
    56   27  150 1    
    57   28  151 1    
    58   28  152 1    
    59   28  153 1    
    60   29   30 am   BACKBONE|DICT|INTERRES
    61   29  154 1    
    62   30   31 2    
    63   30   32 1    
    64   32   33 1    
    65   32   34 1    
    66   32  155 1    
    67   33  156 1    
    68   33  157 1    
    69   33  158 1    
    70   34   35 am   BACKBONE|DICT|INTERRES
    71   34  159 1    
    72   35   36 2    
    73   35   37 1    
    74   37   38 1    
    75   37   39 1    
    76   37  160 1    
    77   38  161 1    
    78   38  162 1    
    79   38  163 1    
    80   39   40 am   BACKBONE|DICT|INTERRES
    81   39  164 1    
    82   40   41 2    
    83   40   42 1    
    84   42   43 1    
    85   42   44 1    
    86   42  165 1    
    87   43  166 1    
    88   43  167 1    
    89   43  168 1    
    90   44   45 am   BACKBONE|DICT|INTERRES
    91   44  169 1    
    92   45   46 2    
    93   45   47 1    
    94   47   48 1    
    95   47   49 1    
    96   47  170 1    
    97   48  171 1    
    98   48  172 1    
    99   48  173 1    
   100   49   50 am   BACKBONE|DICT|INTERRES
   101   49  174 1    
   102   50   51 2    
   103   50   52 1    
   104   52   53 1    
   105   52   54 1    
   106   52  175 1    
   107   53  176 1    
   108   53  177 1    
   109   53  178 1    
   110   54   55 am   BACKBONE|DICT|INTERRES
   111   54  179 1    
   112   55   56 2    
   113   55   57 1    
   114   57   58 1    
   115   57   59 1    
   116   57  180 1    
   117   58  181 1    
   118   58  182 1    
   119   58  183 1    
   120   59   60 am   BACKBONE|DICT|INTERRES
   121   59  184 1    
   122   60   61 2    
   123   60   62 1    
   124   62   63 1    
   125   62   64 1    
   126   62  185 1    
   127   63  186 1    
   128   63  187 1    
   129   63  188 1    
   130   64   65 am   BACKBONE|DICT|INTERRES
   131   64  189 1    
   132   65   66 2    
   133   67   68 2    
   134   67   69 am   BACKBONE|DICT|INTERRES
   135   69   70 1    
   136   69  190 1    
   137   70   71 1    
   138   70   72 1    
   139   70  191 1    
   140   71  192 1    
   141   71  193 1    
   142   71  194 1    
   143   72   73 2    
   144   72   74 am   BACKBONE|DICT|INTERRES
   145   74   75 1    
   146   74  195 1    
   147   75   76 1    
   148   75   77 1    
   149   75  196 1    
   150   76  197 1    
   151   76  198 1    
   152   76  199 1    
   153   77   78 2    
   154   77   79 am   BACKBONE|DICT|INTERRES
   155   79   80 1    
   156   79  200 1    
   157   80   81 1    
   158   80   82 1    
   159   80  201 1    
   160   81  202 1    
   161   81  203 1    
   162   81  204 1    
   163   82   83 2    
   164   82   84 am   BACKBONE|DICT|INTERRES
   165   84   85 1    
   166   84  205 1    
   167   85   86 1    
   168   85   87 1    
   169   85  206 1    
   170   86  207 1    
   171   86  208 1    
   172   86  209 1    
   173   87   88 2    
   174   87   89 am   BACKBONE|DICT|INTERRES
   175   89   90 1    
   176   89  210 1    
   177   90   91 1    
   178   90   92 1    
   179   90  211 1    
   180   91  212 1    
   181   91  213 1    
   182   91  214 1    
   183   92   93 2    
   184   92   94 am   BACKBONE|DICT|INTERRES
   185   94   95 1    
   186   94  215 1    
   187   95   96 1    
   188   95   97 1    
   189   95  216 1    
   190   96  217 1    
   191   96  218 1    
   192   96  219 1    
   193   97   98 2    
   194   97   99 am   BACKBONE|DICT|INTERRES
   195   99  100 1    
   196   99  220 1    
   197  100  101 1    
   198  100  102 1    
   199  100  221 1    
   200  101  222 1    
   201  101  223 1    
   202  101  224 1    
   203  102  103 2    
   204  102  104 am   BACKBONE|DICT|INTERRES
   205  104  105 1    
   206  104  225 1    
   207  105  106 1    
   208  105  107 1    
   209  105  226 1    
   210  106  227 1    
   211  106  228 1    
   212  106  229 1    
   213  107  108 2    
   214  107  109 am   BACKBONE|DICT|INTERRES
   215  109  110 1    
   216  109  230 1    
   217  110  111 1    
   218  110  112 1    
   219  110  231 1    
   220  111  232 1    
   221  111  233 1    
   222  111  234 1    
   223  112  113 2    
   224  112  114 am   BACKBONE|DICT|INTERRES
   225  114  115 1    
   226  114  235 1    
   227  115  116 1    
   228  115  117 1    
   229  115  236 1    
   230  116  237 1    
   231  116  238 1    
   232  116  239 1    
   233  117  118 2    
   234  117  119 am   BACKBONE|DICT|INTERRES
   235  119  120 1    
   236  119  240 1    
   237  120  121 1    
   238  120  124 1    
   239  120  241 1    
   240  121  122 am   BACKBONE|DICT|INTERRES
   241  121  123 2    
   242  122  242 1    
   243  122  243 1    
   244  124  125 1    
   245  124  244 1    
   246  124  245 1    
   247  125  126 1    
   248  126  246 1    
   249  126  247 1    
@<TRIPOS>SUBSTRUCTURE
     1 UNK         1 GROUP             0       ****    0 ROOT    
