@<TRIPOS>MOLECULE
3R540
247   249    1
SMALL
USER_CHARGES


@<TRIPOS>ATOM
      1 CA         -1.3967  -11.5032  -49.0409 C.3       0 UNK        -0.1800 
      2 C          -0.3183  -12.3620  -48.3962 C.2       0 UNK         0.5000 
      3 O          -0.6307  -13.1962  -47.5500 O.2       0 UNK        -0.5000 
      4 N           0.9424  -12.1698  -48.8038 N.am      1 UNK        -0.5000 
      5 CA          2.1390  -12.8270  -48.2633 C.3       1 UNK         0.1400 
      6 C6          2.0521  -14.3809  -48.2808 C.3       23 UNK        -0.0398 
      7 S7          3.6550  -15.1735  -48.6409 S.3       23 UNK        -0.2404 
      8 C8          3.4512  -15.6335  -50.3886 C.3       23 UNK        -0.0205 
      9 C9          2.5983  -16.8821  -50.5615 C.ar      23 UNK        -0.0193 
     10 C10         1.2562  -16.7813  -50.9401 C.ar      23 UNK        -0.1150 
     11 C11         0.4908  -17.9306  -51.1674 C.ar      23 UNK        -0.0193 
     12 C12         1.0791  -19.1871  -50.9976 C.ar      23 UNK        -0.1150 
     13 C13         2.4133  -19.3021  -50.5966 C.ar      23 UNK        -0.0193 
     14 C14         3.1673  -18.1455  -50.3812 C.ar      23 UNK        -0.1150 
     15 C15         3.0498  -20.6731  -50.4198 C.3       23 UNK        -0.0205 
     16 S16         2.8177  -21.3201  -48.7342 S.3       23 UNK        -0.2404 
     17 C17         1.0452  -21.7433  -48.7648 C.3       23 UNK        -0.0398 
     18 CA          0.6599  -22.7466  -47.6546 C.3       11 UNK         0.1400 
     19 N           0.7021  -22.1556  -46.3135 N.am      11 UNK        -0.5000 
     20 C           0.5454  -22.8475  -45.1755 C.2       10 UNK         0.5000 
     21 O           0.4150  -24.0714  -45.1323 O.2       10 UNK        -0.5000 
     22 CA          0.4623  -22.0345  -43.8710 C.3       10 UNK         0.1400 
     23 CB          1.8608  -21.6238  -43.3872 C.3       10 UNK        -0.1800 
     24 N          -0.3909  -20.8515  -43.9997 N.am      10 UNK        -0.5000 
     25 C          -1.7075  -20.8914  -44.2518 C.2       9 UNK         0.5000 
     26 O          -2.3499  -21.9356  -44.3488 O.2       9 UNK        -0.5000 
     27 CA         -2.4237  -19.5484  -44.4819 C.3       9 UNK         0.1400 
     28 CB         -2.7806  -18.8800  -43.1463 C.3       9 UNK        -0.1800 
     29 N          -1.6442  -18.6255  -45.3061 N.am      9 UNK        -0.5000 
     30 C          -1.2904  -18.8543  -46.5794 C.2       8 UNK         0.5000 
     31 O          -1.6307  -19.8502  -47.2173 O.2       8 UNK        -0.5000 
     32 CA         -0.3520  -17.8247  -47.2313 C.3       8 UNK         0.1400 
     33 CB         -1.1390  -16.6058  -47.7328 C.3       8 UNK        -0.1800 
     34 N           0.7108  -17.3988  -46.3191 N.am      8 UNK        -0.5000 
     35 C           1.6791  -18.2126  -45.8728 C.2       7 UNK         0.5000 
     36 O           1.7897  -19.3896  -46.2113 O.2       7 UNK        -0.5000 
     37 CA          2.6410  -17.6397  -44.8168 C.3       7 UNK         0.1400 
     38 CB          3.7773  -16.8389  -45.4622 C.3       7 UNK        -0.1800 
     39 N           1.9548  -16.8070  -43.8300 N.am      7 UNK        -0.5000 
     40 C           1.0956  -17.2885  -42.9222 C.2       6 UNK         0.5000 
     41 O           0.8196  -18.4816  -42.8058 O.2       6 UNK        -0.5000 
     42 CA          0.4002  -16.2582  -42.0205 C.3       6 UNK         0.1400 
     43 CB          1.2899  -15.9044  -40.8205 C.3       6 UNK        -0.1800 
     44 N           0.0369  -15.0360  -42.7367 N.am      6 UNK        -0.5000 
     45 C          -0.8791  -14.9617  -43.7125 C.2       5 UNK         0.5000 
     46 O          -1.4531  -15.9489  -44.1747 O.2       5 UNK        -0.5000 
     47 CA         -1.1939  -13.5527  -44.2595 C.3       5 UNK         0.1400 
     48 CB         -2.5888  -13.4610  -44.9123 C.3       5 UNK        -0.1800 
     49 N          -1.0132  -12.4897  -43.2652 N.am      5 UNK        -0.5000 
     50 C          -1.6446  -12.3391  -42.0915 C.2       4 UNK         0.5000 
     51 O          -2.5595  -13.0684  -41.7054 O.2       4 UNK        -0.5000 
     52 CA         -1.1147  -11.2085  -41.1809 C.3       4 UNK         0.1400 
     53 CB         -1.7537  -11.2219  -39.7802 C.3       4 UNK        -0.1800 
     54 N           0.3419  -11.2872  -41.0324 N.am      4 UNK        -0.5000 
     55 C           1.2367  -10.8332  -41.9190 C.2       3 UNK         0.5000 
     56 O           0.9152  -10.2151  -42.9362 O.2       3 UNK        -0.5000 
     57 CA          2.7264  -11.1392  -41.6530 C.3       3 UNK         0.1400 
     58 CB          2.9632  -12.2604  -40.6175 C.3       3 UNK        -0.1800 
     59 N           3.4568  -11.4269  -42.8924 N.am      3 UNK        -0.5000 
     60 C           3.2113  -12.3987  -43.7845 C.2       2 UNK         0.5000 
     61 O           2.3370  -13.2630  -43.6626 O.2       2 UNK        -0.5000 
     62 CA          4.1613  -12.4257  -44.9968 C.3       2 UNK         0.1400 
     63 CB          5.3734  -13.3214  -44.7005 C.3       2 UNK        -0.1800 
     64 N           3.5260  -12.8832  -46.2333 N.am      2 UNK        -0.5000 
     65 C           2.5599  -12.2331  -46.8954 C.2       1 UNK         0.5000 
     66 O           2.0649  -11.1738  -46.5011 O.2       1 UNK        -0.5000 
     67 C          -0.7113  -23.3843  -47.9534 C.2       11 UNK         0.5000 
     68 O          -0.7511  -24.5169  -48.4312 O.2       11 UNK        -0.5000 
     69 N          -1.8057  -22.6775  -47.6360 N.am      12 UNK        -0.5000 
     70 CA         -3.1746  -23.1730  -47.7866 C.3       12 UNK         0.1400 
     71 CB         -4.1763  -22.0416  -47.5177 C.3       12 UNK        -0.1800 
     72 C          -3.4712  -24.3954  -46.9002 C.2       12 UNK         0.5000 
     73 O          -4.1157  -25.3324  -47.3677 O.2       12 UNK        -0.5000 
     74 N          -2.9703  -24.3945  -45.6580 N.am      13 UNK        -0.5000 
     75 CA         -3.0640  -25.5239  -44.7322 C.3       13 UNK         0.1400 
     76 CB         -2.5642  -25.1031  -43.3420 C.3       13 UNK        -0.1800 
     77 C          -2.3069  -26.7652  -45.2391 C.2       13 UNK         0.5000 
     78 O          -2.8489  -27.8691  -45.1786 O.2       13 UNK        -0.5000 
     79 N          -1.0916  -26.5583  -45.7662 N.am      14 UNK        -0.5000 
     80 CA         -0.2592  -27.6010  -46.3696 C.3       14 UNK         0.1400 
     81 CB          1.1518  -27.0468  -46.6189 C.3       14 UNK        -0.1800 
     82 C          -0.8590  -28.1739  -47.6686 C.2       14 UNK         0.5000 
     83 O          -0.7984  -29.3849  -47.8842 O.2       14 UNK        -0.5000 
     84 N          -1.4405  -27.2989  -48.4996 N.am      15 UNK        -0.5000 
     85 CA         -2.0974  -27.6450  -49.7620 C.3       15 UNK         0.1400 
     86 CB         -2.2489  -26.3686  -50.6046 C.3       15 UNK        -0.1800 
     87 C          -3.4690  -28.3281  -49.5891 C.2       15 UNK         0.5000 
     88 O          -3.9508  -28.9367  -50.5452 O.2       15 UNK        -0.5000 
     89 N          -4.0669  -28.2056  -48.3938 N.am      16 UNK        -0.5000 
     90 CA         -5.4365  -28.5896  -48.0365 C.3       16 UNK         0.1400 
     91 CB         -5.6604  -30.1105  -48.1757 C.3       16 UNK        -0.1800 
     92 C          -6.4614  -27.7331  -48.8087 C.2       16 UNK         0.5000 
     93 O          -7.2828  -28.2621  -49.5601 O.2       16 UNK        -0.5000 
     94 N          -6.3483  -26.4153  -48.5924 N.am      17 UNK        -0.5000 
     95 CA         -6.9817  -25.2797  -49.2667 C.3       17 UNK         0.1400 
     96 CB         -8.4872  -25.4818  -49.5283 C.3       17 UNK        -0.1800 
     97 C          -6.2148  -24.8912  -50.5423 C.2       17 UNK         0.5000 
     98 O          -5.6681  -25.7514  -51.2353 O.2       17 UNK        -0.5000 
     99 N          -6.1896  -23.5865  -50.8269 N.am      18 UNK        -0.5000 
    100 CA        -5.5372  -22.9844  -51.9841 C.3       18 UNK         0.1400 
    101 CB        -4.0763  -22.6434  -51.6377 C.3       18 UNK        -0.1800 
    102 C         -6.3180  -21.7274  -52.3907 C.2       18 UNK         0.5000 
    103 O         -7.0139  -21.1398  -51.5569 O.2       18 UNK        -0.5000 
    104 N         -6.1866  -21.3399  -53.6633 N.am      19 UNK        -0.5000 
    105 CA        -6.7841  -20.1320  -54.2305 C.3       19 UNK         0.1400 
    106 CB        -6.8125  -20.2753  -55.7617 C.3       19 UNK        -0.1800 
    107 C         -6.0055  -18.8646  -53.8312 C.2       19 UNK         0.5000 
    108 O         -4.8294  -18.9459  -53.4685 O.2       19 UNK        -0.5000 
    109 N         -6.6651  -17.7057  -53.9676 N.am      20 UNK        -0.5000 
    110 CA        -6.0640  -16.3786  -53.7887 C.3       20 UNK         0.1400 
    111 CB        -7.1798  -15.3238  -53.7383 C.3       20 UNK        -0.1800 
    112 C         -5.0370  -16.0295  -54.8862 C.2       20 UNK         0.5000 
    113 O         -4.1375  -15.2234  -54.6472 O.2       20 UNK        -0.5000 
    114 N         -5.1720  -16.6621  -56.0596 N.am      21 UNK        -0.5000 
    115 CA        -4.1803  -16.6763  -57.1304 C.3       21 UNK         0.1400 
    116 CB        -4.8935  -16.9703  -58.4623 C.3       21 UNK        -0.1800 
    117 C         -3.0996  -17.7215  -56.7938 C.2       21 UNK         0.5000 
    118 O         -3.1601  -18.8516  -57.2822 O.2       21 UNK        -0.5000 
    119 N         -2.1790  -17.3361  -55.9033 N.am      22 UNK        -0.5000 
    120 CA        -1.0952  -18.1673  -55.3570 C.3       22 UNK         0.1400 
    121 C         -0.1554  -18.7599  -56.4455 C.2       22 UNK         0.5000 
    122 N          0.2606  -20.0111  -56.3031 N.am      22 UNK        -0.7600 
    123 O          0.2372  -18.0790  -57.3909 O.2       22 UNK        -0.5000 
    124 C124       -0.2568  -17.3867  -54.3130 C.3       23 UNK        -0.0398 
    125 S125       -1.2562  -16.6629  -52.9643 S.3       23 UNK        -0.2404 
    126 C126       -0.9708  -17.8319  -51.5937 C.3       23 UNK        -0.0205 
    127 H127       -2.1267  -12.1359  -49.5457 H         1 UNK         0.0600 
    128 H128       -0.9811  -10.8107  -49.7733 H         1 UNK         0.0600 
    129 H129       -1.9163  -10.9221  -48.2790 H         1 UNK         0.0600 
    130 H130        1.1264  -11.4464  -49.4845 H         1 UNK         0.3000 
    131 H131        2.9286  -12.5303  -48.9554 H         1 UNK         0.0600 
    132 H132        1.6573  -14.7690  -47.3409 H         1 UNK         0.0800 
    133 H133        1.3428  -14.7020  -49.0415 H         1 UNK         0.0800 
    134 H134        3.0285  -14.7946  -50.9440 H         1 UNK         0.0800 
    135 H135        4.4378  -15.8118  -50.8186 H         1 UNK         0.0800 
    136 H136        0.8098  -15.8072  -51.0809 H         1 UNK         0.1150 
    137 H137        0.4969  -20.0800  -51.1756 H         1 UNK         0.1150 
    138 H138        4.2030  -18.2274  -50.0822 H         1 UNK         0.1150 
    139 H139        2.6458  -21.3772  -51.1488 H         1 UNK         0.0800 
    140 H140        4.1197  -20.6114  -50.6241 H         1 UNK         0.0800 
    141 H141        0.8212  -22.1611  -49.7483 H         1 UNK         0.0800 
    142 H142        0.4608  -20.8267  -48.6757 H         1 UNK         0.0800 
    143 H143        1.3891  -23.5597  -47.6699 H         1 UNK         0.0600 
    144 H144        0.8650  -21.1540  -46.2645 H         1 UNK         0.3000 
    145 H145        0.0197  -22.6788  -43.1087 H         1 UNK         0.0600 
    146 H146        1.8106  -21.1143  -42.4248 H         1 UNK         0.0600 
    147 H147        2.5011  -22.4975  -43.2599 H         1 UNK         0.0600 
    148 H148        2.3539  -20.9562  -44.0934 H         1 UNK         0.0600 
    149 H149        0.0573  -19.9496  -43.8700 H         1 UNK         0.3000 
    150 H150       -3.3545  -19.7567  -45.0130 H         1 UNK         0.0600 
    151 H151       -3.3951  -19.5394  -42.5323 H         1 UNK         0.0600 
    152 H152       -3.3456  -17.9611  -43.3041 H         1 UNK         0.0600 
    153 H153       -1.8906  -18.6294  -42.5694 H         1 UNK         0.0600 
    154 H154       -1.3704  -17.7490  -44.8706 H         1 UNK         0.3000 
    155 H155        0.1155  -18.3027  -48.0951 H         1 UNK         0.0600 
    156 H156       -1.5399  -16.0141  -46.9101 H         1 UNK         0.0600 
    157 H157       -0.5123  -15.9548  -48.3398 H         1 UNK         0.0600 
    158 H158       -1.9804  -16.9119  -48.3552 H         1 UNK         0.0600 
    159 H159        0.6447  -16.4660  -45.9428 H         1 UNK         0.3000 
    160 H160        3.0889  -18.4885  -44.2955 H         1 UNK         0.0600 
    161 H161        3.4279  -15.8721  -45.8209 H         1 UNK         0.0600 
    162 H162        4.2101  -17.3743  -46.3087 H         1 UNK         0.0600 
    163 H163        4.5800  -16.6614  -44.7471 H         1 UNK         0.0600 
    164 H164        2.1217  -15.8098  -43.8586 H         1 UNK         0.3000 
    165 H165       -0.5199  -16.7087  -41.6428 H         1 UNK         0.0600 
    166 H166        0.8088  -15.1733  -40.1705 H         1 UNK         0.0600 
    167 H167        1.4963  -16.7896  -40.2175 H         1 UNK         0.0600 
    168 H168        2.2500  -15.4973  -41.1390 H         1 UNK         0.0600 
    169 H169        0.5303  -14.1906  -42.4854 H         1 UNK         0.3000 
    170 H170       -0.4442  -13.3632  -45.0266 H         1 UNK         0.0600 
    171 H171       -3.3848  -13.6987  -44.2064 H         1 UNK         0.0600 
    172 H172       -2.7727  -12.4618  -45.3068 H         1 UNK         0.0600 
    173 H173       -2.6756  -14.1555  -45.7482 H         1 UNK         0.0600 
    174 H174       -0.2699  -11.8295  -43.4690 H         1 UNK         0.3000 
    175 H175       -1.3781  -10.2612  -41.6561 H         1 UNK         0.0600 
    176 H176       -1.3835  -10.3974  -39.1706 H         1 UNK         0.0600 
    177 H177       -1.5439  -12.1518  -39.2502 H         1 UNK         0.0600 
    178 H178       -2.8374  -11.1150  -39.8427 H         1 UNK         0.0600 
    179 H179        0.6791  -11.8017  -40.2317 H         1 UNK         0.3000 
    180 H180        3.1561  -10.2208  -41.2509 H         1 UNK         0.0600 
    181 H181        2.4773  -13.1897  -40.9108 H         1 UNK         0.0600 
    182 H182        2.5868  -11.9811  -39.6329 H         1 UNK         0.0600 
    183 H183        4.0273  -12.4671  -40.5020 H         1 UNK         0.0600 
    184 H184        4.1913  -10.7680  -43.1086 H         1 UNK         0.3000 
    185 H185        4.5227  -11.4108  -45.1756 H         1 UNK         0.0600 
    186 H186        5.9213  -12.9616  -43.8287 H         1 UNK         0.0600 
    187 H187        5.0728  -14.3479  -44.4934 H         1 UNK         0.0600 
    188 H188        6.0716  -13.3364  -45.5377 H         1 UNK         0.0600 
    189 H189        3.8862  -13.7393  -46.6312 H         1 UNK         0.3000 
    190 H190       -1.6996  -21.7278  -47.2867 H         1 UNK         0.3000 
    191 H191       -3.2975  -23.4881  -48.8243 H         1 UNK         0.0600 
    192 H192       -4.0147  -21.2034  -48.1958 H         1 UNK         0.0600 
    193 H193       -5.2013  -22.3848  -47.6629 H         1 UNK         0.0600 
    194 H194       -4.0955  -21.6666  -46.4975 H         1 UNK         0.0600 
    195 H195       -2.5105  -23.5560  -45.3124 H         1 UNK         0.3000 
    196 H196       -4.1185  -25.7931  -44.6429 H         1 UNK         0.0600 
    197 H197       -2.6430  -25.9277  -42.6324 H         1 UNK         0.0600 
    198 H198       -3.1537  -24.2760  -42.9461 H         1 UNK         0.0600 
    199 H199       -1.5211  -24.7880  -43.3653 H         1 UNK         0.0600 
    200 H200       -0.7013  -25.6208  -45.7420 H         1 UNK         0.3000 
    201 H201       -0.1784  -28.4209  -45.6529 H         1 UNK         0.0600 
    202 H202        1.6120  -26.7099  -45.6898 H         1 UNK         0.0600 
    203 H203        1.1374  -26.2024  -47.3085 H         1 UNK         0.0600 
    204 H204        1.8022  -27.8105  -47.0469 H         1 UNK         0.0600 
    205 H205       -1.3770  -26.3071  -48.2836 H         1 UNK         0.3000 
    206 H206       -1.4523  -28.3380  -50.3060 H         1 UNK         0.0600 
    207 H207       -1.2811  -25.9108  -50.8092 H         1 UNK         0.0600 
    208 H208       -2.7174  -26.5836  -51.5659 H         1 UNK         0.0600 
    209 H209       -2.8706  -25.6302  -50.0973 H         1 UNK         0.0600 
    210 H210       -3.5797  -27.6565  -47.6977 H         1 UNK         0.3000 
    211 H211       -5.5548  -28.3417  -46.9804 H         1 UNK         0.0600 
    212 H212       -5.6185  -30.4419  -49.2132 H         1 UNK         0.0600 
    213 H213       -6.6391  -30.3925  -47.7863 H         1 UNK         0.0600 
    214 H214       -4.9129  -30.6706  -47.6139 H         1 UNK         0.0600 
    215 H215       -5.5650  -26.1292  -48.0056 H         1 UNK         0.3000 
    216 H216       -6.8828  -24.4513  -48.5632 H         1 UNK         0.0600 
    217 H217       -8.9523  -24.5466  -49.8418 H         1 UNK         0.0600 
    218 H218       -9.0053  -25.8180  -48.6302 H         1 UNK         0.0600 
    219 H219       -8.6705  -26.2097  -50.3190 H         1 UNK         0.0600 
    220 H220       -6.7176  -22.9293  -50.2661 H         1 UNK         0.3000 
    221 H221       -5.5588  -23.6835  -52.8230 H         1 UNK         0.0600 
    222 H222       -4.0143  -21.9522  -50.7963 H         1 UNK         0.0600 
    223 H223       -3.5119  -23.5393  -51.3795 H         1 UNK         0.0600 
    224 H224       -3.5712  -22.1755  -52.4835 H         1 UNK         0.0600 
    225 H225       -5.5626  -21.8527  -54.2688 H         1 UNK         0.3000 
    226 H226       -7.8100  -20.0415  -53.8668 H         1 UNK         0.0600 
    227 H227       -7.3556  -21.1709  -56.0643 H         1 UNK         0.0600 
    228 H228       -7.3104  -19.4253  -56.2294 H         1 UNK         0.0600 
    229 H229       -5.8062  -20.3358  -56.1797 H         1 UNK         0.0600 
    230 H230       -7.6309  -17.7228  -54.2629 H         1 UNK         0.3000 
    231 H231       -5.5376  -16.3681  -52.8319 H         1 UNK         0.0600 
    232 H232       -7.7520  -15.2974  -54.6665 H         1 UNK         0.0600 
    233 H233       -6.7670  -14.3267  -53.5789 H         1 UNK         0.0600 
    234 H234       -7.8731  -15.5211  -52.9204 H         1 UNK         0.0600 
    235 H235       -5.9336  -17.3163  -56.1539 H         1 UNK         0.3000 
    236 H236       -3.7045  -15.6964  -57.2104 H         1 UNK         0.0600 
    237 H237       -5.6187  -16.1917  -58.6993 H         1 UNK         0.0600 
    238 H238       -4.1789  -17.0104  -59.2852 H         1 UNK         0.0600 
    239 H239       -5.4231  -17.9238  -58.4392 H         1 UNK         0.0600 
    240 H240       -2.2597  -16.4104  -55.5041 H         1 UNK         0.3000 
    241 H241       -1.5791  -18.9998  -54.8423 H         1 UNK         0.0600 
    242 H242       -0.0427  -20.5870  -55.5331 H         1 UNK         0.3800 
    243 H243        0.8829  -20.4007  -56.9943 H         1 UNK         0.3800 
    244 H244        0.5130  -18.0323  -53.8878 H         1 UNK         0.0800 
    245 H245        0.2783  -16.5681  -54.7974 H         1 UNK         0.0800 
    246 H246       -1.5627  -17.5136  -50.7354 H         1 UNK         0.0800 
    247 H247       -1.3577  -18.8090  -51.8879 H         1 UNK         0.0800 
@<TRIPOS>BOND
     1    1    2 1    
     2    1  127 1    
     3    1  128 1    
     4    1  129 1    
     5    2    3 2    
     6    2    4 am   BACKBONE|DICT|INTERRES
     7    4    5 1    
     8    4  130 1    
     9    5    6 1    
    10    5   65 1    
    11    5  131 1    
    12    6    7 1    
    13    6  132 1    
    14    6  133 1    
    15    7    8 1    
    16    8    9 1    
    17    8  134 1    
    18    8  135 1    
    19    9   10 ar   
    20    9   14 ar   
    21   10   11 ar   
    22   10  136 1    
    23   11   12 ar   
    24   11  126 1    
    25   12   13 ar   
    26   12  137 1    
    27   13   14 ar   
    28   13   15 1    
    29   14  138 1    
    30   15   16 1    
    31   15  139 1    
    32   15  140 1    
    33   16   17 1    
    34   17   18 1    
    35   17  141 1    
    36   17  142 1    
    37   18   19 1    
    38   18   67 1    
    39   18  143 1    
    40   19   20 am   BACKBONE|DICT|INTERRES
    41   19  144 1    
    42   20   21 2    
    43   20   22 1    
    44   22   23 1    
    45   22   24 1    
    46   22  145 1    
    47   23  146 1    
    48   23  147 1    
    49   23  148 1    
    50   24   25 am   BACKBONE|DICT|INTERRES
    51   24  149 1    
    52   25   26 2    
    53   25   27 1    
    54   27   28 1    
    55   27   29 1    
    56   27  150 1    
    57   28  151 1    
    58   28  152 1    
    59   28  153 1    
    60   29   30 am   BACKBONE|DICT|INTERRES
    61   29  154 1    
    62   30   31 2    
    63   30   32 1    
    64   32   33 1    
    65   32   34 1    
    66   32  155 1    
    67   33  156 1    
    68   33  157 1    
    69   33  158 1    
    70   34   35 am   BACKBONE|DICT|INTERRES
    71   34  159 1    
    72   35   36 2    
    73   35   37 1    
    74   37   38 1    
    75   37   39 1    
    76   37  160 1    
    77   38  161 1    
    78   38  162 1    
    79   38  163 1    
    80   39   40 am   BACKBONE|DICT|INTERRES
    81   39  164 1    
    82   40   41 2    
    83   40   42 1    
    84   42   43 1    
    85   42   44 1    
    86   42  165 1    
    87   43  166 1    
    88   43  167 1    
    89   43  168 1    
    90   44   45 am   BACKBONE|DICT|INTERRES
    91   44  169 1    
    92   45   46 2    
    93   45   47 1    
    94   47   48 1    
    95   47   49 1    
    96   47  170 1    
    97   48  171 1    
    98   48  172 1    
    99   48  173 1    
   100   49   50 am   BACKBONE|DICT|INTERRES
   101   49  174 1    
   102   50   51 2    
   103   50   52 1    
   104   52   53 1    
   105   52   54 1    
   106   52  175 1    
   107   53  176 1    
   108   53  177 1    
   109   53  178 1    
   110   54   55 am   BACKBONE|DICT|INTERRES
   111   54  179 1    
   112   55   56 2    
   113   55   57 1    
   114   57   58 1    
   115   57   59 1    
   116   57  180 1    
   117   58  181 1    
   118   58  182 1    
   119   58  183 1    
   120   59   60 am   BACKBONE|DICT|INTERRES
   121   59  184 1    
   122   60   61 2    
   123   60   62 1    
   124   62   63 1    
   125   62   64 1    
   126   62  185 1    
   127   63  186 1    
   128   63  187 1    
   129   63  188 1    
   130   64   65 am   BACKBONE|DICT|INTERRES
   131   64  189 1    
   132   65   66 2    
   133   67   68 2    
   134   67   69 am   BACKBONE|DICT|INTERRES
   135   69   70 1    
   136   69  190 1    
   137   70   71 1    
   138   70   72 1    
   139   70  191 1    
   140   71  192 1    
   141   71  193 1    
   142   71  194 1    
   143   72   73 2    
   144   72   74 am   BACKBONE|DICT|INTERRES
   145   74   75 1    
   146   74  195 1    
   147   75   76 1    
   148   75   77 1    
   149   75  196 1    
   150   76  197 1    
   151   76  198 1    
   152   76  199 1    
   153   77   78 2    
   154   77   79 am   BACKBONE|DICT|INTERRES
   155   79   80 1    
   156   79  200 1    
   157   80   81 1    
   158   80   82 1    
   159   80  201 1    
   160   81  202 1    
   161   81  203 1    
   162   81  204 1    
   163   82   83 2    
   164   82   84 am   BACKBONE|DICT|INTERRES
   165   84   85 1    
   166   84  205 1    
   167   85   86 1    
   168   85   87 1    
   169   85  206 1    
   170   86  207 1    
   171   86  208 1    
   172   86  209 1    
   173   87   88 2    
   174   87   89 am   BACKBONE|DICT|INTERRES
   175   89   90 1    
   176   89  210 1    
   177   90   91 1    
   178   90   92 1    
   179   90  211 1    
   180   91  212 1    
   181   91  213 1    
   182   91  214 1    
   183   92   93 2    
   184   92   94 am   BACKBONE|DICT|INTERRES
   185   94   95 1    
   186   94  215 1    
   187   95   96 1    
   188   95   97 1    
   189   95  216 1    
   190   96  217 1    
   191   96  218 1    
   192   96  219 1    
   193   97   98 2    
   194   97   99 am   BACKBONE|DICT|INTERRES
   195   99  100 1    
   196   99  220 1    
   197  100  101 1    
   198  100  102 1    
   199  100  221 1    
   200  101  222 1    
   201  101  223 1    
   202  101  224 1    
   203  102  103 2    
   204  102  104 am   BACKBONE|DICT|INTERRES
   205  104  105 1    
   206  104  225 1    
   207  105  106 1    
   208  105  107 1    
   209  105  226 1    
   210  106  227 1    
   211  106  228 1    
   212  106  229 1    
   213  107  108 2    
   214  107  109 am   BACKBONE|DICT|INTERRES
   215  109  110 1    
   216  109  230 1    
   217  110  111 1    
   218  110  112 1    
   219  110  231 1    
   220  111  232 1    
   221  111  233 1    
   222  111  234 1    
   223  112  113 2    
   224  112  114 am   BACKBONE|DICT|INTERRES
   225  114  115 1    
   226  114  235 1    
   227  115  116 1    
   228  115  117 1    
   229  115  236 1    
   230  116  237 1    
   231  116  238 1    
   232  116  239 1    
   233  117  118 2    
   234  117  119 am   BACKBONE|DICT|INTERRES
   235  119  120 1    
   236  119  240 1    
   237  120  121 1    
   238  120  124 1    
   239  120  241 1    
   240  121  122 am   BACKBONE|DICT|INTERRES
   241  121  123 2    
   242  122  242 1    
   243  122  243 1    
   244  124  125 1    
   245  124  244 1    
   246  124  245 1    
   247  125  126 1    
   248  126  246 1    
   249  126  247 1    
@<TRIPOS>SUBSTRUCTURE
     1 UNK         1 GROUP             0       ****    0 ROOT    
