@<TRIPOS>MOLECULE
3R540
247   249    1
SMALL
USER_CHARGES


@<TRIPOS>ATOM
      1 CA         -3.0666  -14.3824  -51.2352 C.3       0 UNK        -0.1800 
      2 C          -2.6484  -15.0506  -49.9349 C.2       0 UNK         0.5000 
      3 O          -1.7833  -14.5342  -49.2285 O.2       0 UNK        -0.5000 
      4 N          -3.2694  -16.1894  -49.6035 N.am      1 UNK        -0.5000 
      5 CA         -2.9605  -17.0124  -48.4237 C.3       1 UNK         0.1400 
      6 C6         -3.7250  -18.3570  -48.4275 C.3       23 UNK        -0.0398 
      7 S7         -3.5232  -19.2974  -49.9788 S.3       23 UNK        -0.2404 
      8 C8         -1.9774  -20.2146  -49.6573 C.3       23 UNK        -0.0205 
      9 C9         -0.6843  -19.4559  -49.9635 C.ar      23 UNK        -0.0193 
     10 C10        -0.6408  -18.3805  -50.8600 C.ar      23 UNK        -0.1150 
     11 C11         0.5565  -17.7069  -51.1087 C.ar      23 UNK        -0.0193 
     12 C12         1.7220  -18.1190  -50.4606 C.ar      23 UNK        -0.1150 
     13 C13         1.7068  -19.1847  -49.5575 C.ar      23 UNK        -0.0193 
     14 C14         0.5000  -19.8635  -49.3384 C.ar      23 UNK        -0.1150 
     15 C15         3.0217  -19.5332  -48.8504 C.3       23 UNK        -0.0205 
     16 S16         2.9366  -20.6558  -47.4086 S.3       23 UNK        -0.2404 
     17 C17         1.8142  -19.7845  -46.2601 C.3       23 UNK        -0.0398 
     18 CA          0.7687  -20.7832  -45.7063 C.3       11 UNK         0.1400 
     19 N           1.3347  -21.6623  -44.6759 N.am      11 UNK        -0.5000 
     20 C           0.8886  -22.8995  -44.4251 C.2       10 UNK         0.5000 
     21 O          -0.0738  -23.4060  -44.9987 O.2       10 UNK        -0.5000 
     22 CA          1.5969  -23.6780  -43.3025 C.3       10 UNK         0.1400 
     23 CB          2.9712  -24.1813  -43.7695 C.3       10 UNK        -0.1800 
     24 N           1.7549  -22.9182  -42.0598 N.am      10 UNK        -0.5000 
     25 C           0.7732  -22.3176  -41.3766 C.2       9 UNK         0.5000 
     26 O          -0.3871  -22.2557  -41.7811 O.2       9 UNK        -0.5000 
     27 CA          1.1202  -21.6547  -40.0299 C.3       9 UNK         0.1400 
     28 CB          0.7761  -22.5907  -38.8571 C.3       9 UNK        -0.1800 
     29 N           2.4854  -21.1275  -39.9000 N.am      9 UNK        -0.5000 
     30 C           3.6572  -21.7820  -39.8566 C.2       8 UNK         0.5000 
     31 O           3.7706  -22.9936  -40.0427 O.2       8 UNK        -0.5000 
     32 CA          4.9246  -20.9455  -39.5749 C.3       8 UNK         0.1400 
     33 CB          5.6992  -20.6995  -40.8791 C.3       8 UNK        -0.1800 
     34 N           4.6458  -19.6537  -38.9433 N.am      8 UNK        -0.5000 
     35 C           4.1495  -19.4828  -37.7092 C.2       7 UNK         0.5000 
     36 O           3.9962  -20.4022  -36.9045 O.2       7 UNK        -0.5000 
     37 CA          3.7194  -18.0524  -37.3149 C.3       7 UNK         0.1400 
     38 CB          4.7428  -17.4319  -36.3512 C.3       7 UNK        -0.1800 
     39 N           3.5136  -17.1319  -38.4420 N.am      7 UNK        -0.5000 
     40 C           2.6334  -17.2914  -39.4401 C.2       6 UNK         0.5000 
     41 O           1.8957  -18.2752  -39.5545 O.2       6 UNK        -0.5000 
     42 CA          2.6149  -16.1933  -40.5134 C.3       6 UNK         0.1400 
     43 CB          3.9599  -16.1284  -41.2661 C.3       6 UNK        -0.1800 
     44 N           1.5385  -16.4790  -41.4554 N.am      6 UNK        -0.5000 
     45 C           0.9901  -15.6054  -42.3029 C.2       5 UNK         0.5000 
     46 O           1.2843  -14.4081  -42.3408 O.2       5 UNK        -0.5000 
     47 CA         -0.0770  -16.1676  -43.2625 C.3       5 UNK         0.1400 
     48 CB         -1.4884  -15.8470  -42.7462 C.3       5 UNK        -0.1800 
     49 N           0.0625  -15.6382  -44.6172 N.am      5 UNK        -0.5000 
     50 C           1.1439  -15.7570  -45.3994 C.2       4 UNK         0.5000 
     51 O           2.1380  -16.4162  -45.0911 O.2       4 UNK        -0.5000 
     52 CA          1.1174  -15.0375  -46.7636 C.3       4 UNK         0.1400 
     53 CB          1.0899  -16.0593  -47.9062 C.3       4 UNK        -0.1800 
     54 N          -0.0093  -14.1174  -46.9308 N.am      4 UNK        -0.5000 
     55 C          -0.1029  -12.9025  -46.3732 C.2       3 UNK         0.5000 
     56 O           0.7692  -12.4071  -45.6596 O.2       3 UNK        -0.5000 
     57 CA         -1.3971  -12.1170  -46.6468 C.3       3 UNK         0.1400 
     58 CB         -1.2798  -11.3100  -47.9493 C.3       3 UNK        -0.1800 
     59 N          -2.5554  -13.0077  -46.7295 N.am      3 UNK        -0.5000 
     60 C          -3.2666  -13.4221  -45.6715 C.2       2 UNK         0.5000 
     61 O          -3.0552  -13.0460  -44.5188 O.2       2 UNK        -0.5000 
     62 CA         -4.3992  -14.4342  -45.9376 C.3       2 UNK         0.1400 
     63 CB         -5.7290  -13.7031  -46.1753 C.3       2 UNK        -0.1800 
     64 N          -4.1287  -15.3157  -47.0746 N.am      2 UNK        -0.5000 
     65 C          -3.1836  -16.2670  -47.0894 C.2       1 UNK         0.5000 
     66 O          -2.4787  -16.5306  -46.1178 O.2       1 UNK        -0.5000 
     67 C          -0.5356  -20.0892  -45.2658 C.2       11 UNK         0.5000 
     68 O          -1.2434  -19.5742  -46.1284 O.2       11 UNK        -0.5000 
     69 N          -0.8618  -20.1207  -43.9653 N.am      12 UNK        -0.5000 
     70 CA         -2.1734  -19.7150  -43.4578 C.3       12 UNK         0.1400 
     71 CB         -2.0590  -19.3268  -41.9733 C.3       12 UNK        -0.1800 
     72 C          -3.2051  -20.8442  -43.6468 C.2       12 UNK         0.5000 
     73 O          -4.3538  -20.5695  -43.9934 O.2       12 UNK        -0.5000 
     74 N          -2.7733  -22.0905  -43.4049 N.am      13 UNK        -0.5000 
     75 CA         -3.5814  -23.3026  -43.5251 C.3       13 UNK         0.1400 
     76 CB         -2.8907  -24.4383  -42.7538 C.3       13 UNK        -0.1800 
     77 C          -3.8412  -23.7203  -44.9845 C.2       13 UNK         0.5000 
     78 O          -4.9244  -24.2279  -45.2801 O.2       13 UNK        -0.5000 
     79 N          -2.8471  -23.5218  -45.8615 N.am      14 UNK        -0.5000 
     80 CA         -2.9131  -23.8195  -47.2936 C.3       14 UNK         0.1400 
     81 CB         -1.5192  -23.6264  -47.9132 C.3       14 UNK        -0.1800 
     82 C          -3.9537  -22.9675  -48.0456 C.2       14 UNK         0.5000 
     83 O          -4.2832  -21.8606  -47.6151 O.2       14 UNK        -0.5000 
     84 N          -4.4183  -23.4983  -49.1803 N.am      15 UNK        -0.5000 
     85 CA         -5.3521  -22.8660  -50.1051 C.3       15 UNK         0.1400 
     86 CB         -6.7797  -22.8377  -49.5132 C.3       15 UNK        -0.1800 
     87 C          -5.2441  -23.5945  -51.4572 C.2       15 UNK         0.5000 
     88 O          -4.1328  -23.9465  -51.8604 O.2       15 UNK        -0.5000 
     89 N          -6.3832  -23.8230  -52.1268 N.am      16 UNK        -0.5000 
     90 CA         -6.5415  -24.5769  -53.3752 C.3       16 UNK         0.1400 
     91 CB         -6.3307  -26.0857  -53.1137 C.3       16 UNK        -0.1800 
     92 C          -5.6717  -24.0058  -54.5140 C.2       16 UNK         0.5000 
     93 O          -5.8631  -22.8484  -54.8890 O.2       16 UNK        -0.5000 
     94 N          -4.7251  -24.8012  -55.0300 N.am      17 UNK        -0.5000 
     95 CA         -3.8053  -24.4283  -56.1058 C.3       17 UNK         0.1400 
     96 CB         -2.9553  -25.6483  -56.4901 C.3       17 UNK        -0.1800 
     97 C          -2.9029  -23.2283  -55.7630 C.2       17 UNK         0.5000 
     98 O          -2.6129  -22.4240  -56.6474 O.2       17 UNK        -0.5000 
     99 N          -2.5029  -23.1033  -54.4897 N.am      18 UNK        -0.5000 
    100 CA        -1.7051  -21.9784  -54.0003 C.3       18 UNK         0.1400 
    101 CB        -1.0726  -22.3428  -52.6508 C.3       18 UNK        -0.1800 
    102 C         -2.5275  -20.6802  -53.9110 C.2       18 UNK         0.5000 
    103 O         -2.0138  -19.6142  -54.2489 O.2       18 UNK        -0.5000 
    104 N         -3.8073  -20.7965  -53.5264 N.am      19 UNK        -0.5000 
    105 CA        -4.7606  -19.6850  -53.5338 C.3       19 UNK         0.1400 
    106 CB        -6.0393  -20.0659  -52.7718 C.3       19 UNK        -0.1800 
    107 C         -5.0922  -19.2285  -54.9638 C.2       19 UNK         0.5000 
    108 O         -5.1327  -18.0262  -55.2209 O.2       19 UNK        -0.5000 
    109 N         -5.2792  -20.1926  -55.8760 N.am      20 UNK        -0.5000 
    110 CA        -5.5044  -19.9547  -57.3022 C.3       20 UNK         0.1400 
    111 CB        -5.8564  -21.2807  -57.9927 C.3       20 UNK        -0.1800 
    112 C         -4.3068  -19.2765  -57.9959 C.2       20 UNK         0.5000 
    113 O         -4.5147  -18.4195  -58.8556 O.2       20 UNK        -0.5000 
    114 N         -3.0833  -19.6558  -57.6006 N.am      21 UNK        -0.5000 
    115 CA        -1.8368  -19.0560  -58.0719 C.3       21 UNK         0.1400 
    116 CB        -0.6485  -19.9461  -57.6746 C.3       21 UNK        -0.1800 
    117 C         -1.6427  -17.6186  -57.5570 C.2       21 UNK         0.5000 
    118 O         -1.3447  -16.7286  -58.3555 O.2       21 UNK        -0.5000 
    119 N         -1.8045  -17.4175  -56.2424 N.am      22 UNK        -0.5000 
    120 CA        -1.6374  -16.1088  -55.5899 C.3       22 UNK         0.1400 
    121 C         -2.8059  -15.1116  -55.8313 C.2       22 UNK         0.5000 
    122 N         -4.0361  -15.5586  -56.0429 N.am      22 UNK        -0.7600 
    123 O         -2.5877  -13.9032  -55.8350 O.2       22 UNK        -0.5000 
    124 C124       -1.3372  -16.2507  -54.0789 C.3       23 UNK        -0.0398 
    125 S125        0.3033  -16.9898  -53.7761 S.3       23 UNK        -0.2404 
    126 C126        0.5893  -16.5084  -52.0438 C.3       23 UNK        -0.0205 
    127 H127       -3.5584  -15.0847  -51.9088 H         1 UNK         0.0600 
    128 H128       -2.1943  -13.9746  -51.7454 H         1 UNK         0.0600 
    129 H129       -3.7533  -13.5616  -51.0296 H         1 UNK         0.0600 
    130 H130       -3.9693  -16.5722  -50.2228 H         1 UNK         0.3000 
    131 H131       -1.8964  -17.2449  -48.4721 H         1 UNK         0.0600 
    132 H132       -4.7935  -18.1855  -48.2876 H         1 UNK         0.0800 
    133 H133       -3.4125  -18.9829  -47.5897 H         1 UNK         0.0800 
    134 H134       -1.9763  -20.5345  -48.6150 H         1 UNK         0.0800 
    135 H135       -1.9953  -21.1256  -50.2504 H         1 UNK         0.0800 
    136 H136       -1.5347  -18.0563  -51.3718 H         1 UNK         0.1150 
    137 H137        2.6471  -17.5897  -50.6420 H         1 UNK         0.1150 
    138 H138        0.4680  -20.7079  -48.6692 H         1 UNK         0.1150 
    139 H139        3.6921  -19.9813  -49.5849 H         1 UNK         0.0800 
    140 H140        3.5038  -18.6113  -48.5217 H         1 UNK         0.0800 
    141 H141        1.3368  -18.9578  -46.7884 H         1 UNK         0.0800 
    142 H142        2.3928  -19.3288  -45.4553 H         1 UNK         0.0800 
    143 H143        0.4589  -21.4205  -46.5357 H         1 UNK         0.0600 
    144 H144        2.1250  -21.3120  -44.1547 H         1 UNK         0.3000 
    145 H145        0.9787  -24.5477  -43.0711 H         1 UNK         0.0600 
    146 H146        3.4283  -24.8284  -43.0206 H         1 UNK         0.0600 
    147 H147        2.8839  -24.7609  -44.6894 H         1 UNK         0.0600 
    148 H148        3.6589  -23.3573  -43.9634 H         1 UNK         0.0600 
    149 H149        2.6608  -22.9669  -41.6041 H         1 UNK         0.3000 
    150 H150        0.4692  -20.7827  -39.9489 H         1 UNK         0.0600 
    151 H151       -0.2725  -22.8894  -38.8924 H         1 UNK         0.0600 
    152 H152        0.9415  -22.0977  -37.8990 H         1 UNK         0.0600 
    153 H153        1.3744  -23.5020  -38.8739 H         1 UNK         0.0600 
    154 H154        2.5142  -20.1210  -39.7650 H         1 UNK         0.3000 
    155 H155        5.5577  -21.5254  -38.9002 H         1 UNK         0.0600 
    156 H156        5.1172  -20.1088  -41.5878 H         1 UNK         0.0600 
    157 H157        5.9532  -21.6413  -41.3675 H         1 UNK         0.0600 
    158 H158        6.6342  -20.1719  -40.6894 H         1 UNK         0.0600 
    159 H159        4.7542  -18.8358  -39.5238 H         1 UNK         0.3000 
    160 H160        2.7665  -18.1420  -36.7894 H         1 UNK         0.0600 
    161 H161        5.7116  -17.2894  -36.8317 H         1 UNK         0.0600 
    162 H162        4.8992  -18.0701  -35.4804 H         1 UNK         0.0600 
    163 H163        4.4033  -16.4634  -35.9835 H         1 UNK         0.0600 
    164 H164        4.0874  -16.3008  -38.4368 H         1 UNK         0.3000 
    165 H165        2.4190  -15.2399  -40.0187 H         1 UNK         0.0600 
    166 H166        3.9497  -15.3526  -42.0319 H         1 UNK         0.0600 
    167 H167        4.7856  -15.8970  -40.5926 H         1 UNK         0.0600 
    168 H168        4.1894  -17.0747  -41.7577 H         1 UNK         0.0600 
    169 H169        1.2032  -17.4330  -41.4088 H         1 UNK         0.3000 
    170 H170        0.0381  -17.2512  -43.3250 H         1 UNK         0.0600 
    171 H171       -1.6747  -14.7724  -42.7337 H         1 UNK         0.0600 
    172 H172       -2.2528  -16.3117  -43.3691 H         1 UNK         0.0600 
    173 H173       -1.6296  -16.2138  -41.7291 H         1 UNK         0.0600 
    174 H174       -0.7240  -15.1201  -44.9800 H         1 UNK         0.3000 
    175 H175        2.0422  -14.4632  -46.8466 H         1 UNK         0.0600 
    176 H176        0.2349  -16.7299  -47.8259 H         1 UNK         0.0600 
    177 H177        1.0451  -15.5697  -48.8792 H         1 UNK         0.0600 
    178 H178        1.9895  -16.6746  -47.8922 H         1 UNK         0.0600 
    179 H179       -0.7427  -14.4129  -47.5678 H         1 UNK         0.3000 
    180 H180       -1.5409  -11.4096  -45.8272 H         1 UNK         0.0600 
    181 H181       -2.1808  -10.7244  -48.1320 H         1 UNK         0.0600 
    182 H182       -1.1177  -11.9542  -48.8141 H         1 UNK         0.0600 
    183 H183       -0.4429  -10.6123  -47.9000 H         1 UNK         0.0600 
    184 H184       -2.7485  -13.4079  -47.6386 H         1 UNK         0.3000 
    185 H185       -4.5047  -15.0536  -45.0442 H         1 UNK         0.0600 
    186 H186       -6.5522  -14.4085  -46.2904 H         1 UNK         0.0600 
    187 H187       -5.9738  -13.0546  -45.3329 H         1 UNK         0.0600 
    188 H188       -5.6921  -13.0796  -47.0695 H         1 UNK         0.0600 
    189 H189       -4.6605  -15.1527  -47.9170 H         1 UNK         0.3000 
    190 H190       -0.2636  -20.6228  -43.3242 H         1 UNK         0.3000 
    191 H191       -2.5145  -18.8367  -44.0112 H         1 UNK         0.0600 
    192 H192       -2.9722  -18.8364  -41.6347 H         1 UNK         0.0600 
    193 H193       -1.2342  -18.6381  -41.7986 H         1 UNK         0.0600 
    194 H194       -1.9033  -20.1936  -41.3316 H         1 UNK         0.0600 
    195 H195       -1.8301  -22.2148  -43.0492 H         1 UNK         0.3000 
    196 H196       -4.5496  -23.1149  -43.0562 H         1 UNK         0.0600 
    197 H197       -1.9022  -24.6567  -43.1601 H         1 UNK         0.0600 
    198 H198       -2.7686  -24.1821  -41.7011 H         1 UNK         0.0600 
    199 H199       -3.4770  -25.3568  -42.8004 H         1 UNK         0.0600 
    200 H200       -1.9608  -23.1699  -45.5151 H         1 UNK         0.3000 
    201 H201       -3.1950  -24.8692  -47.3982 H         1 UNK         0.0600 
    202 H202       -1.1556  -22.6102  -47.7670 H         1 UNK         0.0600 
    203 H203       -1.5300  -23.8197  -48.9867 H         1 UNK         0.0600 
    204 H204       -0.7933  -24.3087  -47.4708 H         1 UNK         0.0600 
    205 H205       -4.0434  -24.3790  -49.5081 H         1 UNK         0.3000 
    206 H206       -5.0193  -21.8418  -50.2713 H         1 UNK         0.0600 
    207 H207       -7.4705  -22.3006  -50.1640 H         1 UNK         0.0600 
    208 H208       -7.1715  -23.8439  -49.3588 H         1 UNK         0.0600 
    209 H209       -6.8011  -22.3261  -48.5511 H         1 UNK         0.0600 
    210 H210       -7.2414  -23.4705  -51.7273 H         1 UNK         0.3000 
    211 H211       -7.5765  -24.4396  -53.6916 H         1 UNK         0.0600 
    212 H212       -6.5162  -26.6734  -54.0138 H         1 UNK         0.0600 
    213 H213       -7.0228  -26.4460  -52.3524 H         1 UNK         0.0600 
    214 H214       -5.3207  -26.3090  -52.7680 H         1 UNK         0.0600 
    215 H215       -4.6195  -25.7292  -54.6470 H         1 UNK         0.3000 
    216 H216       -4.4083  -24.1488  -56.9717 H         1 UNK         0.0600 
    217 H217       -2.3521  -25.9990  -55.6517 H         1 UNK         0.0600 
    218 H218       -2.2738  -25.4074  -57.3071 H         1 UNK         0.0600 
    219 H219       -3.5809  -26.4762  -56.8243 H         1 UNK         0.0600 
    220 H220       -2.8246  -23.7733  -53.8023 H         1 UNK         0.3000 
    221 H221       -0.8918  -21.7993  -54.7070 H         1 UNK         0.0600 
    222 H222       -0.3746  -23.1731  -52.7577 H         1 UNK         0.0600 
    223 H223       -1.8253  -22.6363  -51.9205 H         1 UNK         0.0600 
    224 H224       -0.5140  -21.5005  -52.2398 H         1 UNK         0.0600 
    225 H225       -4.1708  -21.7173  -53.3295 H         1 UNK         0.3000 
    226 H226       -4.3002  -18.8401  -53.0167 H         1 UNK         0.0600 
    227 H227       -6.5195  -20.9496  -53.1907 H         1 UNK         0.0600 
    228 H228       -5.8308  -20.2592  -51.7217 H         1 UNK         0.0600 
    229 H229       -6.7665  -19.2537  -52.8058 H         1 UNK         0.0600 
    230 H230       -5.2920  -21.1602  -55.5647 H         1 UNK         0.3000 
    231 H231       -6.3627  -19.2860  -57.3937 H         1 UNK         0.0600 
    232 H232       -5.0307  -21.9902  -57.9448 H         1 UNK         0.0600 
    233 H233       -6.0906  -21.1212  -59.0459 H         1 UNK         0.0600 
    234 H234       -6.7270  -21.7478  -57.5317 H         1 UNK         0.0600 
    235 H235       -2.9984  -20.4230  -56.9433 H         1 UNK         0.3000 
    236 H236       -1.8732  -19.0168  -59.1627 H         1 UNK         0.0600 
    237 H237       -0.7360  -20.9391  -58.1156 H         1 UNK         0.0600 
    238 H238        0.2929  -19.5183  -58.0212 H         1 UNK         0.0600 
    239 H239       -0.5761  -20.0658  -56.5933 H         1 UNK         0.0600 
    240 H240       -2.0068  -18.2045  -55.6328 H         1 UNK         0.3000 
    241 H241       -0.7616  -15.6361  -56.0401 H         1 UNK         0.0600 
    242 H242       -4.7763  -14.8961  -56.2077 H         1 UNK         0.3800 
    243 H243       -4.2684  -16.5431  -55.9368 H         1 UNK         0.3800 
    244 H244       -2.1027  -16.8503  -53.5834 H         1 UNK         0.0800 
    245 H245       -1.3511  -15.2689  -53.6040 H         1 UNK         0.0800 
    246 H246       -0.1486  -15.7787  -51.7097 H         1 UNK         0.0800 
    247 H247        1.5545  -16.0036  -51.9841 H         1 UNK         0.0800 
@<TRIPOS>BOND
     1    1    2 1    
     2    1  127 1    
     3    1  128 1    
     4    1  129 1    
     5    2    3 2    
     6    2    4 am   BACKBONE|DICT|INTERRES
     7    4    5 1    
     8    4  130 1    
     9    5    6 1    
    10    5   65 1    
    11    5  131 1    
    12    6    7 1    
    13    6  132 1    
    14    6  133 1    
    15    7    8 1    
    16    8    9 1    
    17    8  134 1    
    18    8  135 1    
    19    9   10 ar   
    20    9   14 ar   
    21   10   11 ar   
    22   10  136 1    
    23   11   12 ar   
    24   11  126 1    
    25   12   13 ar   
    26   12  137 1    
    27   13   14 ar   
    28   13   15 1    
    29   14  138 1    
    30   15   16 1    
    31   15  139 1    
    32   15  140 1    
    33   16   17 1    
    34   17   18 1    
    35   17  141 1    
    36   17  142 1    
    37   18   19 1    
    38   18   67 1    
    39   18  143 1    
    40   19   20 am   BACKBONE|DICT|INTERRES
    41   19  144 1    
    42   20   21 2    
    43   20   22 1    
    44   22   23 1    
    45   22   24 1    
    46   22  145 1    
    47   23  146 1    
    48   23  147 1    
    49   23  148 1    
    50   24   25 am   BACKBONE|DICT|INTERRES
    51   24  149 1    
    52   25   26 2    
    53   25   27 1    
    54   27   28 1    
    55   27   29 1    
    56   27  150 1    
    57   28  151 1    
    58   28  152 1    
    59   28  153 1    
    60   29   30 am   BACKBONE|DICT|INTERRES
    61   29  154 1    
    62   30   31 2    
    63   30   32 1    
    64   32   33 1    
    65   32   34 1    
    66   32  155 1    
    67   33  156 1    
    68   33  157 1    
    69   33  158 1    
    70   34   35 am   BACKBONE|DICT|INTERRES
    71   34  159 1    
    72   35   36 2    
    73   35   37 1    
    74   37   38 1    
    75   37   39 1    
    76   37  160 1    
    77   38  161 1    
    78   38  162 1    
    79   38  163 1    
    80   39   40 am   BACKBONE|DICT|INTERRES
    81   39  164 1    
    82   40   41 2    
    83   40   42 1    
    84   42   43 1    
    85   42   44 1    
    86   42  165 1    
    87   43  166 1    
    88   43  167 1    
    89   43  168 1    
    90   44   45 am   BACKBONE|DICT|INTERRES
    91   44  169 1    
    92   45   46 2    
    93   45   47 1    
    94   47   48 1    
    95   47   49 1    
    96   47  170 1    
    97   48  171 1    
    98   48  172 1    
    99   48  173 1    
   100   49   50 am   BACKBONE|DICT|INTERRES
   101   49  174 1    
   102   50   51 2    
   103   50   52 1    
   104   52   53 1    
   105   52   54 1    
   106   52  175 1    
   107   53  176 1    
   108   53  177 1    
   109   53  178 1    
   110   54   55 am   BACKBONE|DICT|INTERRES
   111   54  179 1    
   112   55   56 2    
   113   55   57 1    
   114   57   58 1    
   115   57   59 1    
   116   57  180 1    
   117   58  181 1    
   118   58  182 1    
   119   58  183 1    
   120   59   60 am   BACKBONE|DICT|INTERRES
   121   59  184 1    
   122   60   61 2    
   123   60   62 1    
   124   62   63 1    
   125   62   64 1    
   126   62  185 1    
   127   63  186 1    
   128   63  187 1    
   129   63  188 1    
   130   64   65 am   BACKBONE|DICT|INTERRES
   131   64  189 1    
   132   65   66 2    
   133   67   68 2    
   134   67   69 am   BACKBONE|DICT|INTERRES
   135   69   70 1    
   136   69  190 1    
   137   70   71 1    
   138   70   72 1    
   139   70  191 1    
   140   71  192 1    
   141   71  193 1    
   142   71  194 1    
   143   72   73 2    
   144   72   74 am   BACKBONE|DICT|INTERRES
   145   74   75 1    
   146   74  195 1    
   147   75   76 1    
   148   75   77 1    
   149   75  196 1    
   150   76  197 1    
   151   76  198 1    
   152   76  199 1    
   153   77   78 2    
   154   77   79 am   BACKBONE|DICT|INTERRES
   155   79   80 1    
   156   79  200 1    
   157   80   81 1    
   158   80   82 1    
   159   80  201 1    
   160   81  202 1    
   161   81  203 1    
   162   81  204 1    
   163   82   83 2    
   164   82   84 am   BACKBONE|DICT|INTERRES
   165   84   85 1    
   166   84  205 1    
   167   85   86 1    
   168   85   87 1    
   169   85  206 1    
   170   86  207 1    
   171   86  208 1    
   172   86  209 1    
   173   87   88 2    
   174   87   89 am   BACKBONE|DICT|INTERRES
   175   89   90 1    
   176   89  210 1    
   177   90   91 1    
   178   90   92 1    
   179   90  211 1    
   180   91  212 1    
   181   91  213 1    
   182   91  214 1    
   183   92   93 2    
   184   92   94 am   BACKBONE|DICT|INTERRES
   185   94   95 1    
   186   94  215 1    
   187   95   96 1    
   188   95   97 1    
   189   95  216 1    
   190   96  217 1    
   191   96  218 1    
   192   96  219 1    
   193   97   98 2    
   194   97   99 am   BACKBONE|DICT|INTERRES
   195   99  100 1    
   196   99  220 1    
   197  100  101 1    
   198  100  102 1    
   199  100  221 1    
   200  101  222 1    
   201  101  223 1    
   202  101  224 1    
   203  102  103 2    
   204  102  104 am   BACKBONE|DICT|INTERRES
   205  104  105 1    
   206  104  225 1    
   207  105  106 1    
   208  105  107 1    
   209  105  226 1    
   210  106  227 1    
   211  106  228 1    
   212  106  229 1    
   213  107  108 2    
   214  107  109 am   BACKBONE|DICT|INTERRES
   215  109  110 1    
   216  109  230 1    
   217  110  111 1    
   218  110  112 1    
   219  110  231 1    
   220  111  232 1    
   221  111  233 1    
   222  111  234 1    
   223  112  113 2    
   224  112  114 am   BACKBONE|DICT|INTERRES
   225  114  115 1    
   226  114  235 1    
   227  115  116 1    
   228  115  117 1    
   229  115  236 1    
   230  116  237 1    
   231  116  238 1    
   232  116  239 1    
   233  117  118 2    
   234  117  119 am   BACKBONE|DICT|INTERRES
   235  119  120 1    
   236  119  240 1    
   237  120  121 1    
   238  120  124 1    
   239  120  241 1    
   240  121  122 am   BACKBONE|DICT|INTERRES
   241  121  123 2    
   242  122  242 1    
   243  122  243 1    
   244  124  125 1    
   245  124  244 1    
   246  124  245 1    
   247  125  126 1    
   248  126  246 1    
   249  126  247 1    
@<TRIPOS>SUBSTRUCTURE
     1 UNK         1 GROUP             0       ****    0 ROOT    
