@<TRIPOS>MOLECULE
3R540
247   249    1
SMALL
USER_CHARGES


@<TRIPOS>ATOM
      1 CA         -4.9798  -13.1104  -48.1224 C.3       0 UNK        -0.1800 
      2 C          -5.2078  -13.3009  -46.6245 C.2       0 UNK         0.5000 
      3 O          -6.1216  -12.6901  -46.0747 O.2       0 UNK        -0.5000 
      4 N          -4.4142  -14.1171  -45.9161 N.am      1 UNK        -0.5000 
      5 CA         -3.2854  -14.9197  -46.4112 C.3       1 UNK         0.1400 
      6 C6         -3.0329  -16.1649  -45.5289 C.3       23 UNK        -0.0398 
      7 S7         -4.4648  -17.2882  -45.4561 S.3       23 UNK        -0.2404 
      8 C8         -3.6646  -18.8906  -45.1385 C.3       23 UNK        -0.0205 
      9 C9         -2.9080  -19.4150  -46.3508 C.ar      23 UNK        -0.0193 
     10 C10        -3.6037  -20.0048  -47.4104 C.ar      23 UNK        -0.1150 
     11 C11        -2.9147  -20.4993  -48.5212 C.ar      23 UNK        -0.0193 
     12 C12        -1.5239  -20.3816  -48.5742 C.ar      23 UNK        -0.1150 
     13 C13        -0.8165  -19.7873  -47.5278 C.ar      23 UNK        -0.0193 
     14 C14        -1.5133  -19.3254  -46.4081 C.ar      23 UNK        -0.1150 
     15 C15         0.6914  -19.6069  -47.6335 C.3       23 UNK        -0.0205 
     16 S16         1.6035  -21.1802  -47.6287 S.3       23 UNK        -0.2404 
     17 C17         1.4492  -21.6836  -45.8866 C.3       23 UNK        -0.0398 
     18 CA          0.8959  -23.1169  -45.7012 C.3       11 UNK         0.1400 
     19 N           1.1235  -23.5947  -44.3354 N.am      11 UNK        -0.5000 
     20 C           0.9496  -24.8551  -43.9136 C.2       10 UNK         0.5000 
     21 O           0.6241  -25.7878  -44.6472 O.2       10 UNK        -0.5000 
     22 CA          1.1197  -25.0939  -42.4016 C.3       10 UNK         0.1400 
     23 CB          2.6004  -25.2962  -42.0480 C.3       10 UNK        -0.1800 
     24 N           0.5747  -23.9928  -41.6031 N.am      10 UNK        -0.5000 
     25 C          -0.7301  -23.6923  -41.5258 C.2       9 UNK         0.5000 
     26 O          -1.6119  -24.3565  -42.0670 O.2       9 UNK        -0.5000 
     27 CA         -1.1087  -22.4087  -40.7626 C.3       9 UNK         0.1400 
     28 CB         -1.3239  -22.7100  -39.2723 C.3       9 UNK        -0.1800 
     29 N          -0.1118  -21.3438  -40.9063 N.am      9 UNK        -0.5000 
     30 C           0.1819  -20.7316  -42.0608 C.2       8 UNK         0.5000 
     31 O          -0.3713  -20.9916  -43.1315 O.2       8 UNK        -0.5000 
     32 CA          1.3511  -19.7339  -42.0162 C.3       8 UNK         0.1400 
     33 CB          2.6881  -20.4803  -42.1531 C.3       8 UNK        -0.1800 
     34 N           1.2770  -18.7242  -43.0705 N.am      8 UNK        -0.5000 
     35 C           0.4685  -17.6572  -43.0567 C.2       7 UNK         0.5000 
     36 O          -0.3809  -17.4681  -42.1847 O.2       7 UNK        -0.5000 
     37 CA          0.6355  -16.6183  -44.1941 C.3       7 UNK         0.1400 
     38 CB          0.4646  -15.1724  -43.6871 C.3       7 UNK        -0.1800 
     39 N           1.8693  -16.7254  -44.9872 N.am      7 UNK        -0.5000 
     40 C           3.1382  -16.6545  -44.5536 C.2       6 UNK         0.5000 
     41 O           3.4681  -16.5592  -43.3717 O.2       6 UNK        -0.5000 
     42 CA          4.2205  -16.6862  -45.6461 C.3       6 UNK         0.1400 
     43 CB          4.3518  -18.0926  -46.2537 C.3       6 UNK        -0.1800 
     44 N           3.9584  -15.7158  -46.7092 N.am      6 UNK        -0.5000 
     45 C           4.0167  -14.3861  -46.5641 C.2       5 UNK         0.5000 
     46 O           4.3159  -13.8296  -45.5071 O.2       5 UNK        -0.5000 
     47 CA          3.6950  -13.5209  -47.7970 C.3       5 UNK         0.1400 
     48 CB          4.9197  -13.3904  -48.7224 C.3       5 UNK        -0.1800 
     49 N           2.4969  -13.9242  -48.5437 N.am      5 UNK        -0.5000 
     50 C           2.2777  -15.0222  -49.2839 C.2       4 UNK         0.5000 
     51 O           3.0920  -15.9395  -49.3963 O.2       4 UNK        -0.5000 
     52 CA          0.9207  -15.1322  -50.0109 C.3       4 UNK         0.1400 
     53 CB          0.1845  -16.4220  -49.6137 C.3       4 UNK        -0.1800 
     54 N           0.0492  -13.9826  -49.7562 N.am      4 UNK        -0.5000 
     55 C           0.0570  -12.8460  -50.4693 C.2       3 UNK         0.5000 
     56 O           0.7563  -12.6773  -51.4682 O.2       3 UNK        -0.5000 
     57 CA         -0.8394  -11.6880  -49.9808 C.3       3 UNK         0.1400 
     58 CB         -2.1426  -11.6310  -50.7917 C.3       3 UNK        -0.1800 
     59 N          -1.1735  -11.7544  -48.5572 N.am      3 UNK        -0.5000 
     60 C          -0.2976  -11.6605  -47.5473 C.2       2 UNK         0.5000 
     61 O           0.9045  -11.4484  -47.7044 O.2       2 UNK        -0.5000 
     62 CA         -0.8491  -11.9096  -46.1291 C.3       2 UNK         0.1400 
     63 CB         -1.2531  -10.5837  -45.4685 C.3       2 UNK        -0.1800 
     64 N          -1.9891  -12.8342  -46.0870 N.am      2 UNK        -0.5000 
     65 C          -1.9813  -14.1002  -46.5335 C.2       1 UNK         0.5000 
     66 O          -0.9898  -14.6252  -47.0386 O.2       1 UNK        -0.5000 
     67 C          -0.5937  -23.2302  -46.0846 C.2       11 UNK         0.5000 
     68 O          -0.9035  -23.6986  -47.1810 O.2       11 UNK        -0.5000 
     69 N          -1.4773  -22.8600  -45.1459 N.am      12 UNK        -0.5000 
     70 CA         -2.9288  -22.9871  -45.2579 C.3       12 UNK         0.1400 
     71 CB         -3.5946  -22.2909  -44.0603 C.3       12 UNK        -0.1800 
     72 C          -3.3916  -24.4511  -45.3545 C.2       12 UNK         0.5000 
     73 O          -4.2227  -24.7664  -46.2055 O.2       12 UNK        -0.5000 
     74 N          -2.8332  -25.3168  -44.4958 N.am      13 UNK        -0.5000 
     75 CA         -3.1192  -26.7518  -44.4448 C.3       13 UNK         0.1400 
     76 CB         -2.4686  -27.3619  -43.1940 C.3       13 UNK        -0.1800 
     77 C          -2.6673  -27.4981  -45.7121 C.2       13 UNK         0.5000 
     78 O          -3.4048  -28.3491  -46.2111 O.2       13 UNK        -0.5000 
     79 N          -1.4788  -27.1493  -46.2234 N.am      14 UNK        -0.5000 
     80 CA         -0.9467  -27.6549  -47.4900 C.3       14 UNK         0.1400 
     81 CB          0.5555  -27.3388  -47.5583 C.3       14 UNK        -0.1800 
     82 C          -1.6654  -27.0683  -48.7209 C.2       14 UNK         0.5000 
     83 O          -1.6599  -27.6985  -49.7789 O.2       14 UNK        -0.5000 
     84 N          -2.2368  -25.8654  -48.5590 N.am      15 UNK        -0.5000 
     85 CA         -2.8217  -24.9938  -49.5812 C.3       15 UNK         0.1400 
     86 CB         -4.1090  -25.6083  -50.1658 C.3       15 UNK        -0.1800 
     87 C          -1.7824  -24.6071  -50.6553 C.2       15 UNK         0.5000 
     88 O          -2.0840  -24.6214  -51.8492 O.2       15 UNK        -0.5000 
     89 N          -0.5553  -24.3172  -50.1991 N.am      16 UNK        -0.5000 
     90 CA          0.6550  -24.2963  -51.0232 C.3       16 UNK         0.1400 
     91 CB          1.8873  -24.2469  -50.1089 C.3       16 UNK        -0.1800 
     92 C           0.7096  -23.1773  -52.0787 C.2       16 UNK         0.5000 
     93 O           1.2796  -23.3942  -53.1489 O.2       16 UNK        -0.5000 
     94 N           0.1251  -22.0103  -51.7730 N.am      17 UNK        -0.5000 
     95 CA          0.0677  -20.8719  -52.6971 C.3       17 UNK         0.1400 
     96 CB         -0.1744  -19.5707  -51.9170 C.3       17 UNK        -0.1800 
     97 C          -0.9839  -21.0587  -53.8084 C.2       17 UNK         0.5000 
     98 O          -0.8013  -20.5185  -54.8995 O.2       17 UNK        -0.5000 
     99 N          -2.0454  -21.8253  -53.5123 N.am      18 UNK        -0.5000 
    100 CA        -3.1591  -22.2830  -54.3587 C.3       18 UNK         0.1400 
    101 CB        -2.6388  -23.2329  -55.4531 C.3       18 UNK        -0.1800 
    102 C         -4.0678  -21.1944  -54.9747 C.2       18 UNK         0.5000 
    103 O         -5.2738  -21.4163  -55.0953 O.2       18 UNK        -0.5000 
    104 N         -3.4839  -20.0658  -55.3843 N.am      19 UNK        -0.5000 
    105 CA        -4.1345  -18.9272  -56.0271 C.3       19 UNK         0.1400 
    106 CB        -3.0420  -18.1145  -56.7474 C.3       19 UNK        -0.1800 
    107 C         -4.9257  -18.0462  -55.0375 C.2       19 UNK         0.5000 
    108 O         -4.9877  -18.3316  -53.8402 O.2       19 UNK        -0.5000 
    109 N         -5.4707  -16.9351  -55.5535 N.am      20 UNK        -0.5000 
    110 CA        -6.2170  -15.9031  -54.8189 C.3       20 UNK         0.1400 
    111 CB        -6.7902  -14.9024  -55.8358 C.3       20 UNK        -0.1800 
    112 C         -5.4184  -15.1660  -53.7171 C.2       20 UNK         0.5000 
    113 O         -6.0004  -14.3730  -52.9767 O.2       20 UNK        -0.5000 
    114 N         -4.1115  -15.4435  -53.6160 N.am      21 UNK        -0.5000 
    115 CA        -3.2366  -15.0506  -52.5133 C.3       21 UNK         0.1400 
    116 CB        -1.7900  -15.3912  -52.8994 C.3       21 UNK        -0.1800 
    117 C         -3.6105  -15.7175  -51.1711 C.2       21 UNK         0.5000 
    118 O         -3.3062  -15.1562  -50.1187 O.2       21 UNK        -0.5000 
    119 N         -4.2603  -16.8886  -51.2286 N.am      22 UNK        -0.5000 
    120 CA        -4.8563  -17.5787  -50.0760 C.3       22 UNK         0.1400 
    121 C         -6.0665  -16.7949  -49.4956 C.2       22 UNK         0.5000 
    122 N         -6.2096  -16.7306  -48.1801 N.am      22 UNK        -0.7600 
    123 O         -6.9142  -16.2924  -50.2293 O.2       22 UNK        -0.5000 
    124 C124       -5.3066  -19.0145  -50.4451 C.3       23 UNK        -0.0398 
    125 S125       -3.9484  -20.0637  -51.0595 S.3       23 UNK        -0.2404 
    126 C126       -3.6609  -21.1800  -49.6569 C.3       23 UNK        -0.0205 
    127 H127       -3.9240  -13.0358  -48.3737 H         1 UNK         0.0600 
    128 H128       -5.4625  -12.1959  -48.4675 H         1 UNK         0.0600 
    129 H129       -5.4086  -13.9435  -48.6779 H         1 UNK         0.0600 
    130 H130       -4.6127  -14.2317  -44.9323 H         1 UNK         0.3000 
    131 H131       -3.5245  -15.2772  -47.4144 H         1 UNK         0.0600 
    132 H132       -2.7617  -15.8797  -44.5108 H         1 UNK         0.0800 
    133 H133       -2.1909  -16.7252  -45.9316 H         1 UNK         0.0800 
    134 H134       -3.0038  -18.8060  -44.2738 H         1 UNK         0.0800 
    135 H135       -4.4410  -19.6048  -44.8632 H         1 UNK         0.0800 
    136 H136       -4.6802  -20.0882  -47.3624 H         1 UNK         0.1150 
    137 H137       -0.9853  -20.7548  -49.4300 H         1 UNK         0.1150 
    138 H138       -0.9725  -18.8855  -45.5843 H         1 UNK         0.1150 
    139 H139        0.9183  -19.0923  -48.5658 H         1 UNK         0.0800 
    140 H140        1.0644  -18.9671  -46.8337 H         1 UNK         0.0800 
    141 H141        0.8454  -20.9565  -45.3449 H         1 UNK         0.0800 
    142 H142        2.4502  -21.6194  -45.4590 H         1 UNK         0.0800 
    143 H143        1.4525  -23.7814  -46.3660 H         1 UNK         0.0600 
    144 H144        1.3376  -22.8914  -43.6460 H         1 UNK         0.3000 
    145 H145        0.5780  -26.0062  -42.1433 H         1 UNK         0.0600 
    146 H146        2.7238  -25.5363  -40.9918 H         1 UNK         0.0600 
    147 H147        3.0282  -26.1209  -42.6197 H         1 UNK         0.0600 
    148 H148        3.1934  -24.4060  -42.2617 H         1 UNK         0.0600 
    149 H149        1.2357  -23.4088  -41.1133 H         1 UNK         0.3000 
    150 H150       -2.0512  -22.0448  -41.1770 H         1 UNK         0.0600 
    151 H151       -0.4071  -23.0558  -38.7933 H         1 UNK         0.0600 
    152 H152       -2.0783  -23.4864  -39.1367 H         1 UNK         0.0600 
    153 H153       -1.6703  -21.8257  -38.7372 H         1 UNK         0.0600 
    154 H154        0.3914  -21.0842  -40.0699 H         1 UNK         0.3000 
    155 H155        1.3354  -19.2248  -41.0500 H         1 UNK         0.0600 
    156 H156        2.7663  -21.0021  -43.1068 H         1 UNK         0.0600 
    157 H157        2.8111  -21.2210  -41.3620 H         1 UNK         0.0600 
    158 H158        3.5303  -19.7915  -42.0808 H         1 UNK         0.0600 
    159 H159        1.9402  -18.8075  -43.8243 H         1 UNK         0.3000 
    160 H160       -0.1747  -16.8118  -44.8934 H         1 UNK         0.0600 
    161 H161        1.2099  -14.9203  -42.9321 H         1 UNK         0.0600 
    162 H162       -0.5194  -15.0211  -43.2421 H         1 UNK         0.0600 
    163 H163        0.5622  -14.4580  -44.5040 H         1 UNK         0.0600 
    164 H164        1.7323  -16.7774  -45.9859 H         1 UNK         0.3000 
    165 H165        5.1736  -16.4298  -45.1785 H         1 UNK         0.0600 
    166 H166        5.1980  -18.1443  -46.9390 H         1 UNK         0.0600 
    167 H167        4.5170  -18.8421  -45.4785 H         1 UNK         0.0600 
    168 H168        3.4597  -18.3831  -46.8087 H         1 UNK         0.0600 
    169 H169        3.7190  -16.0734  -47.6304 H         1 UNK         0.3000 
    170 H170        3.4722  -12.5216  -47.4197 H         1 UNK         0.0600 
    171 H171        5.7735  -12.9825  -48.1800 H         1 UNK         0.0600 
    172 H172        5.2272  -14.3519  -49.1342 H         1 UNK         0.0600 
    173 H173        4.7135  -12.7186  -49.5557 H         1 UNK         0.0600 
    174 H174        1.7409  -13.2519  -48.4894 H         1 UNK         0.3000 
    175 H175        1.1355  -15.1908  -51.0797 H         1 UNK         0.0600 
    176 H176        0.0651  -16.5102  -48.5338 H         1 UNK         0.0600 
    177 H177       -0.8055  -16.4769  -50.0650 H         1 UNK         0.0600 
    178 H178        0.7404  -17.2930  -49.9573 H         1 UNK         0.0600 
    179 H179       -0.5343  -14.0508  -48.9288 H         1 UNK         0.3000 
    180 H180       -0.2895  -10.7604  -50.1524 H         1 UNK         0.0600 
    181 H181       -2.7747  -12.4961  -50.5931 H         1 UNK         0.0600 
    182 H182       -1.9401  -11.6083  -51.8633 H         1 UNK         0.0600 
    183 H183       -2.7169  -10.7361  -50.5514 H         1 UNK         0.0600 
    184 H184       -2.1395  -11.9318  -48.3303 H         1 UNK         0.3000 
    185 H185       -0.0423  -12.3517  -45.5420 H         1 UNK         0.0600 
    186 H186       -0.4203   -9.8791  -45.4644 H         1 UNK         0.0600 
    187 H187       -2.0829  -10.1087  -45.9935 H         1 UNK         0.0600 
    188 H188       -1.5533  -10.7347  -44.4314 H         1 UNK         0.0600 
    189 H189       -2.8389  -12.4842  -45.6681 H         1 UNK         0.3000 
    190 H190       -1.1256  -22.4282  -44.2978 H         1 UNK         0.3000 
    191 H191       -3.2318  -22.4752  -46.1721 H         1 UNK         0.0600 
    192 H192       -3.1444  -21.3194  -43.8631 H         1 UNK         0.0600 
    193 H193       -4.6575  -22.1352  -44.2465 H         1 UNK         0.0600 
    194 H194       -3.5086  -22.8767  -43.1456 H         1 UNK         0.0600 
    195 H195       -2.2078  -24.9557  -43.7805 H         1 UNK         0.3000 
    196 H196       -4.2009  -26.8721  -44.3571 H         1 UNK         0.0600 
    197 H197       -2.6800  -28.4296  -43.1242 H         1 UNK         0.0600 
    198 H198       -2.8485  -26.8953  -42.2850 H         1 UNK         0.0600 
    199 H199       -1.3851  -27.2408  -43.2044 H         1 UNK         0.0600 
    200 H200       -0.8977  -26.4878  -45.7166 H         1 UNK         0.3000 
    201 H201       -1.0720  -28.7393  -47.5141 H         1 UNK         0.0600 
    202 H202        0.9932  -27.7050  -48.4879 H         1 UNK         0.0600 
    203 H203        1.0948  -27.8097  -46.7363 H         1 UNK         0.0600 
    204 H204        0.7408  -26.2650  -47.5068 H         1 UNK         0.0600 
    205 H205       -2.1288  -25.4273  -47.6526 H         1 UNK         0.3000 
    206 H206       -3.0993  -24.0779  -49.0604 H         1 UNK         0.0600 
    207 H207       -4.8148  -25.8638  -49.3754 H         1 UNK         0.0600 
    208 H208       -4.6082  -24.9041  -50.8324 H         1 UNK         0.0600 
    209 H209       -3.9041  -26.5127  -50.7392 H         1 UNK         0.0600 
    210 H210       -0.4273  -24.2693  -49.1941 H         1 UNK         0.3000 
    211 H211        0.6868  -25.2435  -51.5661 H         1 UNK         0.0600 
    212 H212        1.9034  -23.3389  -49.5086 H         1 UNK         0.0600 
    213 H213        2.8088  -24.2702  -50.6920 H         1 UNK         0.0600 
    214 H214        1.9121  -25.0993  -49.4303 H         1 UNK         0.0600 
    215 H215       -0.3095  -21.9094  -50.8693 H         1 UNK         0.3000 
    216 H216        1.0405  -20.7795  -53.1853 H         1 UNK         0.0600 
    217 H217       -0.1273  -18.7060  -52.5801 H         1 UNK         0.0600 
    218 H218        0.5821  -19.4293  -51.1456 H         1 UNK         0.0600 
    219 H219       -1.1516  -19.5553  -51.4386 H         1 UNK         0.0600 
    220 H220       -2.0630  -22.2134  -52.5804 H         1 UNK         0.3000 
    221 H221       -3.7970  -22.8696  -53.6957 H         1 UNK         0.0600 
    222 H222       -1.9748  -22.7218  -56.1509 H         1 UNK         0.0600 
    223 H223       -2.0899  -24.0684  -55.0177 H         1 UNK         0.0600 
    224 H224       -3.4628  -23.6516  -56.0321 H         1 UNK         0.0600 
    225 H225       -2.4778  -20.0006  -55.2498 H         1 UNK         0.3000 
    226 H226       -4.8379  -19.3058  -56.7712 H         1 UNK         0.0600 
    227 H227       -2.4697  -18.7451  -57.4285 H         1 UNK         0.0600 
    228 H228       -3.4642  -17.3069  -57.3461 H         1 UNK         0.0600 
    229 H229       -2.3401  -17.6707  -56.0398 H         1 UNK         0.0600 
    230 H230       -5.3601  -16.7666  -56.5430 H         1 UNK         0.3000 
    231 H231       -7.0524  -16.3980  -54.3197 H         1 UNK         0.0600 
    232 H232       -5.9984  -14.3863  -56.3802 H         1 UNK         0.0600 
    233 H233       -7.3975  -14.1426  -55.3418 H         1 UNK         0.0600 
    234 H234       -7.4305  -15.4009  -56.5639 H         1 UNK         0.0600 
    235 H235       -3.7269  -16.1008  -54.2769 H         1 UNK         0.3000 
    236 H236       -3.3195  -13.9702  -52.3868 H         1 UNK         0.0600 
    237 H237       -1.4980  -14.8930  -53.8239 H         1 UNK         0.0600 
    238 H238       -1.0965  -15.0656  -52.1269 H         1 UNK         0.0600 
    239 H239       -1.6504  -16.4647  -53.0343 H         1 UNK         0.0600 
    240 H240       -4.4689  -17.2943  -52.1346 H         1 UNK         0.3000 
    241 H241       -4.0890  -17.6483  -49.3020 H         1 UNK         0.0600 
    242 H242       -5.5436  -17.1418  -47.5421 H         1 UNK         0.3800 
    243 H243       -7.0135  -16.2518  -47.8069 H         1 UNK         0.3800 
    244 H244       -5.7741  -19.5018  -49.5882 H         1 UNK         0.0800 
    245 H245       -6.0713  -18.9805  -51.2235 H         1 UNK         0.0800 
    246 H246       -4.6044  -21.6038  -49.3096 H         1 UNK         0.0800 
    247 H247       -3.0664  -22.0147  -50.0220 H         1 UNK         0.0800 
@<TRIPOS>BOND
     1    1    2 1    
     2    1  127 1    
     3    1  128 1    
     4    1  129 1    
     5    2    3 2    
     6    2    4 am   BACKBONE|DICT|INTERRES
     7    4    5 1    
     8    4  130 1    
     9    5    6 1    
    10    5   65 1    
    11    5  131 1    
    12    6    7 1    
    13    6  132 1    
    14    6  133 1    
    15    7    8 1    
    16    8    9 1    
    17    8  134 1    
    18    8  135 1    
    19    9   10 ar   
    20    9   14 ar   
    21   10   11 ar   
    22   10  136 1    
    23   11   12 ar   
    24   11  126 1    
    25   12   13 ar   
    26   12  137 1    
    27   13   14 ar   
    28   13   15 1    
    29   14  138 1    
    30   15   16 1    
    31   15  139 1    
    32   15  140 1    
    33   16   17 1    
    34   17   18 1    
    35   17  141 1    
    36   17  142 1    
    37   18   19 1    
    38   18   67 1    
    39   18  143 1    
    40   19   20 am   BACKBONE|DICT|INTERRES
    41   19  144 1    
    42   20   21 2    
    43   20   22 1    
    44   22   23 1    
    45   22   24 1    
    46   22  145 1    
    47   23  146 1    
    48   23  147 1    
    49   23  148 1    
    50   24   25 am   BACKBONE|DICT|INTERRES
    51   24  149 1    
    52   25   26 2    
    53   25   27 1    
    54   27   28 1    
    55   27   29 1    
    56   27  150 1    
    57   28  151 1    
    58   28  152 1    
    59   28  153 1    
    60   29   30 am   BACKBONE|DICT|INTERRES
    61   29  154 1    
    62   30   31 2    
    63   30   32 1    
    64   32   33 1    
    65   32   34 1    
    66   32  155 1    
    67   33  156 1    
    68   33  157 1    
    69   33  158 1    
    70   34   35 am   BACKBONE|DICT|INTERRES
    71   34  159 1    
    72   35   36 2    
    73   35   37 1    
    74   37   38 1    
    75   37   39 1    
    76   37  160 1    
    77   38  161 1    
    78   38  162 1    
    79   38  163 1    
    80   39   40 am   BACKBONE|DICT|INTERRES
    81   39  164 1    
    82   40   41 2    
    83   40   42 1    
    84   42   43 1    
    85   42   44 1    
    86   42  165 1    
    87   43  166 1    
    88   43  167 1    
    89   43  168 1    
    90   44   45 am   BACKBONE|DICT|INTERRES
    91   44  169 1    
    92   45   46 2    
    93   45   47 1    
    94   47   48 1    
    95   47   49 1    
    96   47  170 1    
    97   48  171 1    
    98   48  172 1    
    99   48  173 1    
   100   49   50 am   BACKBONE|DICT|INTERRES
   101   49  174 1    
   102   50   51 2    
   103   50   52 1    
   104   52   53 1    
   105   52   54 1    
   106   52  175 1    
   107   53  176 1    
   108   53  177 1    
   109   53  178 1    
   110   54   55 am   BACKBONE|DICT|INTERRES
   111   54  179 1    
   112   55   56 2    
   113   55   57 1    
   114   57   58 1    
   115   57   59 1    
   116   57  180 1    
   117   58  181 1    
   118   58  182 1    
   119   58  183 1    
   120   59   60 am   BACKBONE|DICT|INTERRES
   121   59  184 1    
   122   60   61 2    
   123   60   62 1    
   124   62   63 1    
   125   62   64 1    
   126   62  185 1    
   127   63  186 1    
   128   63  187 1    
   129   63  188 1    
   130   64   65 am   BACKBONE|DICT|INTERRES
   131   64  189 1    
   132   65   66 2    
   133   67   68 2    
   134   67   69 am   BACKBONE|DICT|INTERRES
   135   69   70 1    
   136   69  190 1    
   137   70   71 1    
   138   70   72 1    
   139   70  191 1    
   140   71  192 1    
   141   71  193 1    
   142   71  194 1    
   143   72   73 2    
   144   72   74 am   BACKBONE|DICT|INTERRES
   145   74   75 1    
   146   74  195 1    
   147   75   76 1    
   148   75   77 1    
   149   75  196 1    
   150   76  197 1    
   151   76  198 1    
   152   76  199 1    
   153   77   78 2    
   154   77   79 am   BACKBONE|DICT|INTERRES
   155   79   80 1    
   156   79  200 1    
   157   80   81 1    
   158   80   82 1    
   159   80  201 1    
   160   81  202 1    
   161   81  203 1    
   162   81  204 1    
   163   82   83 2    
   164   82   84 am   BACKBONE|DICT|INTERRES
   165   84   85 1    
   166   84  205 1    
   167   85   86 1    
   168   85   87 1    
   169   85  206 1    
   170   86  207 1    
   171   86  208 1    
   172   86  209 1    
   173   87   88 2    
   174   87   89 am   BACKBONE|DICT|INTERRES
   175   89   90 1    
   176   89  210 1    
   177   90   91 1    
   178   90   92 1    
   179   90  211 1    
   180   91  212 1    
   181   91  213 1    
   182   91  214 1    
   183   92   93 2    
   184   92   94 am   BACKBONE|DICT|INTERRES
   185   94   95 1    
   186   94  215 1    
   187   95   96 1    
   188   95   97 1    
   189   95  216 1    
   190   96  217 1    
   191   96  218 1    
   192   96  219 1    
   193   97   98 2    
   194   97   99 am   BACKBONE|DICT|INTERRES
   195   99  100 1    
   196   99  220 1    
   197  100  101 1    
   198  100  102 1    
   199  100  221 1    
   200  101  222 1    
   201  101  223 1    
   202  101  224 1    
   203  102  103 2    
   204  102  104 am   BACKBONE|DICT|INTERRES
   205  104  105 1    
   206  104  225 1    
   207  105  106 1    
   208  105  107 1    
   209  105  226 1    
   210  106  227 1    
   211  106  228 1    
   212  106  229 1    
   213  107  108 2    
   214  107  109 am   BACKBONE|DICT|INTERRES
   215  109  110 1    
   216  109  230 1    
   217  110  111 1    
   218  110  112 1    
   219  110  231 1    
   220  111  232 1    
   221  111  233 1    
   222  111  234 1    
   223  112  113 2    
   224  112  114 am   BACKBONE|DICT|INTERRES
   225  114  115 1    
   226  114  235 1    
   227  115  116 1    
   228  115  117 1    
   229  115  236 1    
   230  116  237 1    
   231  116  238 1    
   232  116  239 1    
   233  117  118 2    
   234  117  119 am   BACKBONE|DICT|INTERRES
   235  119  120 1    
   236  119  240 1    
   237  120  121 1    
   238  120  124 1    
   239  120  241 1    
   240  121  122 am   BACKBONE|DICT|INTERRES
   241  121  123 2    
   242  122  242 1    
   243  122  243 1    
   244  124  125 1    
   245  124  244 1    
   246  124  245 1    
   247  125  126 1    
   248  126  246 1    
   249  126  247 1    
@<TRIPOS>SUBSTRUCTURE
     1 UNK         1 GROUP             0       ****    0 ROOT    
