@<TRIPOS>MOLECULE
3R540
247   249    1
SMALL
USER_CHARGES


@<TRIPOS>ATOM
      1 CA         -2.3672  -13.1597  -48.6096 C.3       0 UNK        -0.1800 
      2 C          -1.0045  -13.5207  -48.0394 C.2       0 UNK         0.5000 
      3 O          -0.2262  -12.6253  -47.7143 O.2       0 UNK        -0.5000 
      4 N          -0.7178  -14.8229  -47.9093 N.am      1 UNK        -0.5000 
      5 CA          0.5095  -15.3402  -47.2874 C.3       1 UNK         0.1400 
      6 C6          0.8660  -16.7650  -47.7786 C.3       23 UNK        -0.0398 
      7 S7          1.2909  -16.7849  -49.5585 S.3       23 UNK        -0.2404 
      8 C8          0.0547  -17.9093  -50.2861 C.3       23 UNK        -0.0205 
      9 C9         -1.3621  -17.3935  -50.1016 C.ar      23 UNK        -0.0193 
     10 C10        -1.8732  -16.3948  -50.9349 C.ar      23 UNK        -0.1150 
     11 C11        -3.1654  -15.8989  -50.7339 C.ar      23 UNK        -0.0193 
     12 C12        -3.9344  -16.3889  -49.6735 C.ar      23 UNK        -0.1150 
     13 C13        -3.4275  -17.3782  -48.8279 C.ar      23 UNK        -0.0193 
     14 C14        -2.1560  -17.9023  -49.0737 C.ar      23 UNK        -0.1150 
     15 C15        -4.2470  -17.8828  -47.6504 C.3       23 UNK        -0.0205 
     16 S16        -3.2684  -17.8945  -46.1082 S.3       23 UNK        -0.2404 
     17 C17        -4.0142  -19.2991  -45.2196 C.3       23 UNK        -0.0398 
     18 CA         -3.6056  -20.6691  -45.8145 C.3       11 UNK         0.1400 
     19 N          -2.1557  -20.8650  -45.9059 N.am      11 UNK        -0.5000 
     20 C          -1.5677  -21.7715  -46.6985 C.2       10 UNK         0.5000 
     21 O          -2.1885  -22.5188  -47.4526 O.2       10 UNK        -0.5000 
     22 CA         -0.0373  -21.8950  -46.6115 C.3       10 UNK         0.1400 
     23 CB          0.6359  -20.8684  -47.5325 C.3       10 UNK        -0.1800 
     24 N           0.4517  -21.7368  -45.2418 N.am      10 UNK        -0.5000 
     25 C           0.2065  -22.6178  -44.2579 C.2       9 UNK         0.5000 
     26 O          -0.3917  -23.6778  -44.4331 O.2       9 UNK        -0.5000 
     27 CA          0.6465  -22.2366  -42.8302 C.3       9 UNK         0.1400 
     28 CB          2.0513  -22.7836  -42.5386 C.3       9 UNK        -0.1800 
     29 N           0.6335  -20.7954  -42.5835 N.am      9 UNK        -0.5000 
     30 C          -0.4298  -19.9901  -42.7159 C.2       8 UNK         0.5000 
     31 O          -1.5668  -20.3970  -42.9589 O.2       8 UNK        -0.5000 
     32 CA         -0.1697  -18.4735  -42.6251 C.3       8 UNK         0.1400 
     33 CB         -0.6284  -17.9366  -41.2609 C.3       8 UNK        -0.1800 
     34 N           1.2288  -18.0828  -42.8509 N.am      8 UNK        -0.5000 
     35 C           1.9359  -18.2995  -43.9718 C.2       7 UNK         0.5000 
     36 O           1.4800  -18.8813  -44.9578 O.2       7 UNK        -0.5000 
     37 CA          3.3902  -17.7956  -43.9601 C.3       7 UNK         0.1400 
     38 CB          4.0525  -17.7811  -45.3494 C.3       7 UNK        -0.1800 
     39 N           3.4469  -16.4531  -43.3852 N.am      7 UNK        -0.5000 
     40 C           4.2746  -16.0597  -42.4115 C.2       6 UNK         0.5000 
     41 O           5.0902  -16.8129  -41.8760 O.2       6 UNK        -0.5000 
     42 CA          4.1535  -14.5971  -41.9286 C.3       6 UNK         0.1400 
     43 CB          5.4483  -14.0817  -41.2663 C.3       6 UNK        -0.1800 
     44 N           3.6904  -13.6352  -42.9355 N.am      6 UNK        -0.5000 
     45 C           4.2737  -13.3237  -44.1046 C.2       5 UNK         0.5000 
     46 O           5.2388  -13.9288  -44.5727 O.2       5 UNK        -0.5000 
     47 CA          3.7268  -12.0921  -44.8615 C.3       5 UNK         0.1400 
     48 CB          2.9215  -12.4874  -46.1065 C.3       5 UNK        -0.1800 
     49 N           2.9105  -11.2092  -44.0245 N.am      5 UNK        -0.5000 
     50 C           3.4086  -10.3651  -43.1102 C.2       4 UNK         0.5000 
     51 O           4.6146  -10.1866  -42.9350 O.2       4 UNK        -0.5000 
     52 CA          2.4010   -9.6008  -42.2273 C.3       4 UNK         0.1400 
     53 CB          2.1751   -8.1838  -42.7768 C.3       4 UNK        -0.1800 
     54 N           1.0996  -10.2570  -42.0619 N.am      4 UNK        -0.5000 
     55 C           0.8932  -11.4631  -41.5154 C.2       3 UNK         0.5000 
     56 O           1.8023  -12.2084  -41.1472 O.2       3 UNK        -0.5000 
     57 CA         -0.5654  -11.9352  -41.3480 C.3       3 UNK         0.1400 
     58 CB         -1.6314  -10.8971  -41.7693 C.3       3 UNK        -0.1800 
     59 N          -0.7926  -13.2197  -42.0166 N.am      3 UNK        -0.5000 
     60 C          -0.6823  -13.4753  -43.3281 C.2       2 UNK         0.5000 
     61 O          -0.3676  -12.6267  -44.1660 O.2       2 UNK        -0.5000 
     62 CA         -0.9990  -14.9254  -43.7535 C.3       2 UNK         0.1400 
     63 CB         -2.4563  -15.2986  -43.4297 C.3       2 UNK        -0.1800 
     64 N          -0.7641  -15.1636  -45.1769 N.am      2 UNK        -0.5000 
     65 C           0.4443  -15.2738  -45.7442 C.2       1 UNK         0.5000 
     66 O           1.4897  -15.2968  -45.0946 O.2       1 UNK        -0.5000 
     67 C          -4.2775  -21.8263  -45.0568 C.2       11 UNK         0.5000 
     68 O          -5.3327  -22.2925  -45.4870 O.2       11 UNK        -0.5000 
     69 N          -3.6254  -22.3195  -43.9930 N.am      12 UNK        -0.5000 
     70 CA         -4.0317  -23.5215  -43.2563 C.3       12 UNK         0.1400 
     71 CB         -3.1343  -23.6932  -42.0223 C.3       12 UNK        -0.1800 
     72 C          -4.0098  -24.7925  -44.1317 C.2       12 UNK         0.5000 
     73 O          -4.8624  -25.6646  -43.9658 O.2       12 UNK        -0.5000 
     74 N          -3.0687  -24.8410  -45.0833 N.am      13 UNK        -0.5000 
     75 CA         -2.9420  -25.8659  -46.1183 C.3       13 UNK         0.1400 
     76 CB         -1.4619  -25.9701  -46.5252 C.3       13 UNK        -0.1800 
     77 C          -3.8424  -25.6194  -47.3497 C.2       13 UNK         0.5000 
     78 O          -3.6609  -26.3047  -48.3549 O.2       13 UNK        -0.5000 
     79 N          -4.7815  -24.6628  -47.2752 N.am      14 UNK        -0.5000 
     80 CA         -5.7526  -24.2913  -48.3109 C.3       14 UNK         0.1400 
     81 CB         -6.7360  -25.4489  -48.5849 C.3       14 UNK        -0.1800 
     82 C          -5.0710  -23.7640  -49.5887 C.2       14 UNK         0.5000 
     83 O          -5.1783  -24.3739  -50.6545 O.2       14 UNK        -0.5000 
     84 N          -4.3469  -22.6466  -49.4339 N.am      15 UNK        -0.5000 
     85 CA         -3.5538  -21.9572  -50.4598 C.3       15 UNK         0.1400 
     86 CB         -4.4691  -21.3782  -51.5593 C.3       15 UNK        -0.1800 
     87 C          -2.4191  -22.8515  -51.0022 C.2       15 UNK         0.5000 
     88 O          -2.1878  -22.9081  -52.2119 O.2       15 UNK        -0.5000 
     89 N          -1.7589  -23.5581  -50.0715 N.am      16 UNK        -0.5000 
     90 CA         -0.7125  -24.5614  -50.2822 C.3       16 UNK         0.1400 
     91 CB          0.5824  -23.8854  -50.7788 C.3       16 UNK        -0.1800 
     92 C          -1.1905  -25.7122  -51.1920 C.2       16 UNK         0.5000 
     93 O          -0.5475  -26.0131  -52.1963 O.2       16 UNK        -0.5000 
     94 N          -2.3443  -26.3014  -50.8447 N.am      17 UNK        -0.5000 
     95 CA         -3.0890  -27.3111  -51.6060 C.3       17 UNK         0.1400 
     96 CB         -2.3210  -28.6487  -51.6418 C.3       17 UNK        -0.1800 
     97 C          -3.4991  -26.8023  -53.0048 C.2       17 UNK         0.5000 
     98 O          -3.3756  -27.5265  -53.9944 O.2       17 UNK        -0.5000 
     99 N          -3.9559  -25.5425  -53.0474 N.am      18 UNK        -0.5000 
    100 CA        -4.3323  -24.7595  -54.2276 C.3       18 UNK         0.1400 
    101 CB        -5.6045  -25.3393  -54.8794 C.3       18 UNK        -0.1800 
    102 C         -3.1854  -24.5379  -55.2404 C.2       18 UNK         0.5000 
    103 O         -3.4552  -24.3098  -56.4214 O.2       18 UNK        -0.5000 
    104 N         -1.9276  -24.5938  -54.7770 N.am      19 UNK        -0.5000 
    105 CA        -0.7468  -24.2776  -55.5820 C.3       19 UNK         0.1400 
    106 CB         0.5094  -24.8838  -54.9418 C.3       19 UNK        -0.1800 
    107 C         -0.5731  -22.7620  -55.7759 C.2       19 UNK         0.5000 
    108 O         -0.0988  -22.3422  -56.8329 O.2       19 UNK        -0.5000 
    109 N         -0.9707  -21.9668  -54.7722 N.am      20 UNK        -0.5000 
    110 CA        -1.0576  -20.5135  -54.8810 C.3       20 UNK         0.1400 
    111 CB        -1.0037  -19.8846  -53.4799 C.3       20 UNK        -0.1800 
    112 C         -2.3491  -20.1229  -55.6199 C.2       20 UNK         0.5000 
    113 O         -3.3882  -20.7604  -55.4245 O.2       20 UNK        -0.5000 
    114 N         -2.2666  -19.0609  -56.4332 N.am      21 UNK        -0.5000 
    115 CA        -3.3424  -18.5598  -57.2999 C.3       21 UNK         0.1400 
    116 CB        -2.7949  -17.4006  -58.1472 C.3       21 UNK        -0.1800 
    117 C         -4.6237  -18.1254  -56.5589 C.2       21 UNK         0.5000 
    118 O         -5.6915  -18.0740  -57.1708 O.2       21 UNK        -0.5000 
    119 N         -4.4948  -17.8389  -55.2593 N.am      22 UNK        -0.5000 
    120 CA        -5.5986  -17.5522  -54.3330 C.3       22 UNK         0.1400 
    121 C         -6.4896  -18.7862  -53.9976 C.2       22 UNK         0.5000 
    122 N         -6.0823  -20.0132  -54.3063 N.am      22 UNK        -0.7600 
    123 O         -7.5771  -18.6236  -53.4513 O.2       22 UNK        -0.5000 
    124 C124       -5.0858  -16.8891  -53.0300 C.3       23 UNK        -0.0398 
    125 S125       -4.0265  -15.4325  -53.3397 S.3       23 UNK        -0.2404 
    126 C126       -3.7303  -14.8232  -51.6506 C.3       23 UNK        -0.0205 
    127 H127       -2.2753  -12.8951  -49.6623 H         1 UNK         0.0600 
    128 H128       -2.7834  -12.3040  -48.0778 H         1 UNK         0.0600 
    129 H129       -3.0726  -13.9839  -48.5144 H         1 UNK         0.0600 
    130 H130       -1.3707  -15.5175  -48.2467 H         1 UNK         0.3000 
    131 H131        1.3355  -14.6877  -47.5786 H         1 UNK         0.0600 
    132 H132        0.0596  -17.4626  -47.5585 H         1 UNK         0.0800 
    133 H133        1.7339  -17.1492  -47.2439 H         1 UNK         0.0800 
    134 H134        0.1661  -18.9024  -49.8496 H         1 UNK         0.0800 
    135 H135        0.2648  -18.0200  -51.3506 H         1 UNK         0.0800 
    136 H136       -1.2659  -16.0018  -51.7384 H         1 UNK         0.1150 
    137 H137       -4.9261  -15.9940  -49.5022 H         1 UNK         0.1150 
    138 H138       -1.7684  -18.6825  -48.4337 H         1 UNK         0.1150 
    139 H139       -5.1306  -17.2619  -47.4948 H         1 UNK         0.0800 
    140 H140       -4.6111  -18.8787  -47.8971 H         1 UNK         0.0800 
    141 H141       -5.0992  -19.1800  -45.2334 H         1 UNK         0.0800 
    142 H142       -3.7130  -19.2295  -44.1731 H         1 UNK         0.0800 
    143 H143       -3.9962  -20.7154  -46.8315 H         1 UNK         0.0600 
    144 H144       -1.5880  -20.3180  -45.2746 H         1 UNK         0.3000 
    145 H145        0.2387  -22.8928  -46.9590 H         1 UNK         0.0600 
    146 H146        0.3782  -19.8469  -47.2531 H         1 UNK         0.0600 
    147 H147        1.7216  -20.9596  -47.5005 H         1 UNK         0.0600 
    148 H148        0.3265  -21.0154  -48.5680 H         1 UNK         0.0600 
    149 H149        0.9245  -20.8650  -45.0269 H         1 UNK         0.3000 
    150 H150       -0.0537  -22.6972  -42.1316 H         1 UNK         0.0600 
    151 H151        2.0888  -23.8633  -42.6904 H         1 UNK         0.0600 
    152 H152        2.3435  -22.5921  -41.5059 H         1 UNK         0.0600 
    153 H153        2.8017  -22.3340  -43.1902 H         1 UNK         0.0600 
    154 H154        1.5232  -20.3673  -42.3771 H         1 UNK         0.3000 
    155 H155       -0.7717  -18.0035  -43.4050 H         1 UNK         0.0600 
    156 H156       -1.6837  -18.1553  -41.0911 H         1 UNK         0.0600 
    157 H157       -0.5085  -16.8560  -41.1919 H         1 UNK         0.0600 
    158 H158       -0.0646  -18.3872  -40.4431 H         1 UNK         0.0600 
    159 H159        1.6890  -17.6041  -42.0904 H         1 UNK         0.3000 
    160 H160        3.9396  -18.5041  -43.3375 H         1 UNK         0.0600 
    161 H161        5.1172  -17.5624  -45.2669 H         1 UNK         0.0600 
    162 H162        3.6135  -17.0208  -45.9939 H         1 UNK         0.0600 
    163 H163        3.9581  -18.7451  -45.8508 H         1 UNK         0.0600 
    164 H164        2.8003  -15.7848  -43.7998 H         1 UNK         0.3000 
    165 H165        3.3808  -14.6088  -41.1589 H         1 UNK         0.0600 
    166 H166        6.2877  -14.0904  -41.9623 H         1 UNK         0.0600 
    167 H167        5.3245  -13.0611  -40.9034 H         1 UNK         0.0600 
    168 H168        5.7259  -14.6960  -40.4090 H         1 UNK         0.0600 
    169 H169        2.9130  -13.0596  -42.6308 H         1 UNK         0.3000 
    170 H170        4.5995  -11.5329  -45.2055 H         1 UNK         0.0600 
    171 H171        1.9199  -12.8204  -45.8419 H         1 UNK         0.0600 
    172 H172        2.8119  -11.6409  -46.7843 H         1 UNK         0.0600 
    173 H173        3.4071  -13.2900  -46.6630 H         1 UNK         0.0600 
    174 H174        1.9066  -11.3077  -44.1010 H         1 UNK         0.3000 
    175 H175        2.8486   -9.5132  -41.2353 H         1 UNK         0.0600 
    176 H176        1.6957   -8.2050  -43.7563 H         1 UNK         0.0600 
    177 H177        1.5479   -7.5951  -42.1072 H         1 UNK         0.0600 
    178 H178        3.1205   -7.6504  -42.8856 H         1 UNK         0.0600 
    179 H179        0.2931   -9.7282  -42.3608 H         1 UNK         0.3000 
    180 H180       -0.6970  -12.1191  -40.2808 H         1 UNK         0.0600 
    181 H181       -1.5659  -10.6377  -42.8264 H         1 UNK         0.0600 
    182 H182       -1.5346   -9.9764  -41.1926 H         1 UNK         0.0600 
    183 H183       -2.6360  -11.2796  -41.5885 H         1 UNK         0.0600 
    184 H184       -1.0283  -13.9829  -41.3987 H         1 UNK         0.3000 
    185 H185       -0.3352  -15.5771  -43.1850 H         1 UNK         0.0600 
    186 H186       -2.6558  -16.3434  -43.6646 H         1 UNK         0.0600 
    187 H187       -2.6819  -15.1678  -42.3711 H         1 UNK         0.0600 
    188 H188       -3.1618  -14.6875  -43.9940 H         1 UNK         0.0600 
    189 H189       -1.5693  -15.1104  -45.7822 H         1 UNK         0.3000 
    190 H190       -2.7838  -21.8467  -43.6789 H         1 UNK         0.3000 
    191 H191       -5.0576  -23.3698  -42.9144 H         1 UNK         0.0600 
    192 H192       -2.1035  -23.9081  -42.3020 H         1 UNK         0.0600 
    193 H193       -3.1356  -22.7966  -41.4020 H         1 UNK         0.0600 
    194 H194       -3.4822  -24.5201  -41.4021 H         1 UNK         0.0600 
    195 H195       -2.3667  -24.1106  -45.0981 H         1 UNK         0.3000 
    196 H196       -3.2406  -26.8283  -45.6984 H         1 UNK         0.0600 
    197 H197       -0.8350  -26.2072  -45.6654 H         1 UNK         0.0600 
    198 H198       -1.0989  -25.0360  -46.9527 H         1 UNK         0.0600 
    199 H199       -1.3039  -26.7568  -47.2639 H         1 UNK         0.0600 
    200 H200       -4.8359  -24.1157  -46.4245 H         1 UNK         0.3000 
    201 H201       -6.3343  -23.4624  -47.9047 H         1 UNK         0.0600 
    202 H202       -7.5144  -25.1385  -49.2829 H         1 UNK         0.0600 
    203 H203       -7.2305  -25.7701  -47.6683 H         1 UNK         0.0600 
    204 H204       -6.2391  -26.3168  -49.0194 H         1 UNK         0.0600 
    205 H205       -4.2244  -22.2990  -48.4930 H         1 UNK         0.3000 
    206 H206       -3.0659  -21.1171  -49.9629 H         1 UNK         0.0600 
    207 H207       -5.2321  -20.7276  -51.1321 H         1 UNK         0.0600 
    208 H208       -4.9771  -22.1602  -52.1222 H         1 UNK         0.0600 
    209 H209       -3.9074  -20.7812  -52.2755 H         1 UNK         0.0600 
    210 H210       -2.0271  -23.3974  -49.1037 H         1 UNK         0.3000 
    211 H211       -0.5006  -25.0060  -49.3097 H         1 UNK         0.0600 
    212 H212        0.9201  -23.1226  -50.0774 H         1 UNK         0.0600 
    213 H213        1.3889  -24.6122  -50.8810 H         1 UNK         0.0600 
    214 H214        0.4460  -23.4083  -51.7496 H         1 UNK         0.0600 
    215 H215       -2.7985  -26.0185  -49.9791 H         1 UNK         0.3000 
    216 H216       -4.0179  -27.4784  -51.0587 H         1 UNK         0.0600 
    217 H217       -2.9264  -29.4335  -52.0963 H         1 UNK         0.0600 
    218 H218       -1.3986  -28.5728  -52.2181 H         1 UNK         0.0600 
    219 H219       -2.0626  -28.9801  -50.6361 H         1 UNK         0.0600 
    220 H220       -4.0682  -25.0560  -52.1623 H         1 UNK         0.3000 
    221 H221       -4.5826  -23.7665  -53.8534 H         1 UNK         0.0600 
    222 H222       -5.4173  -26.3104  -55.3383 H         1 UNK         0.0600 
    223 H223       -6.4014  -25.4616  -54.1458 H         1 UNK         0.0600 
    224 H224       -5.9833  -24.6767  -55.6584 H         1 UNK         0.0600 
    225 H225       -1.7766  -24.7771  -53.7925 H         1 UNK         0.3000 
    226 H226       -0.8682  -24.7301  -56.5685 H         1 UNK         0.0600 
    227 H227        0.4060  -25.9612  -54.8119 H         1 UNK         0.0600 
    228 H228        1.3858  -24.7141  -55.5683 H         1 UNK         0.0600 
    229 H229        0.7160  -24.4438  -53.9661 H         1 UNK         0.0600 
    230 H230       -1.4015  -22.3848  -53.9520 H         1 UNK         0.3000 
    231 H231       -0.1991  -20.1465  -55.4477 H         1 UNK         0.0600 
    232 H232       -1.0551  -18.7966  -53.5353 H         1 UNK         0.0600 
    233 H233       -0.0750  -20.1418  -52.9704 H         1 UNK         0.0600 
    234 H234       -1.8270  -20.2186  -52.8522 H         1 UNK         0.0600 
    235 H235       -1.3795  -18.5856  -56.5173 H         1 UNK         0.3000 
    236 H236       -3.6235  -19.3723  -57.9729 H         1 UNK         0.0600 
    237 H237       -1.9478  -17.7196  -58.7546 H         1 UNK         0.0600 
    238 H238       -3.5561  -17.0205  -58.8299 H         1 UNK         0.0600 
    239 H239       -2.4684  -16.5674  -57.5234 H         1 UNK         0.0600 
    240 H240       -3.5750  -17.8904  -54.8495 H         1 UNK         0.3000 
    241 H241       -6.2536  -16.8336  -54.8291 H         1 UNK         0.0600 
    242 H242       -5.1821  -20.1748  -54.7466 H         1 UNK         0.3800 
    243 H243       -6.6775  -20.7956  -54.0899 H         1 UNK         0.3800 
    244 H244       -5.9242  -16.5772  -52.4047 H         1 UNK         0.0800 
    245 H245       -4.5156  -17.6134  -52.4452 H         1 UNK         0.0800 
    246 H246       -4.6616  -14.4204  -51.2496 H         1 UNK         0.0800 
    247 H247       -3.0309  -13.9881  -51.6991 H         1 UNK         0.0800 
@<TRIPOS>BOND
     1    1    2 1    
     2    1  127 1    
     3    1  128 1    
     4    1  129 1    
     5    2    3 2    
     6    2    4 am   BACKBONE|DICT|INTERRES
     7    4    5 1    
     8    4  130 1    
     9    5    6 1    
    10    5   65 1    
    11    5  131 1    
    12    6    7 1    
    13    6  132 1    
    14    6  133 1    
    15    7    8 1    
    16    8    9 1    
    17    8  134 1    
    18    8  135 1    
    19    9   10 ar   
    20    9   14 ar   
    21   10   11 ar   
    22   10  136 1    
    23   11   12 ar   
    24   11  126 1    
    25   12   13 ar   
    26   12  137 1    
    27   13   14 ar   
    28   13   15 1    
    29   14  138 1    
    30   15   16 1    
    31   15  139 1    
    32   15  140 1    
    33   16   17 1    
    34   17   18 1    
    35   17  141 1    
    36   17  142 1    
    37   18   19 1    
    38   18   67 1    
    39   18  143 1    
    40   19   20 am   BACKBONE|DICT|INTERRES
    41   19  144 1    
    42   20   21 2    
    43   20   22 1    
    44   22   23 1    
    45   22   24 1    
    46   22  145 1    
    47   23  146 1    
    48   23  147 1    
    49   23  148 1    
    50   24   25 am   BACKBONE|DICT|INTERRES
    51   24  149 1    
    52   25   26 2    
    53   25   27 1    
    54   27   28 1    
    55   27   29 1    
    56   27  150 1    
    57   28  151 1    
    58   28  152 1    
    59   28  153 1    
    60   29   30 am   BACKBONE|DICT|INTERRES
    61   29  154 1    
    62   30   31 2    
    63   30   32 1    
    64   32   33 1    
    65   32   34 1    
    66   32  155 1    
    67   33  156 1    
    68   33  157 1    
    69   33  158 1    
    70   34   35 am   BACKBONE|DICT|INTERRES
    71   34  159 1    
    72   35   36 2    
    73   35   37 1    
    74   37   38 1    
    75   37   39 1    
    76   37  160 1    
    77   38  161 1    
    78   38  162 1    
    79   38  163 1    
    80   39   40 am   BACKBONE|DICT|INTERRES
    81   39  164 1    
    82   40   41 2    
    83   40   42 1    
    84   42   43 1    
    85   42   44 1    
    86   42  165 1    
    87   43  166 1    
    88   43  167 1    
    89   43  168 1    
    90   44   45 am   BACKBONE|DICT|INTERRES
    91   44  169 1    
    92   45   46 2    
    93   45   47 1    
    94   47   48 1    
    95   47   49 1    
    96   47  170 1    
    97   48  171 1    
    98   48  172 1    
    99   48  173 1    
   100   49   50 am   BACKBONE|DICT|INTERRES
   101   49  174 1    
   102   50   51 2    
   103   50   52 1    
   104   52   53 1    
   105   52   54 1    
   106   52  175 1    
   107   53  176 1    
   108   53  177 1    
   109   53  178 1    
   110   54   55 am   BACKBONE|DICT|INTERRES
   111   54  179 1    
   112   55   56 2    
   113   55   57 1    
   114   57   58 1    
   115   57   59 1    
   116   57  180 1    
   117   58  181 1    
   118   58  182 1    
   119   58  183 1    
   120   59   60 am   BACKBONE|DICT|INTERRES
   121   59  184 1    
   122   60   61 2    
   123   60   62 1    
   124   62   63 1    
   125   62   64 1    
   126   62  185 1    
   127   63  186 1    
   128   63  187 1    
   129   63  188 1    
   130   64   65 am   BACKBONE|DICT|INTERRES
   131   64  189 1    
   132   65   66 2    
   133   67   68 2    
   134   67   69 am   BACKBONE|DICT|INTERRES
   135   69   70 1    
   136   69  190 1    
   137   70   71 1    
   138   70   72 1    
   139   70  191 1    
   140   71  192 1    
   141   71  193 1    
   142   71  194 1    
   143   72   73 2    
   144   72   74 am   BACKBONE|DICT|INTERRES
   145   74   75 1    
   146   74  195 1    
   147   75   76 1    
   148   75   77 1    
   149   75  196 1    
   150   76  197 1    
   151   76  198 1    
   152   76  199 1    
   153   77   78 2    
   154   77   79 am   BACKBONE|DICT|INTERRES
   155   79   80 1    
   156   79  200 1    
   157   80   81 1    
   158   80   82 1    
   159   80  201 1    
   160   81  202 1    
   161   81  203 1    
   162   81  204 1    
   163   82   83 2    
   164   82   84 am   BACKBONE|DICT|INTERRES
   165   84   85 1    
   166   84  205 1    
   167   85   86 1    
   168   85   87 1    
   169   85  206 1    
   170   86  207 1    
   171   86  208 1    
   172   86  209 1    
   173   87   88 2    
   174   87   89 am   BACKBONE|DICT|INTERRES
   175   89   90 1    
   176   89  210 1    
   177   90   91 1    
   178   90   92 1    
   179   90  211 1    
   180   91  212 1    
   181   91  213 1    
   182   91  214 1    
   183   92   93 2    
   184   92   94 am   BACKBONE|DICT|INTERRES
   185   94   95 1    
   186   94  215 1    
   187   95   96 1    
   188   95   97 1    
   189   95  216 1    
   190   96  217 1    
   191   96  218 1    
   192   96  219 1    
   193   97   98 2    
   194   97   99 am   BACKBONE|DICT|INTERRES
   195   99  100 1    
   196   99  220 1    
   197  100  101 1    
   198  100  102 1    
   199  100  221 1    
   200  101  222 1    
   201  101  223 1    
   202  101  224 1    
   203  102  103 2    
   204  102  104 am   BACKBONE|DICT|INTERRES
   205  104  105 1    
   206  104  225 1    
   207  105  106 1    
   208  105  107 1    
   209  105  226 1    
   210  106  227 1    
   211  106  228 1    
   212  106  229 1    
   213  107  108 2    
   214  107  109 am   BACKBONE|DICT|INTERRES
   215  109  110 1    
   216  109  230 1    
   217  110  111 1    
   218  110  112 1    
   219  110  231 1    
   220  111  232 1    
   221  111  233 1    
   222  111  234 1    
   223  112  113 2    
   224  112  114 am   BACKBONE|DICT|INTERRES
   225  114  115 1    
   226  114  235 1    
   227  115  116 1    
   228  115  117 1    
   229  115  236 1    
   230  116  237 1    
   231  116  238 1    
   232  116  239 1    
   233  117  118 2    
   234  117  119 am   BACKBONE|DICT|INTERRES
   235  119  120 1    
   236  119  240 1    
   237  120  121 1    
   238  120  124 1    
   239  120  241 1    
   240  121  122 am   BACKBONE|DICT|INTERRES
   241  121  123 2    
   242  122  242 1    
   243  122  243 1    
   244  124  125 1    
   245  124  244 1    
   246  124  245 1    
   247  125  126 1    
   248  126  246 1    
   249  126  247 1    
@<TRIPOS>SUBSTRUCTURE
     1 UNK         1 GROUP             0       ****    0 ROOT    
