@<TRIPOS>MOLECULE
3R540
247   249    1
SMALL
USER_CHARGES


@<TRIPOS>ATOM
      1 CA          0.2622  -11.3338  -43.4216 C.3       0 UNK        -0.1800 
      2 C           1.0072  -10.9926  -44.7042 C.2       0 UNK         0.5000 
      3 O           2.1414  -10.5175  -44.6448 O.2       0 UNK        -0.5000 
      4 N           0.3906  -11.2516  -45.8669 N.am      1 UNK        -0.5000 
      5 CA          0.9464  -10.9781  -47.2032 C.3       1 UNK         0.1400 
      6 C6         -0.1227  -11.1112  -48.3170 C.3       23 UNK        -0.0398 
      7 S7         -0.8258  -12.7905  -48.4899 S.3       23 UNK        -0.2404 
      8 C8         -0.0025  -13.3358  -50.0189 C.3       23 UNK        -0.0205 
      9 C9         -0.2854  -14.8006  -50.3039 C.ar      23 UNK        -0.0193 
     10 C10        -1.3655  -15.1697  -51.1098 C.ar      23 UNK        -0.1150 
     11 C11        -1.6397  -16.5157  -51.3742 C.ar      23 UNK        -0.0193 
     12 C12        -0.8163  -17.4969  -50.8031 C.ar      23 UNK        -0.1150 
     13 C13         0.2764  -17.1395  -50.0066 C.ar      23 UNK        -0.0193 
     14 C14         0.5387  -15.7895  -49.7641 C.ar      23 UNK        -0.1150 
     15 C15         1.1809  -18.2089  -49.4115 C.3       23 UNK        -0.0205 
     16 S16         0.9798  -18.3446  -47.6082 S.3       23 UNK        -0.2404 
     17 C17        -0.7011  -19.0347  -47.4709 C.3       23 UNK        -0.0398 
     18 CA         -0.7085  -20.5018  -46.9818 C.3       11 UNK         0.1400 
     19 N          -0.2095  -20.6549  -45.6070 N.am      11 UNK        -0.5000 
     20 C          -0.0233  -21.8227  -44.9714 C.2       10 UNK         0.5000 
     21 O          -0.2171  -22.9190  -45.4992 O.2       10 UNK        -0.5000 
     22 CA          0.3808  -21.7664  -43.4839 C.3       10 UNK         0.1400 
     23 CB          1.9021  -21.9013  -43.3203 C.3       10 UNK        -0.1800 
     24 N          -0.0903  -20.5620  -42.7922 N.am      10 UNK        -0.5000 
     25 C          -1.3808  -20.2673  -42.5728 C.2       9 UNK         0.5000 
     26 O          -2.3107  -20.9939  -42.9212 O.2       9 UNK        -0.5000 
     27 CA         -1.6900  -18.9220  -41.8896 C.3       9 UNK         0.1400 
     28 CB         -1.5290  -19.0288  -40.3659 C.3       9 UNK        -0.1800 
     29 N          -0.8541  -17.8371  -42.4027 N.am      9 UNK        -0.5000 
     30 C          -0.9442  -17.3381  -43.6435 C.2       8 UNK         0.5000 
     31 O          -1.8235  -17.6618  -44.4408 O.2       8 UNK        -0.5000 
     32 CA          0.1510  -16.3480  -44.0871 C.3       8 UNK         0.1400 
     33 CB         -0.2454  -14.9005  -43.7679 C.3       8 UNK        -0.1800 
     34 N           1.4604  -16.6340  -43.4978 N.am      8 UNK        -0.5000 
     35 C           2.1662  -17.7502  -43.7303 C.2       7 UNK         0.5000 
     36 O           1.7871  -18.6557  -44.4686 O.2       7 UNK        -0.5000 
     37 CA          3.4825  -17.9153  -42.9546 C.3       7 UNK         0.1400 
     38 CB          4.6133  -17.0874  -43.5822 C.3       7 UNK        -0.1800 
     39 N           3.3209  -17.5570  -41.5472 N.am      7 UNK        -0.5000 
     40 C           2.6048  -18.2743  -40.6697 C.2       6 UNK         0.5000 
     41 O           2.0524  -19.3393  -40.9457 O.2       6 UNK        -0.5000 
     42 CA          2.4444  -17.6754  -39.2609 C.3       6 UNK         0.1400 
     43 CB          3.6481  -18.0362  -38.3780 C.3       6 UNK        -0.1800 
     44 N           2.2803  -16.2207  -39.2884 N.am      6 UNK        -0.5000 
     45 C           1.2148  -15.5888  -39.8015 C.2       5 UNK         0.5000 
     46 O           0.2401  -16.1686  -40.2767 O.2       5 UNK        -0.5000 
     47 CA          1.2728  -14.0515  -39.8328 C.3       5 UNK         0.1400 
     48 CB          0.7856  -13.4621  -38.5011 C.3       5 UNK        -0.1800 
     49 N           2.6136  -13.5425  -40.1321 N.am      5 UNK        -0.5000 
     50 C           3.2360  -13.7099  -41.3049 C.2       4 UNK         0.5000 
     51 O           2.7493  -14.3202  -42.2613 O.2       4 UNK        -0.5000 
     52 CA          4.6467  -13.1263  -41.4229 C.3       4 UNK         0.1400 
     53 CB          5.7125  -14.1820  -41.0794 C.3       4 UNK        -0.1800 
     54 N           4.8139  -12.6490  -42.7880 N.am      4 UNK        -0.5000 
     55 C           5.7075  -11.7452  -43.2015 C.2       3 UNK         0.5000 
     56 O           6.5811  -11.2735  -42.4715 O.2       3 UNK        -0.5000 
     57 CA          5.5737  -11.2372  -44.6512 C.3       3 UNK         0.1400 
     58 CB          6.9355  -11.0548  -45.3544 C.3       3 UNK        -0.1800 
     59 N           4.6222  -12.0030  -45.4669 N.am      3 UNK        -0.5000 
     60 C           4.7833  -13.2050  -46.0438 C.2       2 UNK         0.5000 
     61 O           5.8129  -13.8732  -45.9534 O.2       2 UNK        -0.5000 
     62 CA          3.5887  -13.7752  -46.8456 C.3       2 UNK         0.1400 
     63 CB          3.1829  -15.1587  -46.3174 C.3       2 UNK        -0.1800 
     64 N           2.4033  -12.9187  -46.8152 N.am      2 UNK        -0.5000 
     65 C           2.2185  -11.7979  -47.5255 C.2       1 UNK         0.5000 
     66 O           3.0111  -11.3886  -48.3739 O.2       1 UNK        -0.5000 
     67 C          -2.1084  -21.1134  -47.2068 C.2       11 UNK         0.5000 
     68 O          -2.4326  -21.4267  -48.3519 O.2       11 UNK        -0.5000 
     69 N          -2.8946  -21.3330  -46.1398 N.am      12 UNK        -0.5000 
     70 CA         -4.1963  -22.0127  -46.1697 C.3       12 UNK         0.1400 
     71 CB         -4.8180  -21.9733  -44.7664 C.3       12 UNK        -0.1800 
     72 C          -4.1488  -23.4640  -46.6971 C.2       12 UNK         0.5000 
     73 O          -5.1896  -24.0012  -47.0734 O.2       12 UNK        -0.5000 
     74 N          -2.9510  -24.0657  -46.7424 N.am      13 UNK        -0.5000 
     75 CA         -2.6864  -25.3491  -47.3909 C.3       13 UNK         0.1400 
     76 CB         -1.3088  -25.8551  -46.9368 C.3       13 UNK        -0.1800 
     77 C          -2.7551  -25.2893  -48.9330 C.2       13 UNK         0.5000 
     78 O          -2.8916  -26.3427  -49.5555 O.2       13 UNK        -0.5000 
     79 N          -2.6534  -24.0872  -49.5210 N.am      14 UNK        -0.5000 
     80 CA         -2.7084  -23.8550  -50.9655 C.3       14 UNK         0.1400 
     81 CB         -1.3593  -23.2961  -51.4429 C.3       14 UNK        -0.1800 
     82 C          -3.8561  -22.9122  -51.3598 C.2       14 UNK         0.5000 
     83 O          -4.5270  -23.1670  -52.3632 O.2       14 UNK        -0.5000 
     84 N          -4.0691  -21.8564  -50.5617 N.am      15 UNK        -0.5000 
     85 CA         -5.1213  -20.8543  -50.7286 C.3       15 UNK         0.1400 
     86 CB         -4.8854  -19.7120  -49.7269 C.3       15 UNK        -0.1800 
     87 C          -6.5381  -21.4361  -50.5754 C.2       15 UNK         0.5000 
     88 O          -6.7084  -22.5286  -50.0324 O.2       15 UNK        -0.5000 
     89 N          -7.5310  -20.6990  -51.0954 N.am      16 UNK        -0.5000 
     90 CA         -8.9408  -21.1021  -51.2235 C.3       16 UNK         0.1400 
     91 CB         -9.6074  -21.2479  -49.8391 C.3       16 UNK        -0.1800 
     92 C          -9.1179  -22.3525  -52.1162 C.2       16 UNK         0.5000 
     93 O         -10.0369  -23.1454  -51.9064 O.2       16 UNK        -0.5000 
     94 N          -8.2072  -22.4960  -53.0913 N.am      17 UNK        -0.5000 
     95 CA         -8.0667  -23.5960  -54.0466 C.3       17 UNK         0.1400 
     96 CB         -9.2860  -23.6740  -54.9883 C.3       17 UNK        -0.1800 
     97 C          -7.7170  -24.9566  -53.4060 C.2       17 UNK         0.5000 
     98 O          -7.9344  -25.9917  -54.0382 O.2       17 UNK        -0.5000 
     99 N          -7.1344  -24.9501  -52.1967 N.am      18 UNK        -0.5000 
    100 CA        -6.7121  -26.1513  -51.4670 C.3       18 UNK         0.1400 
    101 CB        -6.2929  -25.7650  -50.0426 C.3       18 UNK        -0.1800 
    102 C         -5.6027  -26.9586  -52.1741 C.2       18 UNK         0.5000 
    103 O         -5.5515  -28.1781  -52.0096 O.2       18 UNK        -0.5000 
    104 N         -4.7806  -26.2816  -52.9867 N.am      19 UNK        -0.5000 
    105 CA        -3.8307  -26.8918  -53.9208 C.3       19 UNK         0.1400 
    106 CB        -2.3887  -26.6458  -53.4414 C.3       19 UNK        -0.1800 
    107 C         -4.0821  -26.3508  -55.3403 C.2       19 UNK         0.5000 
    108 O         -3.1325  -26.0891  -56.0785 O.2       19 UNK        -0.5000 
    109 N         -5.3641  -26.1456  -55.6801 N.am      20 UNK        -0.5000 
    110 CA        -5.9162  -25.5463  -56.9040 C.3       20 UNK         0.1400 
    111 CB        -5.4595  -26.2920  -58.1724 C.3       20 UNK        -0.1800 
    112 C         -5.6826  -24.0266  -57.0276 C.2       20 UNK         0.5000 
    113 O         -6.5799  -23.3225  -57.4909 O.2       20 UNK        -0.5000 
    114 N         -4.5234  -23.5365  -56.5795 N.am      21 UNK        -0.5000 
    115 CA        -4.1410  -22.1303  -56.5275 C.3       21 UNK         0.1400 
    116 CB        -3.7562  -21.6372  -57.9361 C.3       21 UNK        -0.1800 
    117 C         -2.9703  -21.9602  -55.5468 C.2       21 UNK         0.5000 
    118 O         -2.3276  -22.9456  -55.1753 O.2       21 UNK        -0.5000 
    119 N         -2.7047  -20.7064  -55.1650 N.am      22 UNK        -0.5000 
    120 CA        -1.5380  -20.2974  -54.3679 C.3       22 UNK         0.1400 
    121 C         -0.1971  -20.5171  -55.1233 C.2       22 UNK         0.5000 
    122 N          0.8481  -20.9535  -54.4336 N.am      22 UNK        -0.7600 
    123 O         -0.0853  -20.2520  -56.3184 O.2       22 UNK        -0.5000 
    124 C124       -1.6586  -18.8219  -53.9126 C.3       23 UNK        -0.0398 
    125 S125       -3.0521  -18.5845  -52.7616 S.3       23 UNK        -0.2404 
    126 C126       -2.8407  -16.8387  -52.2684 C.3       23 UNK        -0.0205 
    127 H127        0.0965  -10.4312  -42.8337 H         1 UNK         0.0600 
    128 H128        0.8487  -12.0290  -42.8208 H         1 UNK         0.0600 
    129 H129       -0.7063  -11.7913  -43.6244 H         1 UNK         0.0600 
    130 H130       -0.5364  -11.6541  -45.8600 H         1 UNK         0.3000 
    131 H131        1.2628   -9.9327  -47.1946 H         1 UNK         0.0600 
    132 H132       -0.9469  -10.4279  -48.1079 H         1 UNK         0.0800 
    133 H133        0.2850  -10.7808  -49.2741 H         1 UNK         0.0800 
    134 H134        1.0742  -13.1812  -49.9351 H         1 UNK         0.0800 
    135 H135       -0.3389  -12.7178  -50.8528 H         1 UNK         0.0800 
    136 H136       -2.0001  -14.4022  -51.5310 H         1 UNK         0.1150 
    137 H137       -1.0137  -18.5448  -50.9723 H         1 UNK         0.1150 
    138 H138        1.3780  -15.5097  -49.1429 H         1 UNK         0.1150 
    139 H139        0.9961  -19.1811  -49.8713 H         1 UNK         0.0800 
    140 H140        2.2199  -17.9593  -49.6310 H         1 UNK         0.0800 
    141 H141       -1.1906  -18.9542  -48.4422 H         1 UNK         0.0800 
    142 H142       -1.2816  -18.4010  -46.8023 H         1 UNK         0.0800 
    143 H143       -0.0302  -21.0682  -47.6234 H         1 UNK         0.0600 
    144 H144        0.0583  -19.8035  -45.1263 H         1 UNK         0.3000 
    145 H145       -0.0825  -22.6249  -42.9934 H         1 UNK         0.0600 
    146 H146        2.1869  -21.9109  -42.2680 H         1 UNK         0.0600 
    147 H147        2.2588  -22.8323  -43.7623 H         1 UNK         0.0600 
    148 H148        2.4375  -21.0857  -43.8046 H         1 UNK         0.0600 
    149 H149        0.6224  -19.9246  -42.4562 H         1 UNK         0.3000 
    150 H150       -2.7325  -18.6743  -42.1002 H         1 UNK         0.0600 
    151 H151       -2.1629  -19.8189  -39.9615 H         1 UNK         0.0600 
    152 H152       -1.8147  -18.0989  -39.8740 H         1 UNK         0.0600 
    153 H153       -0.5015  -19.2548  -40.0815 H         1 UNK         0.0600 
    154 H154       -0.1630  -17.4501  -41.7687 H         1 UNK         0.3000 
    155 H155        0.2516  -16.4376  -45.1709 H         1 UNK         0.0600 
    156 H156       -0.3430  -14.7379  -42.6944 H         1 UNK         0.0600 
    157 H157       -1.1997  -14.6446  -44.2296 H         1 UNK         0.0600 
    158 H158        0.4993  -14.2018  -44.1476 H         1 UNK         0.0600 
    159 H159        1.8568  -15.9166  -42.8977 H         1 UNK         0.3000 
    160 H160        3.7708  -18.9675  -43.0065 H         1 UNK         0.0600 
    161 H161        4.3938  -16.0200  -43.5721 H         1 UNK         0.0600 
    162 H162        4.7750  -17.3790  -44.6203 H         1 UNK         0.0600 
    163 H163        5.5542  -17.2418  -43.0541 H         1 UNK         0.0600 
    164 H164        3.7078  -16.6741  -41.2520 H         1 UNK         0.3000 
    165 H165        1.5484  -18.1112  -38.8136 H         1 UNK         0.0600 
    166 H166        3.5093  -17.6791  -37.3573 H         1 UNK         0.0600 
    167 H167        3.7838  -19.1174  -38.3272 H         1 UNK         0.0600 
    168 H168        4.5745  -17.6065  -38.7615 H         1 UNK         0.0600 
    169 H169        3.0363  -15.6667  -38.9143 H         1 UNK         0.3000 
    170 H170        0.5984  -13.7107  -40.6213 H         1 UNK         0.0600 
    171 H171       -0.2200  -13.8128  -38.2644 H         1 UNK         0.0600 
    172 H172        1.4355  -13.7443  -37.6718 H         1 UNK         0.0600 
    173 H173        0.7468  -12.3734  -38.5427 H         1 UNK         0.0600 
    174 H174        3.0774  -13.0314  -39.3946 H         1 UNK         0.3000 
    175 H175        4.7351  -12.2813  -40.7369 H         1 UNK         0.0600 
    176 H176        5.6908  -15.0189  -41.7765 H         1 UNK         0.0600 
    177 H177        6.7149  -13.7549  -41.1070 H         1 UNK         0.0600 
    178 H178        5.5605  -14.5826  -40.0765 H         1 UNK         0.0600 
    179 H179        4.1098  -12.9795  -43.4348 H         1 UNK         0.3000 
    180 H180        5.1296  -10.2446  -44.5643 H         1 UNK         0.0600 
    181 H181        7.5099  -11.9809  -45.3789 H         1 UNK         0.0600 
    182 H182        7.5441  -10.3134  -44.8356 H         1 UNK         0.0600 
    183 H183        6.8084  -10.7077  -46.3798 H         1 UNK         0.0600 
    184 H184        3.7132  -11.5622  -45.5548 H         1 UNK         0.3000 
    185 H185        3.9135  -13.8850  -47.8822 H         1 UNK         0.0600 
    186 H186        4.0043  -15.8704  -46.4036 H         1 UNK         0.0600 
    187 H187        2.8957  -15.1069  -45.2681 H         1 UNK         0.0600 
    188 H188        2.3414  -15.5696  -46.8749 H         1 UNK         0.0600 
    189 H189        1.6877  -13.1693  -46.1494 H         1 UNK         0.3000 
    190 H190       -2.5519  -21.0697  -45.2240 H         1 UNK         0.3000 
    191 H191       -4.8456  -21.4507  -46.8421 H         1 UNK         0.0600 
    192 H192       -4.2276  -22.5475  -44.0515 H         1 UNK         0.0600 
    193 H193       -5.8242  -22.3942  -44.7724 H         1 UNK         0.0600 
    194 H194       -4.8957  -20.9511  -44.3951 H         1 UNK         0.0600 
    195 H195       -2.1439  -23.5702  -46.3818 H         1 UNK         0.3000 
    196 H196       -3.4409  -26.0641  -47.0565 H         1 UNK         0.0600 
    197 H197       -1.0914  -26.8356  -47.3624 H         1 UNK         0.0600 
    198 H198       -1.2618  -25.9540  -45.8521 H         1 UNK         0.0600 
    199 H199       -0.5112  -25.1781  -47.2460 H         1 UNK         0.0600 
    200 H200       -2.5604  -23.2628  -48.9371 H         1 UNK         0.3000 
    201 H201       -2.8890  -24.7944  -51.4834 H         1 UNK         0.0600 
    202 H202       -0.5456  -23.9823  -51.2082 H         1 UNK         0.0600 
    203 H203       -1.1329  -22.3349  -50.9795 H         1 UNK         0.0600 
    204 H204       -1.3599  -23.1537  -52.5240 H         1 UNK         0.0600 
    205 H205       -3.4648  -21.7219  -49.7549 H         1 UNK         0.3000 
    206 H206       -5.0354  -20.4587  -51.7415 H         1 UNK         0.0600 
    207 H207       -5.5905  -18.8955  -49.8855 H         1 UNK         0.0600 
    208 H208       -5.0012  -20.0497  -48.6977 H         1 UNK         0.0600 
    209 H209       -3.8828  -19.2958  -49.8299 H         1 UNK         0.0600 
    210 H210       -7.3000  -19.8047  -51.5063 H         1 UNK         0.3000 
    211 H211       -9.4455  -20.2875  -51.7446 H         1 UNK         0.0600 
    212 H212       -9.2160  -22.1020  -49.2858 H         1 UNK         0.0600 
    213 H213      -10.6840  -21.3910  -49.9379 H         1 UNK         0.0600 
    214 H214       -9.4541  -20.3559  -49.2318 H         1 UNK         0.0600 
    215 H215       -7.4937  -21.7842  -53.1545 H         1 UNK         0.3000 
    216 H216       -7.2025  -23.3331  -54.6557 H         1 UNK         0.0600 
    217 H217       -9.1078  -24.3758  -55.8038 H         1 UNK         0.0600 
    218 H218       -9.4969  -22.7051  -55.4408 H         1 UNK         0.0600 
    219 H219      -10.1833  -24.0039  -54.4641 H         1 UNK         0.0600 
    220 H220       -6.9635  -24.0636  -51.7375 H         1 UNK         0.3000 
    221 H221       -7.5815  -26.8075  -51.3902 H         1 UNK         0.0600 
    222 H222       -5.4844  -25.0357  -50.0478 H         1 UNK         0.0600 
    223 H223       -7.1257  -25.3294  -49.4902 H         1 UNK         0.0600 
    224 H224       -5.9480  -26.6341  -49.4809 H         1 UNK         0.0600 
    225 H225       -4.8837  -25.2746  -53.0440 H         1 UNK         0.3000 
    226 H226       -3.9887  -27.9706  -53.9736 H         1 UNK         0.0600 
    227 H227       -2.2523  -26.9710  -52.4097 H         1 UNK         0.0600 
    228 H228       -1.6767  -27.2018  -54.0522 H         1 UNK         0.0600 
    229 H229       -2.1176  -25.5915  -53.5077 H         1 UNK         0.0600 
    230 H230       -6.0666  -26.3812  -54.9876 H         1 UNK         0.3000 
    231 H231       -6.9959  -25.6835  -56.8241 H         1 UNK         0.0600 
    232 H232       -5.6556  -27.3613  -58.0943 H         1 UNK         0.0600 
    233 H233       -4.3955  -26.1574  -58.3679 H         1 UNK         0.0600 
    234 H234       -5.9960  -25.9261  -59.0486 H         1 UNK         0.0600 
    235 H235       -3.8237  -24.1774  -56.2137 H         1 UNK         0.3000 
    236 H236       -4.9852  -21.5485  -56.1516 H         1 UNK         0.0600 
    237 H237       -3.4521  -20.5901  -57.9198 H         1 UNK         0.0600 
    238 H238       -2.9257  -22.2132  -58.3462 H         1 UNK         0.0600 
    239 H239       -4.5928  -21.7165  -58.6302 H         1 UNK         0.0600 
    240 H240       -3.2744  -19.9542  -55.5223 H         1 UNK         0.3000 
    241 H241       -1.5225  -20.9246  -53.4747 H         1 UNK         0.0600 
    242 H242        1.7262  -21.0848  -54.9116 H         1 UNK         0.3800 
    243 H243        0.7852  -21.1715  -53.4518 H         1 UNK         0.3800 
    244 H244       -1.7880  -18.1604  -54.7709 H         1 UNK         0.0800 
    245 H245       -0.7424  -18.4999  -53.4154 H         1 UNK         0.0800 
    246 H246       -3.7451  -16.5309  -51.7419 H         1 UNK         0.0800 
    247 H247       -2.7899  -16.2297  -53.1722 H         1 UNK         0.0800 
@<TRIPOS>BOND
     1    1    2 1    
     2    1  127 1    
     3    1  128 1    
     4    1  129 1    
     5    2    3 2    
     6    2    4 am   BACKBONE|DICT|INTERRES
     7    4    5 1    
     8    4  130 1    
     9    5    6 1    
    10    5   65 1    
    11    5  131 1    
    12    6    7 1    
    13    6  132 1    
    14    6  133 1    
    15    7    8 1    
    16    8    9 1    
    17    8  134 1    
    18    8  135 1    
    19    9   10 ar   
    20    9   14 ar   
    21   10   11 ar   
    22   10  136 1    
    23   11   12 ar   
    24   11  126 1    
    25   12   13 ar   
    26   12  137 1    
    27   13   14 ar   
    28   13   15 1    
    29   14  138 1    
    30   15   16 1    
    31   15  139 1    
    32   15  140 1    
    33   16   17 1    
    34   17   18 1    
    35   17  141 1    
    36   17  142 1    
    37   18   19 1    
    38   18   67 1    
    39   18  143 1    
    40   19   20 am   BACKBONE|DICT|INTERRES
    41   19  144 1    
    42   20   21 2    
    43   20   22 1    
    44   22   23 1    
    45   22   24 1    
    46   22  145 1    
    47   23  146 1    
    48   23  147 1    
    49   23  148 1    
    50   24   25 am   BACKBONE|DICT|INTERRES
    51   24  149 1    
    52   25   26 2    
    53   25   27 1    
    54   27   28 1    
    55   27   29 1    
    56   27  150 1    
    57   28  151 1    
    58   28  152 1    
    59   28  153 1    
    60   29   30 am   BACKBONE|DICT|INTERRES
    61   29  154 1    
    62   30   31 2    
    63   30   32 1    
    64   32   33 1    
    65   32   34 1    
    66   32  155 1    
    67   33  156 1    
    68   33  157 1    
    69   33  158 1    
    70   34   35 am   BACKBONE|DICT|INTERRES
    71   34  159 1    
    72   35   36 2    
    73   35   37 1    
    74   37   38 1    
    75   37   39 1    
    76   37  160 1    
    77   38  161 1    
    78   38  162 1    
    79   38  163 1    
    80   39   40 am   BACKBONE|DICT|INTERRES
    81   39  164 1    
    82   40   41 2    
    83   40   42 1    
    84   42   43 1    
    85   42   44 1    
    86   42  165 1    
    87   43  166 1    
    88   43  167 1    
    89   43  168 1    
    90   44   45 am   BACKBONE|DICT|INTERRES
    91   44  169 1    
    92   45   46 2    
    93   45   47 1    
    94   47   48 1    
    95   47   49 1    
    96   47  170 1    
    97   48  171 1    
    98   48  172 1    
    99   48  173 1    
   100   49   50 am   BACKBONE|DICT|INTERRES
   101   49  174 1    
   102   50   51 2    
   103   50   52 1    
   104   52   53 1    
   105   52   54 1    
   106   52  175 1    
   107   53  176 1    
   108   53  177 1    
   109   53  178 1    
   110   54   55 am   BACKBONE|DICT|INTERRES
   111   54  179 1    
   112   55   56 2    
   113   55   57 1    
   114   57   58 1    
   115   57   59 1    
   116   57  180 1    
   117   58  181 1    
   118   58  182 1    
   119   58  183 1    
   120   59   60 am   BACKBONE|DICT|INTERRES
   121   59  184 1    
   122   60   61 2    
   123   60   62 1    
   124   62   63 1    
   125   62   64 1    
   126   62  185 1    
   127   63  186 1    
   128   63  187 1    
   129   63  188 1    
   130   64   65 am   BACKBONE|DICT|INTERRES
   131   64  189 1    
   132   65   66 2    
   133   67   68 2    
   134   67   69 am   BACKBONE|DICT|INTERRES
   135   69   70 1    
   136   69  190 1    
   137   70   71 1    
   138   70   72 1    
   139   70  191 1    
   140   71  192 1    
   141   71  193 1    
   142   71  194 1    
   143   72   73 2    
   144   72   74 am   BACKBONE|DICT|INTERRES
   145   74   75 1    
   146   74  195 1    
   147   75   76 1    
   148   75   77 1    
   149   75  196 1    
   150   76  197 1    
   151   76  198 1    
   152   76  199 1    
   153   77   78 2    
   154   77   79 am   BACKBONE|DICT|INTERRES
   155   79   80 1    
   156   79  200 1    
   157   80   81 1    
   158   80   82 1    
   159   80  201 1    
   160   81  202 1    
   161   81  203 1    
   162   81  204 1    
   163   82   83 2    
   164   82   84 am   BACKBONE|DICT|INTERRES
   165   84   85 1    
   166   84  205 1    
   167   85   86 1    
   168   85   87 1    
   169   85  206 1    
   170   86  207 1    
   171   86  208 1    
   172   86  209 1    
   173   87   88 2    
   174   87   89 am   BACKBONE|DICT|INTERRES
   175   89   90 1    
   176   89  210 1    
   177   90   91 1    
   178   90   92 1    
   179   90  211 1    
   180   91  212 1    
   181   91  213 1    
   182   91  214 1    
   183   92   93 2    
   184   92   94 am   BACKBONE|DICT|INTERRES
   185   94   95 1    
   186   94  215 1    
   187   95   96 1    
   188   95   97 1    
   189   95  216 1    
   190   96  217 1    
   191   96  218 1    
   192   96  219 1    
   193   97   98 2    
   194   97   99 am   BACKBONE|DICT|INTERRES
   195   99  100 1    
   196   99  220 1    
   197  100  101 1    
   198  100  102 1    
   199  100  221 1    
   200  101  222 1    
   201  101  223 1    
   202  101  224 1    
   203  102  103 2    
   204  102  104 am   BACKBONE|DICT|INTERRES
   205  104  105 1    
   206  104  225 1    
   207  105  106 1    
   208  105  107 1    
   209  105  226 1    
   210  106  227 1    
   211  106  228 1    
   212  106  229 1    
   213  107  108 2    
   214  107  109 am   BACKBONE|DICT|INTERRES
   215  109  110 1    
   216  109  230 1    
   217  110  111 1    
   218  110  112 1    
   219  110  231 1    
   220  111  232 1    
   221  111  233 1    
   222  111  234 1    
   223  112  113 2    
   224  112  114 am   BACKBONE|DICT|INTERRES
   225  114  115 1    
   226  114  235 1    
   227  115  116 1    
   228  115  117 1    
   229  115  236 1    
   230  116  237 1    
   231  116  238 1    
   232  116  239 1    
   233  117  118 2    
   234  117  119 am   BACKBONE|DICT|INTERRES
   235  119  120 1    
   236  119  240 1    
   237  120  121 1    
   238  120  124 1    
   239  120  241 1    
   240  121  122 am   BACKBONE|DICT|INTERRES
   241  121  123 2    
   242  122  242 1    
   243  122  243 1    
   244  124  125 1    
   245  124  244 1    
   246  124  245 1    
   247  125  126 1    
   248  126  246 1    
   249  126  247 1    
@<TRIPOS>SUBSTRUCTURE
     1 UNK         1 GROUP             0       ****    0 ROOT    
