@<TRIPOS>MOLECULE
3R540
247   249    1
SMALL
USER_CHARGES


@<TRIPOS>ATOM
      1 CA          3.6645  -10.5785  -52.1349 C.3       0 UNK        -0.1800 
      2 C           3.4621  -11.0503  -50.7020 C.2       0 UNK         0.5000 
      3 O           4.2182  -10.6545  -49.8148 O.2       0 UNK        -0.5000 
      4 N           2.4477  -11.8950  -50.4753 N.am      1 UNK        -0.5000 
      5 CA          2.0937  -12.4541  -49.1644 C.3       1 UNK         0.1400 
      6 C6          1.0801  -13.6146  -49.2936 C.3       23 UNK        -0.0398 
      7 S7          1.8011  -15.1020  -50.0580 S.3       23 UNK        -0.2404 
      8 C8          1.4757  -16.3346  -48.7570 C.3       23 UNK        -0.0205 
      9 C9          2.1219  -17.6699  -49.0815 C.ar      23 UNK        -0.0193 
     10 C10         1.5445  -18.5236  -50.0249 C.ar      23 UNK        -0.1150 
     11 C11         2.1344  -19.7539  -50.3277 C.ar      23 UNK        -0.0193 
     12 C12         3.3124  -20.1287  -49.6739 C.ar      23 UNK        -0.1150 
     13 C13         3.8962  -19.2842  -48.7241 C.ar      23 UNK        -0.0193 
     14 C14         3.2971  -18.0561  -48.4337 C.ar      23 UNK        -0.1150 
     15 C15         5.1773  -19.6870  -48.0112 C.3       23 UNK        -0.0205 
     16 S16         4.8344  -20.4133  -46.3789 S.3       23 UNK        -0.2404 
     17 C17         4.1711  -22.0388  -46.8680 C.3       23 UNK        -0.0398 
     18 CA          4.0254  -23.0014  -45.6644 C.3       11 UNK         0.1400 
     19 N           3.0521  -22.4967  -44.6906 N.am      11 UNK        -0.5000 
     20 C           3.1660  -22.5707  -43.3581 C.2       10 UNK         0.5000 
     21 O           4.1563  -23.0173  -42.7790 O.2       10 UNK        -0.5000 
     22 CA          1.9501  -22.1014  -42.5309 C.3       10 UNK         0.1400 
     23 CB          2.1499  -20.6530  -42.0610 C.3       10 UNK        -0.1800 
     24 N           0.6825  -22.2035  -43.2629 N.am      10 UNK        -0.5000 
     25 C           0.1178  -23.3620  -43.6420 C.2       9 UNK         0.5000 
     26 O           0.5756  -24.4642  -43.3433 O.2       9 UNK        -0.5000 
     27 CA         -1.1133  -23.2970  -44.5698 C.3       9 UNK         0.1400 
     28 CB         -2.4102  -23.4742  -43.7682 C.3       9 UNK        -0.1800 
     29 N          -1.1946  -22.0625  -45.3505 N.am      9 UNK        -0.5000 
     30 C          -0.2846  -21.6417  -46.2399 C.2       8 UNK         0.5000 
     31 O           0.6848  -22.3211  -46.5817 O.2       8 UNK        -0.5000 
     32 CA         -0.4619  -20.2125  -46.7944 C.3       8 UNK         0.1400 
     33 CB         -0.9878  -20.2595  -48.2345 C.3       8 UNK        -0.1800 
     34 N          -1.3511  -19.3691  -45.9821 N.am      8 UNK        -0.5000 
     35 C          -1.0947  -18.9686  -44.7267 C.2       7 UNK         0.5000 
     36 O          -0.0836  -19.3115  -44.1128 O.2       7 UNK        -0.5000 
     37 CA         -2.1472  -18.0890  -44.0244 C.3       7 UNK         0.1400 
     38 CB         -1.5166  -17.1328  -42.9957 C.3       7 UNK        -0.1800 
     39 N          -2.9379  -17.3231  -44.9867 N.am      7 UNK        -0.5000 
     40 C          -4.2563  -17.0972  -44.8987 C.2       6 UNK         0.5000 
     41 O          -4.9460  -17.4839  -43.9542 O.2       6 UNK        -0.5000 
     42 CA         -4.9045  -16.2895  -46.0428 C.3       6 UNK         0.1400 
     43 CB         -6.1983  -15.5759  -45.6120 C.3       6 UNK        -0.1800 
     44 N          -3.9636  -15.3002  -46.5637 N.am      6 UNK        -0.5000 
     45 C          -3.5626  -15.1905  -47.8354 C.2       5 UNK         0.5000 
     46 O          -4.0358  -15.8432  -48.7656 O.2       5 UNK        -0.5000 
     47 CA         -2.4238  -14.1914  -48.1281 C.3       5 UNK         0.1400 
     48 CB         -2.9536  -12.9786  -48.9056 C.3       5 UNK        -0.1800 
     49 N          -1.6831  -13.7272  -46.9479 N.am      5 UNK        -0.5000 
     50 C          -0.9415  -14.5085  -46.1459 C.2       4 UNK         0.5000 
     51 O          -0.8437  -15.7248  -46.3077 O.2       4 UNK        -0.5000 
     52 CA         -0.1734  -13.8436  -44.9860 C.3       4 UNK         0.1400 
     53 CB          1.3126  -14.2391  -45.0146 C.3       4 UNK        -0.1800 
     54 N          -0.2854  -12.3829  -44.9780 N.am      4 UNK        -0.5000 
     55 C          -1.2894  -11.7007  -44.4074 C.2       3 UNK         0.5000 
     56 O          -2.2335  -12.2432  -43.8326 O.2       3 UNK        -0.5000 
     57 CA         -1.2535  -10.1608  -44.5041 C.3       3 UNK         0.1400 
     58 CB         -0.7005   -9.5559  -43.2048 C.3       3 UNK        -0.1800 
     59 N          -0.4717   -9.6516  -45.6333 N.am      3 UNK        -0.5000 
     60 C          -0.7856   -9.8219  -46.9242 C.2       2 UNK         0.5000 
     61 O          -1.7922  -10.4222  -47.3008 O.2       2 UNK        -0.5000 
     62 CA          0.2043   -9.2791  -47.9783 C.3       2 UNK         0.1400 
     63 CB          1.2652   -8.3097  -47.4099 C.3       2 UNK        -0.1800 
     64 N           0.8547  -10.3691  -48.7143 N.am      2 UNK        -0.5000 
     65 C           1.5477  -11.3913  -48.1869 C.2       1 UNK         0.5000 
     66 O           1.7516  -11.5293  -46.9798 O.2       1 UNK        -0.5000 
     67 C           3.6487  -24.4217  -46.1461 C.2       11 UNK         0.5000 
     68 O           4.3208  -24.9507  -47.0323 O.2       11 UNK        -0.5000 
     69 N           2.5857  -25.0104  -45.5727 N.am      12 UNK        -0.5000 
     70 CA          1.9999  -26.3126  -45.9013 C.3       12 UNK         0.1400 
     71 CB          2.9750  -27.4589  -45.5597 C.3       12 UNK        -0.1800 
     72 C           1.4540  -26.3846  -47.3432 C.2       12 UNK         0.5000 
     73 O           1.5389  -27.4366  -47.9795 O.2       12 UNK        -0.5000 
     74 N           0.8906  -25.2678  -47.8343 N.am      13 UNK        -0.5000 
     75 CA          0.3017  -25.1625  -49.1741 C.3       13 UNK         0.1400 
     76 CB         -0.0137  -23.6895  -49.4757 C.3       13 UNK        -0.1800 
     77 C          -0.9617  -26.0274  -49.3607 C.2       13 UNK         0.5000 
     78 O          -1.2315  -26.4649  -50.4794 O.2       13 UNK        -0.5000 
     79 N          -1.7028  -26.2509  -48.2620 N.am      14 UNK        -0.5000 
     80 CA         -2.9172  -27.0739  -48.1520 C.3       14 UNK         0.1400 
     81 CB         -2.5842  -28.5621  -48.3869 C.3       14 UNK        -0.1800 
     82 C          -4.0962  -26.5823  -49.0230 C.2       14 UNK         0.5000 
     83 O          -4.9668  -27.3731  -49.3921 O.2       14 UNK        -0.5000 
     84 N          -4.1031  -25.2810  -49.3339 N.am      15 UNK        -0.5000 
     85 CA         -5.1343  -24.6048  -50.1141 C.3       15 UNK         0.1400 
     86 CB         -4.5658  -23.2629  -50.5902 C.3       15 UNK        -0.1800 
     87 C          -6.4143  -24.3721  -49.2937 C.2       15 UNK         0.5000 
     88 O          -6.3535  -24.2756  -48.0637 O.2       15 UNK        -0.5000 
     89 N          -7.5445  -24.2331  -49.9993 N.am      16 UNK        -0.5000 
     90 CA         -8.8498  -23.8865  -49.4353 C.3       16 UNK         0.1400 
     91 CB         -9.9005  -23.8744  -50.5558 C.3       16 UNK        -0.1800 
     92 C          -8.8037  -22.5271  -48.7149 C.2       16 UNK         0.5000 
     93 O          -8.3238  -21.5494  -49.2932 O.2       16 UNK        -0.5000 
     94 N          -9.2469  -22.5134  -47.4499 N.am      17 UNK        -0.5000 
     95 CA         -9.2220  -21.3768  -46.5176 C.3       17 UNK         0.1400 
     96 CB        -10.2022  -20.2792  -46.9829 C.3       17 UNK        -0.1800 
     97 C          -7.8056  -20.8186  -46.2383 C.2       17 UNK         0.5000 
     98 O          -7.6818  -19.6691  -45.8136 O.2       17 UNK        -0.5000 
     99 N          -6.7676  -21.6340  -46.4944 N.am      18 UNK        -0.5000 
    100 CA        -5.3398  -21.3058  -46.4257 C.3       18 UNK         0.1400 
    101 CB        -4.9085  -21.0478  -44.9666 C.3       18 UNK        -0.1800 
    102 C         -4.9232  -20.1661  -47.3821 C.2       18 UNK         0.5000 
    103 O         -3.9641  -19.4506  -47.0916 O.2       18 UNK        -0.5000 
    104 N         -5.6482  -20.0048  -48.4978 N.am      19 UNK        -0.5000 
    105 CA        -5.4084  -18.9672  -49.4989 C.3       19 UNK         0.1400 
    106 CB        -6.5635  -18.9812  -50.5106 C.3       19 UNK        -0.1800 
    107 C         -4.0658  -19.1434  -50.2306 C.2       19 UNK         0.5000 
    108 O         -3.6450  -20.2737  -50.4835 O.2       19 UNK        -0.5000 
    109 N         -3.4421  -18.0265  -50.6207 N.am      20 UNK        -0.5000 
    110 CA        -2.2273  -17.9704  -51.4386 C.3       20 UNK         0.1400 
    111 CB        -1.5908  -16.5791  -51.2865 C.3       20 UNK        -0.1800 
    112 C         -2.4864  -18.3522  -52.9136 C.2       20 UNK         0.5000 
    113 O         -2.2897  -17.5396  -53.8181 O.2       20 UNK        -0.5000 
    114 N         -2.9495  -19.5892  -53.1198 N.am      21 UNK        -0.5000 
    115 CA        -3.3082  -20.1703  -54.4128 C.3       21 UNK         0.1400 
    116 CB        -4.3435  -21.2802  -54.1656 C.3       21 UNK        -0.1800 
    117 C         -2.0991  -20.7213  -55.1956 C.2       21 UNK         0.5000 
    118 O         -2.2562  -21.0777  -56.3646 O.2       21 UNK        -0.5000 
    119 N         -0.9319  -20.8131  -54.5443 N.am      22 UNK        -0.5000 
    120 CA         0.3304  -21.2849  -55.1314 C.3       22 UNK         0.1400 
    121 C          0.8913  -20.3726  -56.2639 C.2       22 UNK         0.5000 
    122 N          1.7189  -20.9158  -57.1473 N.am      22 UNK        -0.7600 
    123 O          0.6082  -19.1788  -56.3404 O.2       22 UNK        -0.5000 
    124 C124        1.3896  -21.5870  -54.0382 C.3       23 UNK        -0.0398 
    125 S125        1.9093  -20.1379  -53.0492 S.3       23 UNK        -0.2404 
    126 C126        1.5023  -20.6746  -51.3607 C.3       23 UNK        -0.0205 
    127 H127        4.6564  -10.8621  -52.4867 H         1 UNK         0.0600 
    128 H128        3.5802   -9.4930  -52.1878 H         1 UNK         0.0600 
    129 H129        2.9274  -11.0102  -52.8124 H         1 UNK         0.0600 
    130 H130        1.8819  -12.2060  -51.2522 H         1 UNK         0.3000 
    131 H131        3.0070  -12.8495  -48.7139 H         1 UNK         0.0600 
    132 H132        0.7074  -13.8927  -48.3106 H         1 UNK         0.0800 
    133 H133        0.2077  -13.3090  -49.8733 H         1 UNK         0.0800 
    134 H134        1.8451  -15.9619  -47.8002 H         1 UNK         0.0800 
    135 H135        0.4006  -16.4709  -48.6364 H         1 UNK         0.0800 
    136 H136        0.6437  -18.2214  -50.5347 H         1 UNK         0.1150 
    137 H137        3.7759  -21.0775  -49.9046 H         1 UNK         0.1150 
    138 H138        3.7479  -17.4022  -47.7004 H         1 UNK         0.1150 
    139 H139        5.7538  -20.3874  -48.6175 H         1 UNK         0.0800 
    140 H140        5.8115  -18.8091  -47.8789 H         1 UNK         0.0800 
    141 H141        3.2102  -21.8943  -47.3641 H         1 UNK         0.0800 
    142 H142        4.8458  -22.4575  -47.6169 H         1 UNK         0.0800 
    143 H143        5.0044  -23.0906  -45.1892 H         1 UNK         0.0600 
    144 H144        2.1950  -22.1336  -45.0894 H         1 UNK         0.3000 
    145 H145        1.8825  -22.7409  -41.6483 H         1 UNK         0.0600 
    146 H146        1.3067  -20.3106  -41.4608 H         1 UNK         0.0600 
    147 H147        2.2618  -19.9695  -42.9036 H         1 UNK         0.0600 
    148 H148        3.0461  -20.5629  -41.4459 H         1 UNK         0.0600 
    149 H149        0.2689  -21.3269  -43.5617 H         1 UNK         0.3000 
    150 H150       -1.0312  -24.1283  -45.2728 H         1 UNK         0.0600 
    151 H151       -2.3779  -24.3839  -43.1669 H         1 UNK         0.0600 
    152 H152       -3.2724  -23.5577  -44.4298 H         1 UNK         0.0600 
    153 H153       -2.5828  -22.6379  -43.0895 H         1 UNK         0.0600 
    154 H154       -1.9504  -21.4341  -45.1276 H         1 UNK         0.3000 
    155 H155        0.5241  -19.7428  -46.8073 H         1 UNK         0.0600 
    156 H156       -0.2835  -20.7751  -48.8859 H         1 UNK         0.0600 
    157 H157       -1.1299  -19.2562  -48.6361 H         1 UNK         0.0600 
    158 H158       -1.9395  -20.7870  -48.3016 H         1 UNK         0.0600 
    159 H159       -2.2489  -19.1328  -46.4007 H         1 UNK         0.3000 
    160 H160       -2.7999  -18.7816  -43.4896 H         1 UNK         0.0600 
    161 H161       -0.7603  -16.4984  -43.4567 H         1 UNK         0.0600 
    162 H162       -1.0311  -17.6875  -42.1919 H         1 UNK         0.0600 
    163 H163       -2.2667  -16.4885  -42.5371 H         1 UNK         0.0600 
    164 H164       -2.4172  -16.9457  -45.7722 H         1 UNK         0.3000 
    165 H165       -5.1627  -17.0125  -46.8174 H         1 UNK         0.0600 
    166 H166       -6.6345  -15.0196  -46.4418 H         1 UNK         0.0600 
    167 H167       -6.9480  -16.2932  -45.2753 H         1 UNK         0.0600 
    168 H168       -6.0178  -14.8757  -44.7956 H         1 UNK         0.0600 
    169 H169       -3.5107  -14.7169  -45.8745 H         1 UNK         0.3000 
    170 H170       -1.7120  -14.7116  -48.7687 H         1 UNK         0.0600 
    171 H171       -3.6362  -12.3816  -48.2998 H         1 UNK         0.0600 
    172 H172       -2.1387  -12.3319  -49.2308 H         1 UNK         0.0600 
    173 H173       -3.4936  -13.2895  -49.8009 H         1 UNK         0.0600 
    174 H174       -1.7206  -12.7340  -46.7576 H         1 UNK         0.3000 
    175 H175       -0.5988  -14.2313  -44.0589 H         1 UNK         0.0600 
    176 H176        1.7908  -13.9578  -45.9526 H         1 UNK         0.0600 
    177 H177        1.8633  -13.7659  -44.2017 H         1 UNK         0.0600 
    178 H178        1.4324  -15.3174  -44.9003 H         1 UNK         0.0600 
    179 H179        0.4402  -11.8750  -45.4753 H         1 UNK         0.3000 
    180 H180       -2.2832   -9.8190  -44.6284 H         1 UNK         0.0600 
    181 H181       -0.7476   -8.4669  -43.2245 H         1 UNK         0.0600 
    182 H182        0.3377   -9.8454  -43.0367 H         1 UNK         0.0600 
    183 H183       -1.2780   -9.8888  -42.3412 H         1 UNK         0.0600 
    184 H184        0.3912   -9.1779  -45.4089 H         1 UNK         0.3000 
    185 H185       -0.3953   -8.7251  -48.7020 H         1 UNK         0.0600 
    186 H186        1.8763   -7.8942  -48.2112 H         1 UNK         0.0600 
    187 H187        0.7965   -7.4686  -46.8973 H         1 UNK         0.0600 
    188 H188        1.9403   -8.7975  -46.7060 H         1 UNK         0.0600 
    189 H189        0.7284  -10.3549  -49.7162 H         1 UNK         0.3000 
    190 H190        2.1137  -24.5094  -44.8305 H         1 UNK         0.3000 
    191 H191        1.1313  -26.4244  -45.2511 H         1 UNK         0.0600 
    192 H192        2.4873  -28.4294  -45.6585 H         1 UNK         0.0600 
    193 H193        3.3308  -27.3801  -44.5324 H         1 UNK         0.0600 
    194 H194        3.8449  -27.4634  -46.2170 H         1 UNK         0.0600 
    195 H195        0.8972  -24.4230  -47.2750 H         1 UNK         0.3000 
    196 H196        1.0476  -25.5051  -49.8945 H         1 UNK         0.0600 
    197 H197       -0.3626  -23.5653  -50.5017 H         1 UNK         0.0600 
    198 H198        0.8704  -23.0636  -49.3533 H         1 UNK         0.0600 
    199 H199       -0.7922  -23.3034  -48.8172 H         1 UNK         0.0600 
    200 H200       -1.3823  -25.8344  -47.4005 H         1 UNK         0.3000 
    201 H201       -3.2541  -26.9754  -47.1192 H         1 UNK         0.0600 
    202 H202       -2.3056  -28.7554  -49.4232 H         1 UNK         0.0600 
    203 H203       -3.4391  -29.1980  -48.1542 H         1 UNK         0.0600 
    204 H204       -1.7590  -28.8860  -47.7525 H         1 UNK         0.0600 
    205 H205       -3.3651  -24.7017  -48.9657 H         1 UNK         0.3000 
    206 H206       -5.3768  -25.2172  -50.9852 H         1 UNK         0.0600 
    207 H207       -3.6784  -23.4015  -51.2082 H         1 UNK         0.0600 
    208 H208       -5.2928  -22.7072  -51.1840 H         1 UNK         0.0600 
    209 H209       -4.2886  -22.6366  -49.7419 H         1 UNK         0.0600 
    210 H210       -7.4991  -24.2886  -51.0061 H         1 UNK         0.3000 
    211 H211       -9.1197  -24.6645  -48.7181 H         1 UNK         0.0600 
    212 H212       -9.6654  -23.1324  -51.3201 H         1 UNK         0.0600 
    213 H213      -10.8889  -23.6360  -50.1605 H         1 UNK         0.0600 
    214 H214       -9.9717  -24.8475  -51.0420 H         1 UNK         0.0600 
    215 H215       -9.5959  -23.3781  -47.0594 H         1 UNK         0.3000 
    216 H216       -9.5851  -21.7592  -45.5627 H         1 UNK         0.0600 
    217 H217      -10.3125  -19.5034  -46.2245 H         1 UNK         0.0600 
    218 H218      -11.1945  -20.6895  -47.1700 H         1 UNK         0.0600 
    219 H219       -9.8614  -19.7940  -47.8981 H         1 UNK         0.0600 
    220 H220       -6.9709  -22.5567  -46.8621 H         1 UNK         0.3000 
    221 H221       -4.8080  -22.1927  -46.7732 H         1 UNK         0.0600 
    222 H222       -3.8299  -20.9200  -44.8891 H         1 UNK         0.0600 
    223 H223       -5.3690  -20.1468  -44.5619 H         1 UNK         0.0600 
    224 H224       -5.1844  -21.8813  -44.3209 H         1 UNK         0.0600 
    225 H225       -6.4271  -20.6278  -48.6744 H         1 UNK         0.3000 
    226 H226       -5.4113  -18.0051  -48.9873 H         1 UNK         0.0600 
    227 H227       -7.5216  -18.8144  -50.0178 H         1 UNK         0.0600 
    228 H228       -6.4407  -18.1966  -51.2583 H         1 UNK         0.0600 
    229 H229       -6.6209  -19.9341  -51.0391 H         1 UNK         0.0600 
    230 H230       -3.8191  -17.1355  -50.3140 H         1 UNK         0.3000 
    231 H231       -1.5218  -18.7042  -51.0463 H         1 UNK         0.0600 
    232 H232       -2.2698  -15.7860  -51.6016 H         1 UNK         0.0600 
    233 H233       -0.6799  -16.4925  -51.8805 H         1 UNK         0.0600 
    234 H234       -1.3162  -16.3952  -50.2502 H         1 UNK         0.0600 
    235 H235       -3.1326  -20.1573  -52.2959 H         1 UNK         0.3000 
    236 H236       -3.7739  -19.3989  -55.0297 H         1 UNK         0.0600 
    237 H237       -3.9295  -22.0870  -53.5595 H         1 UNK         0.0600 
    238 H238       -5.2226  -20.8924  -53.6502 H         1 UNK         0.0600 
    239 H239       -4.6847  -21.7162  -55.1054 H         1 UNK         0.0600 
    240 H240       -0.8821  -20.4609  -53.6014 H         1 UNK         0.3000 
    241 H241        0.0942  -22.2386  -55.6079 H         1 UNK         0.0600 
    242 H242        2.0982  -20.3366  -57.8806 H         1 UNK         0.3800 
    243 H243        1.9710  -21.8916  -57.1110 H         1 UNK         0.3800 
    244 H244        2.2830  -22.0216  -54.4895 H         1 UNK         0.0800 
    245 H245        1.0025  -22.3596  -53.3727 H         1 UNK         0.0800 
    246 H246        0.4189  -20.6939  -51.2353 H         1 UNK         0.0800 
    247 H247        1.8525  -21.6968  -51.2099 H         1 UNK         0.0800 
@<TRIPOS>BOND
     1    1    2 1    
     2    1  127 1    
     3    1  128 1    
     4    1  129 1    
     5    2    3 2    
     6    2    4 am   BACKBONE|DICT|INTERRES
     7    4    5 1    
     8    4  130 1    
     9    5    6 1    
    10    5   65 1    
    11    5  131 1    
    12    6    7 1    
    13    6  132 1    
    14    6  133 1    
    15    7    8 1    
    16    8    9 1    
    17    8  134 1    
    18    8  135 1    
    19    9   10 ar   
    20    9   14 ar   
    21   10   11 ar   
    22   10  136 1    
    23   11   12 ar   
    24   11  126 1    
    25   12   13 ar   
    26   12  137 1    
    27   13   14 ar   
    28   13   15 1    
    29   14  138 1    
    30   15   16 1    
    31   15  139 1    
    32   15  140 1    
    33   16   17 1    
    34   17   18 1    
    35   17  141 1    
    36   17  142 1    
    37   18   19 1    
    38   18   67 1    
    39   18  143 1    
    40   19   20 am   BACKBONE|DICT|INTERRES
    41   19  144 1    
    42   20   21 2    
    43   20   22 1    
    44   22   23 1    
    45   22   24 1    
    46   22  145 1    
    47   23  146 1    
    48   23  147 1    
    49   23  148 1    
    50   24   25 am   BACKBONE|DICT|INTERRES
    51   24  149 1    
    52   25   26 2    
    53   25   27 1    
    54   27   28 1    
    55   27   29 1    
    56   27  150 1    
    57   28  151 1    
    58   28  152 1    
    59   28  153 1    
    60   29   30 am   BACKBONE|DICT|INTERRES
    61   29  154 1    
    62   30   31 2    
    63   30   32 1    
    64   32   33 1    
    65   32   34 1    
    66   32  155 1    
    67   33  156 1    
    68   33  157 1    
    69   33  158 1    
    70   34   35 am   BACKBONE|DICT|INTERRES
    71   34  159 1    
    72   35   36 2    
    73   35   37 1    
    74   37   38 1    
    75   37   39 1    
    76   37  160 1    
    77   38  161 1    
    78   38  162 1    
    79   38  163 1    
    80   39   40 am   BACKBONE|DICT|INTERRES
    81   39  164 1    
    82   40   41 2    
    83   40   42 1    
    84   42   43 1    
    85   42   44 1    
    86   42  165 1    
    87   43  166 1    
    88   43  167 1    
    89   43  168 1    
    90   44   45 am   BACKBONE|DICT|INTERRES
    91   44  169 1    
    92   45   46 2    
    93   45   47 1    
    94   47   48 1    
    95   47   49 1    
    96   47  170 1    
    97   48  171 1    
    98   48  172 1    
    99   48  173 1    
   100   49   50 am   BACKBONE|DICT|INTERRES
   101   49  174 1    
   102   50   51 2    
   103   50   52 1    
   104   52   53 1    
   105   52   54 1    
   106   52  175 1    
   107   53  176 1    
   108   53  177 1    
   109   53  178 1    
   110   54   55 am   BACKBONE|DICT|INTERRES
   111   54  179 1    
   112   55   56 2    
   113   55   57 1    
   114   57   58 1    
   115   57   59 1    
   116   57  180 1    
   117   58  181 1    
   118   58  182 1    
   119   58  183 1    
   120   59   60 am   BACKBONE|DICT|INTERRES
   121   59  184 1    
   122   60   61 2    
   123   60   62 1    
   124   62   63 1    
   125   62   64 1    
   126   62  185 1    
   127   63  186 1    
   128   63  187 1    
   129   63  188 1    
   130   64   65 am   BACKBONE|DICT|INTERRES
   131   64  189 1    
   132   65   66 2    
   133   67   68 2    
   134   67   69 am   BACKBONE|DICT|INTERRES
   135   69   70 1    
   136   69  190 1    
   137   70   71 1    
   138   70   72 1    
   139   70  191 1    
   140   71  192 1    
   141   71  193 1    
   142   71  194 1    
   143   72   73 2    
   144   72   74 am   BACKBONE|DICT|INTERRES
   145   74   75 1    
   146   74  195 1    
   147   75   76 1    
   148   75   77 1    
   149   75  196 1    
   150   76  197 1    
   151   76  198 1    
   152   76  199 1    
   153   77   78 2    
   154   77   79 am   BACKBONE|DICT|INTERRES
   155   79   80 1    
   156   79  200 1    
   157   80   81 1    
   158   80   82 1    
   159   80  201 1    
   160   81  202 1    
   161   81  203 1    
   162   81  204 1    
   163   82   83 2    
   164   82   84 am   BACKBONE|DICT|INTERRES
   165   84   85 1    
   166   84  205 1    
   167   85   86 1    
   168   85   87 1    
   169   85  206 1    
   170   86  207 1    
   171   86  208 1    
   172   86  209 1    
   173   87   88 2    
   174   87   89 am   BACKBONE|DICT|INTERRES
   175   89   90 1    
   176   89  210 1    
   177   90   91 1    
   178   90   92 1    
   179   90  211 1    
   180   91  212 1    
   181   91  213 1    
   182   91  214 1    
   183   92   93 2    
   184   92   94 am   BACKBONE|DICT|INTERRES
   185   94   95 1    
   186   94  215 1    
   187   95   96 1    
   188   95   97 1    
   189   95  216 1    
   190   96  217 1    
   191   96  218 1    
   192   96  219 1    
   193   97   98 2    
   194   97   99 am   BACKBONE|DICT|INTERRES
   195   99  100 1    
   196   99  220 1    
   197  100  101 1    
   198  100  102 1    
   199  100  221 1    
   200  101  222 1    
   201  101  223 1    
   202  101  224 1    
   203  102  103 2    
   204  102  104 am   BACKBONE|DICT|INTERRES
   205  104  105 1    
   206  104  225 1    
   207  105  106 1    
   208  105  107 1    
   209  105  226 1    
   210  106  227 1    
   211  106  228 1    
   212  106  229 1    
   213  107  108 2    
   214  107  109 am   BACKBONE|DICT|INTERRES
   215  109  110 1    
   216  109  230 1    
   217  110  111 1    
   218  110  112 1    
   219  110  231 1    
   220  111  232 1    
   221  111  233 1    
   222  111  234 1    
   223  112  113 2    
   224  112  114 am   BACKBONE|DICT|INTERRES
   225  114  115 1    
   226  114  235 1    
   227  115  116 1    
   228  115  117 1    
   229  115  236 1    
   230  116  237 1    
   231  116  238 1    
   232  116  239 1    
   233  117  118 2    
   234  117  119 am   BACKBONE|DICT|INTERRES
   235  119  120 1    
   236  119  240 1    
   237  120  121 1    
   238  120  124 1    
   239  120  241 1    
   240  121  122 am   BACKBONE|DICT|INTERRES
   241  121  123 2    
   242  122  242 1    
   243  122  243 1    
   244  124  125 1    
   245  124  244 1    
   246  124  245 1    
   247  125  126 1    
   248  126  246 1    
   249  126  247 1    
@<TRIPOS>SUBSTRUCTURE
     1 UNK         1 GROUP             0       ****    0 ROOT    
