@<TRIPOS>MOLECULE
3R540
247   249    1
SMALL
USER_CHARGES


@<TRIPOS>ATOM
      1 CA          6.5972  -15.0741  -50.1158 C.3       0 UNK        -0.1800 
      2 C           5.2147  -14.4625  -49.9408 C.2       0 UNK         0.5000 
      3 O           4.8984  -13.4707  -50.5988 O.2       0 UNK        -0.5000 
      4 N           4.3968  -15.0476  -49.0546 N.am      1 UNK        -0.5000 
      5 CA          3.0318  -14.6471  -48.6896 C.3       1 UNK         0.1400 
      6 C6          2.0467  -14.6287  -49.8916 C.3       23 UNK        -0.0398 
      7 S7          0.2994  -14.3090  -49.4478 S.3       23 UNK        -0.2404 
      8 C8         -0.2753  -15.9274  -48.8407 C.3       23 UNK        -0.0205 
      9 C9         -0.0487  -17.0448  -49.8465 C.ar      23 UNK        -0.0193 
     10 C10        -0.7383  -17.0501  -51.0624 C.ar      23 UNK        -0.1150 
     11 C11        -0.5026  -18.0532  -52.0056 C.ar      23 UNK        -0.0193 
     12 C12         0.4256  -19.0579  -51.7205 C.ar      23 UNK        -0.1150 
     13 C13         1.1042  -19.0816  -50.4988 C.ar      23 UNK        -0.0193 
     14 C14         0.8669  -18.0641  -49.5683 C.ar      23 UNK        -0.1150 
     15 C15         2.1207  -20.1851  -50.2206 C.3       23 UNK        -0.0205 
     16 S16         1.9779  -20.9161  -48.5562 S.3       23 UNK        -0.2404 
     17 C17         0.3334  -21.7019  -48.6282 C.3       23 UNK        -0.0398 
     18 CA          0.2032  -22.8363  -47.5853 C.3       11 UNK         0.1400 
     19 N           0.2570  -22.3493  -46.2018 N.am      11 UNK        -0.5000 
     20 C           0.3748  -23.1439  -45.1283 C.2       10 UNK         0.5000 
     21 O           0.4609  -24.3700  -45.1924 O.2       10 UNK        -0.5000 
     22 CA          0.3410  -22.4669  -43.7474 C.3       10 UNK         0.1400 
     23 CB          1.6812  -21.7851  -43.4344 C.3       10 UNK        -0.1800 
     24 N          -0.7564  -21.5079  -43.6158 N.am      10 UNK        -0.5000 
     25 C          -2.0552  -21.8347  -43.6855 C.2       9 UNK         0.5000 
     26 O          -2.4622  -22.9845  -43.8381 O.2       9 UNK        -0.5000 
     27 CA         -3.0774  -20.6890  -43.6122 C.3       9 UNK         0.1400 
     28 CB         -3.3222  -20.2717  -42.1548 C.3       9 UNK        -0.1800 
     29 N          -2.6820  -19.5248  -44.4015 N.am      9 UNK        -0.5000 
     30 C          -2.5092  -19.5239  -45.7311 C.2       8 UNK         0.5000 
     31 O          -2.6952  -20.5052  -46.4504 O.2       8 UNK        -0.5000 
     32 CA         -1.9902  -18.2137  -46.3498 C.3       8 UNK         0.1400 
     33 CB         -3.1005  -17.1548  -46.3849 C.3       8 UNK        -0.1800 
     34 N          -0.8370  -17.6769  -45.6276 N.am      8 UNK        -0.5000 
     35 C           0.3199  -18.3304  -45.4469 C.2       7 UNK         0.5000 
     36 O           0.5611  -19.4433  -45.9108 O.2       7 UNK        -0.5000 
     37 CA          1.3585  -17.6469  -44.5448 C.3       7 UNK         0.1400 
     38 CB          2.1296  -16.5674  -45.3174 C.3       7 UNK        -0.1800 
     39 N           0.7379  -17.0660  -43.3539 N.am      7 UNK        -0.5000 
     40 C           0.2093  -17.7895  -42.3556 C.2       6 UNK         0.5000 
     41 O           0.2249  -19.0193  -42.3190 O.2       6 UNK        -0.5000 
     42 CA         -0.4926  -17.0084  -41.2305 C.3       6 UNK         0.1400 
     43 CB          0.5314  -16.4796  -40.2152 C.3       6 UNK        -0.1800 
     44 N          -1.2939  -15.8947  -41.7384 N.am      6 UNK        -0.5000 
     45 C          -2.3846  -16.0325  -42.5059 C.2       5 UNK         0.5000 
     46 O          -2.8571  -17.1198  -42.8320 O.2       5 UNK        -0.5000 
     47 CA         -3.0286  -14.7384  -43.0352 C.3       5 UNK         0.1400 
     48 CB         -4.0885  -14.2215  -42.0515 C.3       5 UNK        -0.1800 
     49 N          -2.0500  -13.6807  -43.2967 N.am      5 UNK        -0.5000 
     50 C          -1.0894  -13.7496  -44.2270 C.2       4 UNK         0.5000 
     51 O          -0.9212  -14.7199  -44.9711 O.2       4 UNK        -0.5000 
     52 CA         -0.1209  -12.5591  -44.2878 C.3       4 UNK         0.1400 
     53 CB          1.2438  -12.9437  -43.6963 C.3       4 UNK        -0.1800 
     54 N           0.0540  -12.0973  -45.6613 N.am      4 UNK        -0.5000 
     55 C          -0.8244  -11.3176  -46.3097 C.2       3 UNK         0.5000 
     56 O          -1.8730  -10.9215  -45.7968 O.2       3 UNK        -0.5000 
     57 CA         -0.4898  -10.9063  -47.7633 C.3       3 UNK         0.1400 
     58 CB         -1.0300   -9.5071  -48.1257 C.3       3 UNK        -0.1800 
     59 N           0.9329  -11.0199  -48.1020 N.am      3 UNK        -0.5000 
     60 C           1.9714  -10.3706  -47.5508 C.2       2 UNK         0.5000 
     61 O           1.8523   -9.4584  -46.7314 O.2       2 UNK        -0.5000 
     62 CA          3.3824  -10.8494  -47.9719 C.3       2 UNK         0.1400 
     63 CB          4.4175  -10.6870  -46.8397 C.3       2 UNK        -0.1800 
     64 N           3.4123  -12.2249  -48.4925 N.am      2 UNK        -0.5000 
     65 C           3.0043  -13.3410  -47.8701 C.2       1 UNK         0.5000 
     66 O           2.5760  -13.3625  -46.7168 O.2       1 UNK        -0.5000 
     67 C          -1.0500  -23.6948  -47.8492 C.2       11 UNK         0.5000 
     68 O          -0.9427  -24.7084  -48.5417 O.2       11 UNK        -0.5000 
     69 N          -2.1932  -23.3094  -47.2642 N.am      12 UNK        -0.5000 
     70 CA         -3.4399  -24.0717  -47.3107 C.3       12 UNK         0.1400 
     71 CB         -4.5951  -23.2103  -46.7822 C.3       12 UNK        -0.1800 
     72 C          -3.3472  -25.4063  -46.5491 C.2       12 UNK         0.5000 
     73 O          -3.7440  -26.4373  -47.0916 O.2       12 UNK        -0.5000 
     74 N          -2.7993  -25.3757  -45.3253 N.am      13 UNK        -0.5000 
     75 CA         -2.6033  -26.5461  -44.4643 C.3       13 UNK         0.1400 
     76 CB         -2.1557  -26.0912  -43.0671 C.3       13 UNK        -0.1800 
     77 C          -1.6057  -27.5641  -45.0444 C.2       13 UNK         0.5000 
     78 O          -1.8318  -28.7695  -44.9319 O.2       13 UNK        -0.5000 
     79 N          -0.5401  -27.0629  -45.6828 N.am      14 UNK        -0.5000 
     80 CA          0.4496  -27.8616  -46.4078 C.3       14 UNK         0.1400 
     81 CB          1.6963  -26.9962  -46.6532 C.3       14 UNK        -0.1800 
     82 C          -0.0743  -28.4197  -47.7466 C.2       14 UNK         0.5000 
     83 O           0.5666  -29.3045  -48.3151 O.2       14 UNK        -0.5000 
     84 N          -1.1972  -27.8721  -48.2388 N.am      15 UNK        -0.5000 
     85 CA         -1.8010  -28.0970  -49.5569 C.3       15 UNK         0.1400 
     86 CB         -2.3128  -29.5455  -49.6953 C.3       15 UNK        -0.1800 
     87 C          -0.8704  -27.6649  -50.7110 C.2       15 UNK         0.5000 
     88 O          -0.8998  -28.2551  -51.7925 O.2       15 UNK        -0.5000 
     89 N          -0.0549  -26.6359  -50.4495 N.am      16 UNK        -0.5000 
     90 CA          0.8836  -26.0393  -51.3949 C.3       16 UNK         0.1400 
     91 CB          2.0134  -25.3586  -50.6057 C.3       16 UNK        -0.1800 
     92 C           0.1895  -25.0257  -52.3187 C.2       16 UNK         0.5000 
     93 O           0.6323  -24.8366  -53.4523 O.2       16 UNK        -0.5000 
     94 N          -0.8824  -24.3992  -51.8209 N.am      17 UNK        -0.5000 
     95 CA         -1.7052  -23.4196  -52.5186 C.3       17 UNK         0.1400 
     96 CB         -0.9630  -22.0731  -52.6110 C.3       17 UNK        -0.1800 
     97 C          -3.0507  -23.2913  -51.7847 C.2       17 UNK         0.5000 
     98 O          -3.3534  -24.1051  -50.9085 O.2       17 UNK        -0.5000 
     99 N          -3.8354  -22.2759  -52.1583 N.am      18 UNK        -0.5000 
    100 CA        -5.0819  -21.9014  -51.4947 C.3       18 UNK         0.1400 
    101 CB        -6.0072  -21.2470  -52.5347 C.3       18 UNK        -0.1800 
    102 C         -4.8163  -20.9368  -50.3234 C.2       18 UNK         0.5000 
    103 O         -3.7129  -20.4033  -50.1853 O.2       18 UNK        -0.5000 
    104 N         -5.8571  -20.6855  -49.5205 N.am      19 UNK        -0.5000 
    105 CA        -5.8545  -19.7061  -48.4336 C.3       19 UNK         0.1400 
    106 CB        -6.9643  -20.0690  -47.4309 C.3       19 UNK        -0.1800 
    107 C         -6.0030  -18.2739  -48.9877 C.2       19 UNK         0.5000 
    108 O         -7.0735  -17.6760  -48.8788 O.2       19 UNK        -0.5000 
    109 N         -4.9343  -17.7779  -49.6259 N.am      20 UNK        -0.5000 
    110 CA        -4.7510  -16.4491  -50.2320 C.3       20 UNK         0.1400 
    111 CB        -4.9441  -15.3185  -49.2022 C.3       20 UNK        -0.1800 
    112 C         -5.5750  -16.1766  -51.5071 C.2       20 UNK         0.5000 
    113 O         -5.2425  -15.2421  -52.2374 O.2       20 UNK        -0.5000 
    114 N         -6.5905  -17.0024  -51.7985 N.am      21 UNK        -0.5000 
    115 CA        -7.4391  -16.9313  -52.9970 C.3       21 UNK         0.1400 
    116 CB        -8.5532  -17.9820  -52.8781 C.3       21 UNK        -0.1800 
    117 C         -6.6657  -17.1080  -54.3220 C.2       21 UNK         0.5000 
    118 O         -7.1294  -16.6598  -55.3710 O.2       21 UNK        -0.5000 
    119 N         -5.4881  -17.7326  -54.2308 N.am      22 UNK        -0.5000 
    120 CA        -4.4496  -17.8159  -55.2639 C.3       22 UNK         0.1400 
    121 C         -3.7398  -16.4690  -55.5993 C.2       22 UNK         0.5000 
    122 N         -3.8871  -15.4097  -54.8116 N.am      22 UNK        -0.7600 
    123 O         -3.0437  -16.3827  -56.6070 O.2       22 UNK        -0.5000 
    124 C124       -3.4217  -18.9275  -54.9194 C.3       23 UNK        -0.0398 
    125 S125       -2.8436  -18.8901  -53.1823 S.3       23 UNK        -0.2404 
    126 C126       -1.2410  -18.0494  -53.3349 C.3       23 UNK        -0.0205 
    127 H127        6.7414  -15.3839  -51.1508 H         1 UNK         0.0600 
    128 H128        6.7400  -15.9460  -49.4769 H         1 UNK         0.0600 
    129 H129        7.3652  -14.3413  -49.8680 H         1 UNK         0.0600 
    130 H130        4.7492  -15.8424  -48.5395 H         1 UNK         0.3000 
    131 H131        2.6846  -15.4326  -48.0185 H         1 UNK         0.0600 
    132 H132        2.3336  -13.8622  -50.6118 H         1 UNK         0.0800 
    133 H133        2.1145  -15.5687  -50.4389 H         1 UNK         0.0800 
    134 H134       -1.3412  -15.8574  -48.6250 H         1 UNK         0.0800 
    135 H135        0.2162  -16.1471  -47.8923 H         1 UNK         0.0800 
    136 H136       -1.4428  -16.2610  -51.2830 H         1 UNK         0.1150 
    137 H137        0.6218  -19.8225  -52.4574 H         1 UNK         0.1150 
    138 H138        1.4020  -18.0639  -48.6291 H         1 UNK         0.1150 
    139 H139        3.1213  -19.7658  -50.3307 H         1 UNK         0.0800 
    140 H140        2.0387  -20.9835  -50.9600 H         1 UNK         0.0800 
    141 H141       -0.4343  -20.9402  -48.4766 H         1 UNK         0.0800 
    142 H142        0.1910  -22.0949  -49.6361 H         1 UNK         0.0800 
    143 H143        1.0588  -23.5023  -47.7177 H         1 UNK         0.0600 
    144 H144        0.2277  -21.3405  -46.0735 H         1 UNK         0.3000 
    145 H145        0.1834  -23.2496  -43.0024 H         1 UNK         0.0600 
    146 H146        2.5069  -22.4930  -43.5153 H         1 UNK         0.0600 
    147 H147        1.6930  -21.3874  -42.4196 H         1 UNK         0.0600 
    148 H148        1.8868  -20.9622  -44.1187 H         1 UNK         0.0600 
    149 H149       -0.4983  -20.5413  -43.4465 H         1 UNK         0.3000 
    150 H150       -4.0195  -21.0594  -44.0212 H         1 UNK         0.0600 
    151 H151       -2.4262  -19.8459  -41.7020 H         1 UNK         0.0600 
    152 H152       -3.6239  -21.1265  -41.5483 H         1 UNK         0.0600 
    153 H153       -4.1166  -19.5283  -42.0866 H         1 UNK         0.0600 
    154 H154       -2.5457  -18.6584  -43.8869 H         1 UNK         0.3000 
    155 H155       -1.6743  -18.4224  -47.3743 H         1 UNK         0.0600 
    156 H156       -3.9228  -17.4777  -47.0204 H         1 UNK         0.0600 
    157 H157       -2.7322  -16.2053  -46.7705 H         1 UNK         0.0600 
    158 H158       -3.5154  -16.9665  -45.3958 H         1 UNK         0.0600 
    159 H159       -0.9367  -16.7474  -45.2324 H         1 UNK         0.3000 
    160 H160        2.0738  -18.4057  -44.2206 H         1 UNK         0.0600 
    161 H161        2.8867  -16.0953  -44.6913 H         1 UNK         0.0600 
    162 H162        1.4693  -15.7849  -45.6923 H         1 UNK         0.0600 
    163 H163        2.6433  -17.0030  -46.1749 H         1 UNK         0.0600 
    164 H164        0.6387  -16.0624  -43.3350 H         1 UNK         0.3000 
    165 H165       -1.1621  -17.6990  -40.7132 H         1 UNK         0.0600 
    166 H166        0.0371  -15.9929  -39.3742 H         1 UNK         0.0600 
    167 H167        1.1339  -17.2935  -39.8097 H         1 UNK         0.0600 
    168 H168        1.2142  -15.7587  -40.6667 H         1 UNK         0.0600 
    169 H169       -0.9791  -14.9632  -41.5124 H         1 UNK         0.3000 
    170 H170       -3.5253  -14.9761  -43.9779 H         1 UNK         0.0600 
    171 H171       -3.6484  -13.9416  -41.0936 H         1 UNK         0.0600 
    172 H172       -4.8434  -14.9842  -41.8558 H         1 UNK         0.0600 
    173 H173       -4.6061  -13.3495  -42.4517 H         1 UNK         0.0600 
    174 H174       -2.1238  -12.8496  -42.7277 H         1 UNK         0.3000 
    175 H175       -0.5225  -11.7362  -43.6923 H         1 UNK         0.0600 
    176 H176        1.1497  -13.2293  -42.6480 H         1 UNK         0.0600 
    177 H177        1.6927  -13.7840  -44.2254 H         1 UNK         0.0600 
    178 H178        1.9434  -12.1090  -43.7453 H         1 UNK         0.0600 
    179 H179        0.8805  -12.4341  -46.1448 H         1 UNK         0.3000 
    180 H180       -1.0057  -11.6278  -48.3982 H         1 UNK         0.0600 
    181 H181       -2.1160   -9.4704  -48.0339 H         1 UNK         0.0600 
    182 H182       -0.7851   -9.2440  -49.1547 H         1 UNK         0.0600 
    183 H183       -0.6222   -8.7335  -47.4747 H         1 UNK         0.0600 
    184 H184        1.1542  -11.7547  -48.7589 H         1 UNK         0.3000 
    185 H185        3.6874  -10.2040  -48.7965 H         1 UNK         0.0600 
    186 H186        4.5158   -9.6420  -46.5436 H         1 UNK         0.0600 
    187 H187        4.1365  -11.2533  -45.9511 H         1 UNK         0.0600 
    188 H188        5.4039  -11.0265  -47.1558 H         1 UNK         0.0600 
    189 H189        3.8000  -12.3391  -49.4251 H         1 UNK         0.3000 
    190 H190       -2.2155  -22.4325  -46.7525 H         1 UNK         0.3000 
    191 H191       -3.6512  -24.3048  -48.3547 H         1 UNK         0.0600 
    192 H192       -4.6934  -22.2964  -47.3662 H         1 UNK         0.0600 
    193 H193       -5.5439  -23.7439  -46.8473 H         1 UNK         0.0600 
    194 H194       -4.4463  -22.9255  -45.7408 H         1 UNK         0.0600 
    195 H195       -2.5335  -24.4774  -44.9270 H         1 UNK         0.3000 
    196 H196       -3.5670  -27.0495  -44.3641 H         1 UNK         0.0600 
    197 H197       -2.0043  -26.9452  -42.4058 H         1 UNK         0.0600 
    198 H198       -2.9054  -25.4504  -42.6029 H         1 UNK         0.0600 
    199 H199       -1.2184  -25.5348  -43.1074 H         1 UNK         0.0600 
    200 H200       -0.3861  -26.0580  -45.6653 H         1 UNK         0.3000 
    201 H201        0.7366  -28.7108  -45.7844 H         1 UNK         0.0600 
    202 H202        2.4746  -27.5625  -47.1662 H         1 UNK         0.0600 
    203 H203        2.1201  -26.6398  -45.7142 H         1 UNK         0.0600 
    204 H204        1.4644  -26.1252  -47.2678 H         1 UNK         0.0600 
    205 H205       -1.6491  -27.1577  -47.6825 H         1 UNK         0.3000 
    206 H206       -2.6671  -27.4353  -49.6068 H         1 UNK         0.0600 
    207 H207       -2.9615  -29.8143  -48.8615 H         1 UNK         0.0600 
    208 H208       -2.8939  -29.6679  -50.6100 H         1 UNK         0.0600 
    209 H209       -1.4946  -30.2650  -49.7306 H         1 UNK         0.0600 
    210 H210       -0.1702  -26.1542  -49.5626 H         1 UNK         0.3000 
    211 H211        1.3193  -26.8255  -52.0151 H         1 UNK         0.0600 
    212 H212        1.6368  -24.5509  -49.9772 H         1 UNK         0.0600 
    213 H213        2.7566  -24.9304  -51.2795 H         1 UNK         0.0600 
    214 H214        2.5294  -26.0712  -49.9619 H         1 UNK         0.0600 
    215 H215       -1.2226  -24.6499  -50.8987 H         1 UNK         0.3000 
    216 H216       -1.9087  -23.7918  -53.5245 H         1 UNK         0.0600 
    217 H217       -1.4352  -21.4202  -53.3434 H         1 UNK         0.0600 
    218 H218        0.0728  -22.1950  -52.9265 H         1 UNK         0.0600 
    219 H219       -0.9632  -21.5526  -51.6529 H         1 UNK         0.0600 
    220 H220       -3.4750  -21.6074  -52.8234 H         1 UNK         0.3000 
    221 H221       -5.5731  -22.7946  -51.1026 H         1 UNK         0.0600 
    222 H222       -5.5947  -20.3113  -52.9112 H         1 UNK         0.0600 
    223 H223       -6.1705  -21.9063  -53.3874 H         1 UNK         0.0600 
    224 H224       -6.9862  -21.0272  -52.1084 H         1 UNK         0.0600 
    225 H225       -6.7404  -21.1372  -49.7079 H         1 UNK         0.3000 
    226 H226       -4.9010  -19.7608  -47.9045 H         1 UNK         0.0600 
    227 H227       -6.8046  -21.0590  -47.0042 H         1 UNK         0.0600 
    228 H228       -7.9506  -20.0615  -47.8967 H         1 UNK         0.0600 
    229 H229       -6.9861  -19.3604  -46.6020 H         1 UNK         0.0600 
    230 H230       -4.1554  -18.4177  -49.7541 H         1 UNK         0.3000 
    231 H231       -3.7078  -16.4225  -50.5477 H         1 UNK         0.0600 
    232 H232       -5.9677  -15.2723  -48.8305 H         1 UNK         0.0600 
    233 H233       -4.7181  -14.3472  -49.6442 H         1 UNK         0.0600 
    234 H234       -4.2808  -15.4389  -48.3488 H         1 UNK         0.0600 
    235 H235       -6.8340  -17.6992  -51.1082 H         1 UNK         0.3000 
    236 H236       -7.8991  -15.9415  -53.0185 H         1 UNK         0.0600 
    237 H237       -8.1494  -18.9939  -52.8436 H         1 UNK         0.0600 
    238 H238       -9.1490  -17.8264  -51.9784 H         1 UNK         0.0600 
    239 H239       -9.2325  -17.9291  -53.7298 H         1 UNK         0.0600 
    240 H240       -5.1965  -18.0472  -53.3174 H         1 UNK         0.3000 
    241 H241       -4.9489  -18.1134  -56.1878 H         1 UNK         0.0600 
    242 H242       -4.4437  -15.4484  -53.9629 H         1 UNK         0.3800 
    243 H243       -3.4237  -14.5497  -55.0567 H         1 UNK         0.3800 
    244 H244       -2.5699  -18.9147  -55.6018 H         1 UNK         0.0800 
    245 H245       -3.8942  -19.8984  -55.0733 H         1 UNK         0.0800 
    246 H246       -0.6392  -18.5432  -54.0992 H         1 UNK         0.0800 
    247 H247       -1.3963  -17.0240  -53.6736 H         1 UNK         0.0800 
@<TRIPOS>BOND
     1    1    2 1    
     2    1  127 1    
     3    1  128 1    
     4    1  129 1    
     5    2    3 2    
     6    2    4 am   BACKBONE|DICT|INTERRES
     7    4    5 1    
     8    4  130 1    
     9    5    6 1    
    10    5   65 1    
    11    5  131 1    
    12    6    7 1    
    13    6  132 1    
    14    6  133 1    
    15    7    8 1    
    16    8    9 1    
    17    8  134 1    
    18    8  135 1    
    19    9   10 ar   
    20    9   14 ar   
    21   10   11 ar   
    22   10  136 1    
    23   11   12 ar   
    24   11  126 1    
    25   12   13 ar   
    26   12  137 1    
    27   13   14 ar   
    28   13   15 1    
    29   14  138 1    
    30   15   16 1    
    31   15  139 1    
    32   15  140 1    
    33   16   17 1    
    34   17   18 1    
    35   17  141 1    
    36   17  142 1    
    37   18   19 1    
    38   18   67 1    
    39   18  143 1    
    40   19   20 am   BACKBONE|DICT|INTERRES
    41   19  144 1    
    42   20   21 2    
    43   20   22 1    
    44   22   23 1    
    45   22   24 1    
    46   22  145 1    
    47   23  146 1    
    48   23  147 1    
    49   23  148 1    
    50   24   25 am   BACKBONE|DICT|INTERRES
    51   24  149 1    
    52   25   26 2    
    53   25   27 1    
    54   27   28 1    
    55   27   29 1    
    56   27  150 1    
    57   28  151 1    
    58   28  152 1    
    59   28  153 1    
    60   29   30 am   BACKBONE|DICT|INTERRES
    61   29  154 1    
    62   30   31 2    
    63   30   32 1    
    64   32   33 1    
    65   32   34 1    
    66   32  155 1    
    67   33  156 1    
    68   33  157 1    
    69   33  158 1    
    70   34   35 am   BACKBONE|DICT|INTERRES
    71   34  159 1    
    72   35   36 2    
    73   35   37 1    
    74   37   38 1    
    75   37   39 1    
    76   37  160 1    
    77   38  161 1    
    78   38  162 1    
    79   38  163 1    
    80   39   40 am   BACKBONE|DICT|INTERRES
    81   39  164 1    
    82   40   41 2    
    83   40   42 1    
    84   42   43 1    
    85   42   44 1    
    86   42  165 1    
    87   43  166 1    
    88   43  167 1    
    89   43  168 1    
    90   44   45 am   BACKBONE|DICT|INTERRES
    91   44  169 1    
    92   45   46 2    
    93   45   47 1    
    94   47   48 1    
    95   47   49 1    
    96   47  170 1    
    97   48  171 1    
    98   48  172 1    
    99   48  173 1    
   100   49   50 am   BACKBONE|DICT|INTERRES
   101   49  174 1    
   102   50   51 2    
   103   50   52 1    
   104   52   53 1    
   105   52   54 1    
   106   52  175 1    
   107   53  176 1    
   108   53  177 1    
   109   53  178 1    
   110   54   55 am   BACKBONE|DICT|INTERRES
   111   54  179 1    
   112   55   56 2    
   113   55   57 1    
   114   57   58 1    
   115   57   59 1    
   116   57  180 1    
   117   58  181 1    
   118   58  182 1    
   119   58  183 1    
   120   59   60 am   BACKBONE|DICT|INTERRES
   121   59  184 1    
   122   60   61 2    
   123   60   62 1    
   124   62   63 1    
   125   62   64 1    
   126   62  185 1    
   127   63  186 1    
   128   63  187 1    
   129   63  188 1    
   130   64   65 am   BACKBONE|DICT|INTERRES
   131   64  189 1    
   132   65   66 2    
   133   67   68 2    
   134   67   69 am   BACKBONE|DICT|INTERRES
   135   69   70 1    
   136   69  190 1    
   137   70   71 1    
   138   70   72 1    
   139   70  191 1    
   140   71  192 1    
   141   71  193 1    
   142   71  194 1    
   143   72   73 2    
   144   72   74 am   BACKBONE|DICT|INTERRES
   145   74   75 1    
   146   74  195 1    
   147   75   76 1    
   148   75   77 1    
   149   75  196 1    
   150   76  197 1    
   151   76  198 1    
   152   76  199 1    
   153   77   78 2    
   154   77   79 am   BACKBONE|DICT|INTERRES
   155   79   80 1    
   156   79  200 1    
   157   80   81 1    
   158   80   82 1    
   159   80  201 1    
   160   81  202 1    
   161   81  203 1    
   162   81  204 1    
   163   82   83 2    
   164   82   84 am   BACKBONE|DICT|INTERRES
   165   84   85 1    
   166   84  205 1    
   167   85   86 1    
   168   85   87 1    
   169   85  206 1    
   170   86  207 1    
   171   86  208 1    
   172   86  209 1    
   173   87   88 2    
   174   87   89 am   BACKBONE|DICT|INTERRES
   175   89   90 1    
   176   89  210 1    
   177   90   91 1    
   178   90   92 1    
   179   90  211 1    
   180   91  212 1    
   181   91  213 1    
   182   91  214 1    
   183   92   93 2    
   184   92   94 am   BACKBONE|DICT|INTERRES
   185   94   95 1    
   186   94  215 1    
   187   95   96 1    
   188   95   97 1    
   189   95  216 1    
   190   96  217 1    
   191   96  218 1    
   192   96  219 1    
   193   97   98 2    
   194   97   99 am   BACKBONE|DICT|INTERRES
   195   99  100 1    
   196   99  220 1    
   197  100  101 1    
   198  100  102 1    
   199  100  221 1    
   200  101  222 1    
   201  101  223 1    
   202  101  224 1    
   203  102  103 2    
   204  102  104 am   BACKBONE|DICT|INTERRES
   205  104  105 1    
   206  104  225 1    
   207  105  106 1    
   208  105  107 1    
   209  105  226 1    
   210  106  227 1    
   211  106  228 1    
   212  106  229 1    
   213  107  108 2    
   214  107  109 am   BACKBONE|DICT|INTERRES
   215  109  110 1    
   216  109  230 1    
   217  110  111 1    
   218  110  112 1    
   219  110  231 1    
   220  111  232 1    
   221  111  233 1    
   222  111  234 1    
   223  112  113 2    
   224  112  114 am   BACKBONE|DICT|INTERRES
   225  114  115 1    
   226  114  235 1    
   227  115  116 1    
   228  115  117 1    
   229  115  236 1    
   230  116  237 1    
   231  116  238 1    
   232  116  239 1    
   233  117  118 2    
   234  117  119 am   BACKBONE|DICT|INTERRES
   235  119  120 1    
   236  119  240 1    
   237  120  121 1    
   238  120  124 1    
   239  120  241 1    
   240  121  122 am   BACKBONE|DICT|INTERRES
   241  121  123 2    
   242  122  242 1    
   243  122  243 1    
   244  124  125 1    
   245  124  244 1    
   246  124  245 1    
   247  125  126 1    
   248  126  246 1    
   249  126  247 1    
@<TRIPOS>SUBSTRUCTURE
     1 UNK         1 GROUP             0       ****    0 ROOT    
