@<TRIPOS>MOLECULE
3R540
247   249    1
SMALL
USER_CHARGES


@<TRIPOS>ATOM
      1 CA         -3.1759  -13.6341  -48.0562 C.3       0 UNK        -0.1800 
      2 C          -2.0901  -14.3056  -47.2288 C.2       0 UNK         0.5000 
      3 O          -1.5943  -13.7147  -46.2713 O.2       0 UNK        -0.5000 
      4 N          -1.7324  -15.5471  -47.5805 N.am      1 UNK        -0.5000 
      5 CA         -0.7054  -16.3674  -46.9214 C.3       1 UNK         0.1400 
      6 C6         -0.3644  -17.6538  -47.7206 C.3       23 UNK        -0.0398 
      7 S7         -1.7892  -18.4985  -48.4983 S.3       23 UNK        -0.2404 
      8 C8         -1.4662  -18.1622  -50.2687 C.3       23 UNK        -0.0205 
      9 C9         -0.4144  -19.0487  -50.9419 C.ar      23 UNK        -0.0193 
     10 C10        -0.3881  -19.1042  -52.3397 C.ar      23 UNK        -0.1150 
     11 C11         0.5639  -19.8771  -53.0119 C.ar      23 UNK        -0.0193 
     12 C12         1.4879  -20.6208  -52.2733 C.ar      23 UNK        -0.1150 
     13 C13         1.4738  -20.5854  -50.8769 C.ar      23 UNK        -0.0193 
     14 C14         0.5316  -19.7896  -50.2212 C.ar      23 UNK        -0.1150 
     15 C15         2.4839  -21.3984  -50.0805 C.3       23 UNK        -0.0205 
     16 S16         1.7328  -22.8938  -49.3606 S.3       23 UNK        -0.2404 
     17 C17         1.4003  -22.3318  -47.6592 C.3       23 UNK        -0.0398 
     18 CA          0.4580  -23.2818  -46.8804 C.3       11 UNK         0.1400 
     19 N           0.7559  -23.2665  -45.4480 N.am      11 UNK        -0.5000 
     20 C           0.4262  -24.2340  -44.5817 C.2       10 UNK         0.5000 
     21 O          -0.1142  -25.2892  -44.9097 O.2       10 UNK        -0.5000 
     22 CA          0.7244  -23.9613  -43.0932 C.3       10 UNK         0.1400 
     23 CB          2.1245  -24.4719  -42.7226 C.3       10 UNK        -0.1800 
     24 N           0.6217  -22.5418  -42.7444 N.am      10 UNK        -0.5000 
     25 C          -0.5216  -21.8426  -42.7613 C.2       9 UNK         0.5000 
     26 O          -1.6184  -22.3451  -42.9963 O.2       9 UNK        -0.5000 
     27 CA         -0.4238  -20.3215  -42.5437 C.3       9 UNK         0.1400 
     28 CB         -0.6636  -19.9617  -41.0711 C.3       9 UNK        -0.1800 
     29 N           0.8420  -19.7343  -42.9864 N.am      9 UNK        -0.5000 
     30 C           1.3077  -19.7440  -44.2438 C.2       8 UNK         0.5000 
     31 O           0.7347  -20.3165  -45.1734 O.2       8 UNK        -0.5000 
     32 CA          2.6312  -18.9937  -44.4790 C.3       8 UNK         0.1400 
     33 CB          2.8859  -18.6442  -45.9562 C.3       8 UNK        -0.1800 
     34 N           2.6553  -17.7632  -43.6890 N.am      8 UNK        -0.5000 
     35 C           3.5406  -17.4728  -42.7282 C.2       7 UNK         0.5000 
     36 O           4.4452  -18.2357  -42.3840 O.2       7 UNK        -0.5000 
     37 CA          3.3715  -16.1046  -42.0329 C.3       7 UNK         0.1400 
     38 CB          4.5976  -15.7000  -41.1884 C.3       7 UNK        -0.1800 
     39 N           3.0050  -15.0272  -42.9567 N.am      7 UNK        -0.5000 
     40 C           3.6959  -14.5908  -44.0217 C.2       6 UNK         0.5000 
     41 O           4.7714  -15.0603  -44.3947 O.2       6 UNK        -0.5000 
     42 CA          3.0844  -13.4060  -44.7861 C.3       6 UNK         0.1400 
     43 CB          1.9182  -13.8701  -45.6704 C.3       6 UNK        -0.1800 
     44 N           2.6127  -12.3778  -43.8603 N.am      6 UNK        -0.5000 
     45 C           3.3568  -11.3527  -43.4218 C.2       5 UNK         0.5000 
     46 O           4.5035  -11.1239  -43.8087 O.2       5 UNK        -0.5000 
     47 CA          2.7168  -10.4215  -42.3724 C.3       5 UNK         0.1400 
     48 CB          2.0134   -9.2411  -43.0598 C.3       5 UNK        -0.1800 
     49 N           1.7561  -11.1108  -41.5109 N.am      5 UNK        -0.5000 
     50 C           2.0806  -12.0109  -40.5720 C.2       4 UNK         0.5000 
     51 O           3.2395  -12.2852  -40.2611 O.2       4 UNK        -0.5000 
     52 CA          0.9154  -12.7450  -39.8770 C.3       4 UNK         0.1400 
     53 CB          0.6204  -12.1113  -38.5091 C.3       4 UNK        -0.1800 
     54 N          -0.3234  -12.7817  -40.6637 N.am      4 UNK        -0.5000 
     55 C          -0.4641  -13.4033  -41.8413 C.2       3 UNK         0.5000 
     56 O           0.4579  -13.9805  -42.4216 O.2       3 UNK        -0.5000 
     57 CA         -1.8433  -13.2968  -42.5122 C.3       3 UNK         0.1400 
     58 CB         -1.8828  -12.0706  -43.4367 C.3       3 UNK        -0.1800 
     59 N          -2.1619  -14.4967  -43.2860 N.am      3 UNK        -0.5000 
     60 C          -2.4521  -15.6875  -42.7398 C.2       2 UNK         0.5000 
     61 O          -2.5150  -15.8763  -41.5239 O.2       2 UNK        -0.5000 
     62 CA         -2.7567  -16.8659  -43.6881 C.3       2 UNK         0.1400 
     63 CB         -4.2691  -17.1356  -43.7262 C.3       2 UNK        -0.1800 
     64 N          -2.2829  -16.6740  -45.0581 N.am      2 UNK        -0.5000 
     65 C          -0.9975  -16.6693  -45.4350 C.2       1 UNK         0.5000 
     66 O          -0.0570  -16.8536  -44.6615 O.2       1 UNK        -0.5000 
     67 C          -1.0299  -22.9526  -47.1169 C.2       11 UNK         0.5000 
     68 O          -1.6888  -23.6241  -47.9116 O.2       11 UNK        -0.5000 
     69 N          -1.5577  -21.9727  -46.3664 N.am      12 UNK        -0.5000 
     70 CA         -2.9790  -21.6181  -46.3539 C.3       12 UNK         0.1400 
     71 CB         -3.2051  -20.3845  -45.4693 C.3       12 UNK        -0.1800 
     72 C          -3.8743  -22.7885  -45.9019 C.2       12 UNK         0.5000 
     73 O          -4.8893  -23.0586  -46.5436 O.2       12 UNK        -0.5000 
     74 N          -3.4430  -23.5030  -44.8518 N.am      13 UNK        -0.5000 
     75 CA         -4.0692  -24.7227  -44.3330 C.3       13 UNK         0.1400 
     76 CB         -3.4106  -25.1009  -42.9981 C.3       13 UNK        -0.1800 
     77 C          -4.0193  -25.9129  -45.3127 C.2       13 UNK         0.5000 
     78 O          -4.8865  -26.7840  -45.2460 O.2       13 UNK        -0.5000 
     79 N          -3.0431  -25.9098  -46.2316 N.am      14 UNK        -0.5000 
     80 CA         -2.9315  -26.8447  -47.3554 C.3       14 UNK         0.1400 
     81 CB         -1.4485  -27.0153  -47.7287 C.3       14 UNK        -0.1800 
     82 C          -3.7865  -26.4192  -48.5723 C.2       14 UNK         0.5000 
     83 O          -3.6462  -27.0086  -49.6443 O.2       14 UNK        -0.5000 
     84 N          -4.6591  -25.4183  -48.3811 N.am      15 UNK        -0.5000 
     85 CA         -5.6435  -24.8611  -49.3099 C.3       15 UNK         0.1400 
     86 CB         -6.5678  -25.9463  -49.9005 C.3       15 UNK        -0.1800 
     87 C          -5.0525  -23.9363  -50.3872 C.2       15 UNK         0.5000 
     88 O          -5.7865  -23.5431  -51.2947 O.2       15 UNK        -0.5000 
     89 N          -3.7801  -23.5284  -50.2577 N.am      16 UNK        -0.5000 
     90 CA         -3.1274  -22.5947  -51.1856 C.3       16 UNK         0.1400 
     91 CB         -1.6167  -22.5756  -50.9278 C.3       16 UNK        -0.1800 
     92 C          -3.7071  -21.1664  -51.1279 C.2       16 UNK         0.5000 
     93 O          -3.5293  -20.4040  -52.0745 O.2       16 UNK        -0.5000 
     94 N          -4.4258  -20.8397  -50.0437 N.am      17 UNK        -0.5000 
     95 CA         -5.2063  -19.6096  -49.9051 C.3       17 UNK         0.1400 
     96 CB         -5.6377  -19.4491  -48.4400 C.3       17 UNK        -0.1800 
     97 C          -6.4274  -19.5640  -50.8458 C.2       17 UNK         0.5000 
     98 O          -6.8359  -18.4741  -51.2475 O.2       17 UNK        -0.5000 
     99 N          -6.9780  -20.7380  -51.1860 N.am      18 UNK        -0.5000 
    100 CA        -8.0489  -20.8976  -52.1668 C.3       18 UNK         0.1400 
    101 CB        -8.9840  -22.0364  -51.7270 C.3       18 UNK        -0.1800 
    102 C         -7.4496  -21.1745  -53.5537 C.2       18 UNK         0.5000 
    103 O         -7.7647  -20.4690  -54.5127 O.2       18 UNK        -0.5000 
    104 N         -6.5570  -22.1699  -53.6283 N.am      19 UNK        -0.5000 
    105 CA        -5.8278  -22.5796  -54.8269 C.3       19 UNK         0.1400 
    106 CB        -5.4898  -24.0767  -54.7068 C.3       19 UNK        -0.1800 
    107 C         -4.5773  -21.7050  -55.0470 C.2       19 UNK         0.5000 
    108 O         -3.4658  -22.2244  -55.1706 O.2       19 UNK        -0.5000 
    109 N         -4.7761  -20.3821  -55.0945 N.am      20 UNK        -0.5000 
    110 CA        -3.7366  -19.3584  -55.2262 C.3       20 UNK         0.1400 
    111 CB        -4.2728  -18.0344  -54.6543 C.3       20 UNK        -0.1800 
    112 C         -3.2264  -19.2233  -56.6771 C.2       20 UNK         0.5000 
    113 O         -3.1902  -18.1222  -57.2305 O.2       20 UNK        -0.5000 
    114 N         -2.8339  -20.3574  -57.2720 N.am      21 UNK        -0.5000 
    115 CA        -2.3787  -20.5006  -58.6584 C.3       21 UNK         0.1400 
    116 CB        -2.1943  -21.9951  -58.9628 C.3       21 UNK        -0.1800 
    117 C         -1.0919  -19.7182  -58.9863 C.2       21 UNK         0.5000 
    118 O         -0.8435  -19.4225  -60.1558 O.2       21 UNK        -0.5000 
    119 N         -0.3119  -19.3849  -57.9514 N.am      22 UNK        -0.5000 
    120 CA         0.8568  -18.4998  -58.0244 C.3       22 UNK         0.1400 
    121 C          0.5216  -16.9876  -58.2122 C.2       22 UNK         0.5000 
    122 N         -0.7295  -16.5549  -58.0918 N.am      22 UNK        -0.7600 
    123 O          1.4160  -16.1930  -58.4893 O.2       22 UNK        -0.5000 
    124 C124        1.8269  -18.7536  -56.8419 C.3       23 UNK        -0.0398 
    125 S125        1.1667  -18.3032  -55.1954 S.3       23 UNK        -0.2404 
    126 C126        0.6026  -19.9035  -54.5328 C.3       23 UNK        -0.0205 
    127 H127       -2.7925  -12.7163  -48.5019 H         1 UNK         0.0600 
    128 H128       -4.0249  -13.3780  -47.4225 H         1 UNK         0.0600 
    129 H129       -3.5321  -14.2801  -48.8591 H         1 UNK         0.0600 
    130 H130       -2.1948  -15.9943  -48.3593 H         1 UNK         0.3000 
    131 H131        0.2004  -15.7606  -46.9137 H         1 UNK         0.0600 
    132 H132        0.3570  -17.3967  -48.4971 H         1 UNK         0.0800 
    133 H133        0.1437  -18.3886  -47.0951 H         1 UNK         0.0800 
    134 H134       -1.1767  -17.1179  -50.3916 H         1 UNK         0.0800 
    135 H135       -2.4074  -18.2759  -50.8056 H         1 UNK         0.0800 
    136 H136       -1.1070  -18.5336  -52.9111 H         1 UNK         0.1150 
    137 H137        2.2223  -21.2263  -52.7858 H         1 UNK         0.1150 
    138 H138        0.5399  -19.7630  -49.1452 H         1 UNK         0.1150 
    139 H139        2.9273  -20.7794  -49.2990 H         1 UNK         0.0800 
    140 H140        3.3099  -21.7044  -50.7242 H         1 UNK         0.0800 
    141 H141        1.0210  -21.3103  -47.6602 H         1 UNK         0.0800 
    142 H142        2.3704  -22.2809  -47.1623 H         1 UNK         0.0800 
    143 H143        0.6288  -24.3011  -47.2342 H         1 UNK         0.0600 
    144 H144        1.1262  -22.3975  -45.0860 H         1 UNK         0.3000 
    145 H145       -0.0090  -24.5121  -42.5007 H         1 UNK         0.0600 
    146 H146        2.2251  -25.5340  -42.9503 H         1 UNK         0.0600 
    147 H147        2.3197  -24.3496  -41.6570 H         1 UNK         0.0600 
    148 H148        2.9053  -23.9431  -43.2708 H         1 UNK         0.0600 
    149 H149        1.4812  -22.0566  -42.5337 H         1 UNK         0.3000 
    150 H150       -1.2146  -19.8615  -43.1368 H         1 UNK         0.0600 
    151 H151        0.1224  -20.3573  -40.4267 H         1 UNK         0.0600 
    152 H152       -1.6131  -20.3677  -40.7194 H         1 UNK         0.0600 
    153 H153       -0.7032  -18.8810  -40.9312 H         1 UNK         0.0600 
    154 H154        1.3761  -19.2369  -42.2896 H         1 UNK         0.3000 
    155 H155        3.4204  -19.6771  -44.1606 H         1 UNK         0.0600 
    156 H156        2.2050  -17.8707  -46.3076 H         1 UNK         0.0600 
    157 H157        2.7758  -19.5143  -46.6046 H         1 UNK         0.0600 
    158 H158        3.9000  -18.2683  -46.0921 H         1 UNK         0.0600 
    159 H159        1.8975  -17.1146  -43.8803 H         1 UNK         0.3000 
    160 H160        2.5269  -16.2152  -41.3514 H         1 UNK         0.0600 
    161 H161        5.4983  -15.6147  -41.7969 H         1 UNK         0.0600 
    162 H162        4.7972  -16.4359  -40.4088 H         1 UNK         0.0600 
    163 H163        4.4363  -14.7424  -40.6939 H         1 UNK         0.0600 
    164 H164        2.0993  -14.5977  -42.7725 H         1 UNK         0.3000 
    165 H165        3.8540  -12.9910  -45.4406 H         1 UNK         0.0600 
    166 H166        2.2461  -14.6423  -46.3671 H         1 UNK         0.0600 
    167 H167        1.0996  -14.2817  -45.0792 H         1 UNK         0.0600 
    168 H168        1.5175  -13.0461  -46.2609 H         1 UNK         0.0600 
    169 H169        1.7032  -12.5326  -43.4459 H         1 UNK         0.3000 
    170 H170        3.5186  -10.0247  -41.7460 H         1 UNK         0.0600 
    171 H171        1.6152   -8.5383  -42.3277 H         1 UNK         0.0600 
    172 H172        1.1878   -9.5751  -43.6897 H         1 UNK         0.0600 
    173 H173        2.7079   -8.6889  -43.6944 H         1 UNK         0.0600 
    174 H174        0.7785  -10.9305  -41.6825 H         1 UNK         0.3000 
    175 H175        1.2361  -13.7763  -39.7144 H         1 UNK         0.0600 
    176 H176        1.5149  -12.0940  -37.8848 H         1 UNK         0.0600 
    177 H177        0.2702  -11.0831  -38.6091 H         1 UNK         0.0600 
    178 H178       -0.1398  -12.6751  -37.9681 H         1 UNK         0.0600 
    179 H179       -1.1216  -12.3130  -40.2594 H         1 UNK         0.3000 
    180 H180       -2.6063  -13.1753  -41.7404 H         1 UNK         0.0600 
    181 H181       -1.0942  -12.1083  -44.1895 H         1 UNK         0.0600 
    182 H182       -1.7491  -11.1483  -42.8704 H         1 UNK         0.0600 
    183 H183       -2.8381  -11.9968  -43.9567 H         1 UNK         0.0600 
    184 H184       -2.0658  -14.4222  -44.2919 H         1 UNK         0.3000 
    185 H185       -2.2609  -17.7474  -43.2785 H         1 UNK         0.0600 
    186 H186       -4.6558  -17.3389  -42.7266 H         1 UNK         0.0600 
    187 H187       -4.8189  -16.2812  -44.1229 H         1 UNK         0.0600 
    188 H188       -4.5050  -18.0005  -44.3442 H         1 UNK         0.0600 
    189 H189       -2.9847  -16.4955  -45.7610 H         1 UNK         0.3000 
    190 H190       -0.9430  -21.4439  -45.7585 H         1 UNK         0.3000 
    191 H191       -3.2554  -21.3573  -47.3769 H         1 UNK         0.0600 
    192 H192       -2.5562  -19.5590  -45.7600 H         1 UNK         0.0600 
    193 H193       -4.2353  -20.0389  -45.5533 H         1 UNK         0.0600 
    194 H194       -3.0258  -20.5991  -44.4172 H         1 UNK         0.0600 
    195 H195       -2.6348  -23.1631  -44.3359 H         1 UNK         0.3000 
    196 H196       -5.1212  -24.5001  -44.1435 H         1 UNK         0.0600 
    197 H197       -3.8749  -25.9900  -42.5695 H         1 UNK         0.0600 
    198 H198       -3.5107  -24.2984  -42.2672 H         1 UNK         0.0600 
    199 H199       -2.3481  -25.3118  -43.1216 H         1 UNK         0.0600 
    200 H200       -2.3709  -25.1544  -46.2184 H         1 UNK         0.3000 
    201 H201       -3.3023  -27.8206  -47.0362 H         1 UNK         0.0600 
    202 H202       -1.3214  -27.8026  -48.4725 H         1 UNK         0.0600 
    203 H203       -0.8520  -27.2933  -46.8597 H         1 UNK         0.0600 
    204 H204       -1.0249  -26.1035  -48.1475 H         1 UNK         0.0600 
    205 H205       -4.6447  -24.9601  -47.4779 H         1 UNK         0.3000 
    206 H206       -6.2729  -24.2148  -48.6969 H         1 UNK         0.0600 
    207 H207       -6.9761  -26.5870  -49.1189 H         1 UNK         0.0600 
    208 H208       -7.4130  -25.4962  -50.4227 H         1 UNK         0.0600 
    209 H209       -6.0467  -26.5790  -50.6191 H         1 UNK         0.0600 
    210 H210       -3.2265  -23.8533  -49.4727 H         1 UNK         0.3000 
    211 H211       -3.2876  -22.9694  -52.1988 H         1 UNK         0.0600 
    212 H212       -1.0987  -22.0574  -51.7346 H         1 UNK         0.0600 
    213 H213       -1.2031  -23.5823  -50.8699 H         1 UNK         0.0600 
    214 H214       -1.3735  -22.0541  -50.0022 H         1 UNK         0.0600 
    215 H215       -4.5147  -21.5245  -49.3089 H         1 UNK         0.3000 
    216 H216       -4.5688  -18.7632  -50.1633 H         1 UNK         0.0600 
    217 H217       -4.7711  -19.3276  -47.7917 H         1 UNK         0.0600 
    218 H218       -6.2076  -20.3099  -48.0879 H         1 UNK         0.0600 
    219 H219       -6.2615  -18.5640  -48.3095 H         1 UNK         0.0600 
    220 H220       -6.5437  -21.5909  -50.8585 H         1 UNK         0.3000 
    221 H221       -8.6425  -19.9830  -52.2289 H         1 UNK         0.0600 
    222 H222       -8.4580  -22.9870  -51.6327 H         1 UNK         0.0600 
    223 H223       -9.4445  -21.8145  -50.7643 H         1 UNK         0.0600 
    224 H224       -9.7902  -22.1777  -52.4479 H         1 UNK         0.0600 
    225 H225       -6.3249  -22.6811  -52.7787 H         1 UNK         0.3000 
    226 H226       -6.4711  -22.4530  -55.7001 H         1 UNK         0.0600 
    227 H227       -6.3916  -24.6745  -54.5733 H         1 UNK         0.0600 
    228 H228       -4.9903  -24.4396  -55.6058 H         1 UNK         0.0600 
    229 H229       -4.8308  -24.2743  -53.8604 H         1 UNK         0.0600 
    230 H230       -5.7287  -20.0499  -55.0038 H         1 UNK         0.3000 
    231 H231       -2.8806  -19.6546  -54.6167 H         1 UNK         0.0600 
    232 H232       -5.1333  -17.6715  -55.2174 H         1 UNK         0.0600 
    233 H233       -3.5075  -17.2576  -54.6795 H         1 UNK         0.0600 
    234 H234       -4.5777  -18.1524  -53.6138 H         1 UNK         0.0600 
    235 H235       -2.8964  -21.2095  -56.7219 H         1 UNK         0.3000 
    236 H236       -3.1670  -20.1123  -59.3063 H         1 UNK         0.0600 
    237 H237       -1.4349  -22.4441  -58.3213 H         1 UNK         0.0600 
    238 H238       -3.1242  -22.5452  -58.8175 H         1 UNK         0.0600 
    239 H239       -1.8847  -22.1495  -59.9973 H         1 UNK         0.0600 
    240 H240       -0.6069  -19.6562  -57.0270 H         1 UNK         0.3000 
    241 H241        1.4015  -18.7789  -58.9285 H         1 UNK         0.0600 
    242 H242       -1.4869  -17.1859  -57.8544 H         1 UNK         0.3800 
    243 H243       -0.9256  -15.5754  -58.2234 H         1 UNK         0.3800 
    244 H244        2.1370  -19.7990  -56.8383 H         1 UNK         0.0800 
    245 H245        2.7468  -18.1865  -56.9938 H         1 UNK         0.0800 
    246 H246       -0.3907  -20.1343  -54.9187 H         1 UNK         0.0800 
    247 H247        1.2623  -20.7014  -54.8766 H         1 UNK         0.0800 
@<TRIPOS>BOND
     1    1    2 1    
     2    1  127 1    
     3    1  128 1    
     4    1  129 1    
     5    2    3 2    
     6    2    4 am   BACKBONE|DICT|INTERRES
     7    4    5 1    
     8    4  130 1    
     9    5    6 1    
    10    5   65 1    
    11    5  131 1    
    12    6    7 1    
    13    6  132 1    
    14    6  133 1    
    15    7    8 1    
    16    8    9 1    
    17    8  134 1    
    18    8  135 1    
    19    9   10 ar   
    20    9   14 ar   
    21   10   11 ar   
    22   10  136 1    
    23   11   12 ar   
    24   11  126 1    
    25   12   13 ar   
    26   12  137 1    
    27   13   14 ar   
    28   13   15 1    
    29   14  138 1    
    30   15   16 1    
    31   15  139 1    
    32   15  140 1    
    33   16   17 1    
    34   17   18 1    
    35   17  141 1    
    36   17  142 1    
    37   18   19 1    
    38   18   67 1    
    39   18  143 1    
    40   19   20 am   BACKBONE|DICT|INTERRES
    41   19  144 1    
    42   20   21 2    
    43   20   22 1    
    44   22   23 1    
    45   22   24 1    
    46   22  145 1    
    47   23  146 1    
    48   23  147 1    
    49   23  148 1    
    50   24   25 am   BACKBONE|DICT|INTERRES
    51   24  149 1    
    52   25   26 2    
    53   25   27 1    
    54   27   28 1    
    55   27   29 1    
    56   27  150 1    
    57   28  151 1    
    58   28  152 1    
    59   28  153 1    
    60   29   30 am   BACKBONE|DICT|INTERRES
    61   29  154 1    
    62   30   31 2    
    63   30   32 1    
    64   32   33 1    
    65   32   34 1    
    66   32  155 1    
    67   33  156 1    
    68   33  157 1    
    69   33  158 1    
    70   34   35 am   BACKBONE|DICT|INTERRES
    71   34  159 1    
    72   35   36 2    
    73   35   37 1    
    74   37   38 1    
    75   37   39 1    
    76   37  160 1    
    77   38  161 1    
    78   38  162 1    
    79   38  163 1    
    80   39   40 am   BACKBONE|DICT|INTERRES
    81   39  164 1    
    82   40   41 2    
    83   40   42 1    
    84   42   43 1    
    85   42   44 1    
    86   42  165 1    
    87   43  166 1    
    88   43  167 1    
    89   43  168 1    
    90   44   45 am   BACKBONE|DICT|INTERRES
    91   44  169 1    
    92   45   46 2    
    93   45   47 1    
    94   47   48 1    
    95   47   49 1    
    96   47  170 1    
    97   48  171 1    
    98   48  172 1    
    99   48  173 1    
   100   49   50 am   BACKBONE|DICT|INTERRES
   101   49  174 1    
   102   50   51 2    
   103   50   52 1    
   104   52   53 1    
   105   52   54 1    
   106   52  175 1    
   107   53  176 1    
   108   53  177 1    
   109   53  178 1    
   110   54   55 am   BACKBONE|DICT|INTERRES
   111   54  179 1    
   112   55   56 2    
   113   55   57 1    
   114   57   58 1    
   115   57   59 1    
   116   57  180 1    
   117   58  181 1    
   118   58  182 1    
   119   58  183 1    
   120   59   60 am   BACKBONE|DICT|INTERRES
   121   59  184 1    
   122   60   61 2    
   123   60   62 1    
   124   62   63 1    
   125   62   64 1    
   126   62  185 1    
   127   63  186 1    
   128   63  187 1    
   129   63  188 1    
   130   64   65 am   BACKBONE|DICT|INTERRES
   131   64  189 1    
   132   65   66 2    
   133   67   68 2    
   134   67   69 am   BACKBONE|DICT|INTERRES
   135   69   70 1    
   136   69  190 1    
   137   70   71 1    
   138   70   72 1    
   139   70  191 1    
   140   71  192 1    
   141   71  193 1    
   142   71  194 1    
   143   72   73 2    
   144   72   74 am   BACKBONE|DICT|INTERRES
   145   74   75 1    
   146   74  195 1    
   147   75   76 1    
   148   75   77 1    
   149   75  196 1    
   150   76  197 1    
   151   76  198 1    
   152   76  199 1    
   153   77   78 2    
   154   77   79 am   BACKBONE|DICT|INTERRES
   155   79   80 1    
   156   79  200 1    
   157   80   81 1    
   158   80   82 1    
   159   80  201 1    
   160   81  202 1    
   161   81  203 1    
   162   81  204 1    
   163   82   83 2    
   164   82   84 am   BACKBONE|DICT|INTERRES
   165   84   85 1    
   166   84  205 1    
   167   85   86 1    
   168   85   87 1    
   169   85  206 1    
   170   86  207 1    
   171   86  208 1    
   172   86  209 1    
   173   87   88 2    
   174   87   89 am   BACKBONE|DICT|INTERRES
   175   89   90 1    
   176   89  210 1    
   177   90   91 1    
   178   90   92 1    
   179   90  211 1    
   180   91  212 1    
   181   91  213 1    
   182   91  214 1    
   183   92   93 2    
   184   92   94 am   BACKBONE|DICT|INTERRES
   185   94   95 1    
   186   94  215 1    
   187   95   96 1    
   188   95   97 1    
   189   95  216 1    
   190   96  217 1    
   191   96  218 1    
   192   96  219 1    
   193   97   98 2    
   194   97   99 am   BACKBONE|DICT|INTERRES
   195   99  100 1    
   196   99  220 1    
   197  100  101 1    
   198  100  102 1    
   199  100  221 1    
   200  101  222 1    
   201  101  223 1    
   202  101  224 1    
   203  102  103 2    
   204  102  104 am   BACKBONE|DICT|INTERRES
   205  104  105 1    
   206  104  225 1    
   207  105  106 1    
   208  105  107 1    
   209  105  226 1    
   210  106  227 1    
   211  106  228 1    
   212  106  229 1    
   213  107  108 2    
   214  107  109 am   BACKBONE|DICT|INTERRES
   215  109  110 1    
   216  109  230 1    
   217  110  111 1    
   218  110  112 1    
   219  110  231 1    
   220  111  232 1    
   221  111  233 1    
   222  111  234 1    
   223  112  113 2    
   224  112  114 am   BACKBONE|DICT|INTERRES
   225  114  115 1    
   226  114  235 1    
   227  115  116 1    
   228  115  117 1    
   229  115  236 1    
   230  116  237 1    
   231  116  238 1    
   232  116  239 1    
   233  117  118 2    
   234  117  119 am   BACKBONE|DICT|INTERRES
   235  119  120 1    
   236  119  240 1    
   237  120  121 1    
   238  120  124 1    
   239  120  241 1    
   240  121  122 am   BACKBONE|DICT|INTERRES
   241  121  123 2    
   242  122  242 1    
   243  122  243 1    
   244  124  125 1    
   245  124  244 1    
   246  124  245 1    
   247  125  126 1    
   248  126  246 1    
   249  126  247 1    
@<TRIPOS>SUBSTRUCTURE
     1 UNK         1 GROUP             0       ****    0 ROOT    
