@<TRIPOS>MOLECULE
3R540
247   249    1
SMALL
USER_CHARGES


@<TRIPOS>ATOM
      1 CA         -0.2208  -16.2196  -49.8921 C.3       0 UNK        -0.1800 
      2 C           0.0820  -14.8224  -49.3711 C.2       0 UNK         0.5000 
      3 O          -0.7276  -13.9116  -49.5478 O.2       0 UNK        -0.5000 
      4 N           1.2416  -14.6492  -48.7246 N.am      1 UNK        -0.5000 
      5 CA          1.6898  -13.3967  -48.1092 C.3       1 UNK         0.1400 
      6 C6          3.2230  -13.3686  -47.8917 C.3       23 UNK        -0.0398 
      7 S7          4.1223  -13.1660  -49.4681 S.3       23 UNK        -0.2404 
      8 C8          5.1147  -14.6872  -49.5694 C.3       23 UNK        -0.0205 
      9 C9          4.2878  -15.8841  -50.0124 C.ar      23 UNK        -0.0193 
     10 C10         4.0303  -16.0998  -51.3691 C.ar      23 UNK        -0.1150 
     11 C11         3.3005  -17.2176  -51.7826 C.ar      23 UNK        -0.0193 
     12 C12         2.8133  -18.1139  -50.8276 C.ar      23 UNK        -0.1150 
     13 C13         3.0726  -17.9165  -49.4654 C.ar      23 UNK        -0.0193 
     14 C14         3.8081  -16.7955  -49.0696 C.ar      23 UNK        -0.1150 
     15 C15         2.5694  -18.8658  -48.3827 C.3       23 UNK        -0.0205 
     16 S16         2.1947  -20.5669  -48.9277 S.3       23 UNK        -0.2404 
     17 C17         0.3770  -20.6564  -48.7679 C.3       23 UNK        -0.0398 
     18 CA         -0.0484  -21.9046  -47.9597 C.3       11 UNK         0.1400 
     19 N           0.2704  -21.8147  -46.5318 N.am      11 UNK        -0.5000 
     20 C           0.2367  -22.8594  -45.6925 C.2       10 UNK         0.5000 
     21 O          -0.0241  -24.0093  -46.0491 O.2       10 UNK        -0.5000 
     22 CA          0.4809  -22.5657  -44.2008 C.3       10 UNK         0.1400 
     23 CB          1.9802  -22.4239  -43.8985 C.3       10 UNK        -0.1800 
     24 N          -0.2361  -21.3733  -43.7456 N.am      10 UNK        -0.5000 
     25 C          -1.5718  -21.2866  -43.6657 C.2       9 UNK         0.5000 
     26 O          -2.3301  -22.2232  -43.9206 O.2       9 UNK        -0.5000 
     27 CA         -2.1630  -19.9162  -43.2793 C.3       9 UNK         0.1400 
     28 CB         -2.1304  -19.7144  -41.7572 C.3       9 UNK        -0.1800 
     29 N          -1.4866  -18.7962  -43.9354 N.am      9 UNK        -0.5000 
     30 C          -1.4537  -18.6014  -45.2608 C.2       8 UNK         0.5000 
     31 O          -2.0352  -19.3164  -46.0721 O.2       8 UNK        -0.5000 
     32 CA         -0.5704  -17.4567  -45.7814 C.3       8 UNK         0.1400 
     33 CB         -1.3249  -16.1218  -45.7435 C.3       8 UNK        -0.1800 
     34 N           0.7025  -17.3436  -45.0653 N.am      8 UNK        -0.5000 
     35 C           1.6238  -18.3175  -45.0030 C.2       7 UNK         0.5000 
     36 O           1.4965  -19.4123  -45.5471 O.2       7 UNK        -0.5000 
     37 CA          2.8729  -18.0384  -44.1532 C.3       7 UNK         0.1400 
     38 CB          3.8076  -17.0469  -44.8630 C.3       7 UNK        -0.1800 
     39 N           2.5120  -17.5221  -42.8358 N.am      7 UNK        -0.5000 
     40 C           1.8436  -18.2197  -41.9052 C.2       6 UNK         0.5000 
     41 O           1.5309  -19.4046  -42.0257 O.2       6 UNK        -0.5000 
     42 CA          1.4026  -17.4349  -40.6568 C.3       6 UNK         0.1400 
     43 CB          2.5152  -17.4247  -39.5986 C.3       6 UNK        -0.1800 
     44 N           1.0241  -16.0566  -40.9758 N.am      6 UNK        -0.5000 
     45 C          -0.0115  -15.7050  -41.7467 C.2       5 UNK         0.5000 
     46 O          -0.7907  -16.5169  -42.2450 O.2       5 UNK        -0.5000 
     47 CA         -0.1824  -14.2081  -42.0570 C.3       5 UNK         0.1400 
     48 CB         -0.7497  -13.4448  -40.8457 C.3       5 UNK        -0.1800 
     49 N           1.0227  -13.5591  -42.5913 N.am      5 UNK        -0.5000 
     50 C           2.1869  -13.2864  -41.9813 C.2       4 UNK         0.5000 
     51 O           2.4703  -13.6453  -40.8380 O.2       4 UNK        -0.5000 
     52 CA          3.2027  -12.4573  -42.7881 C.3       4 UNK         0.1400 
     53 CB          4.1337  -13.3717  -43.5985 C.3       4 UNK        -0.1800 
     54 N           2.5302  -11.5211  -43.6915 N.am      4 UNK        -0.5000 
     55 C           2.0629  -10.3196  -43.3191 C.2       3 UNK         0.5000 
     56 O           2.2529   -9.8272  -42.2064 O.2       3 UNK        -0.5000 
     57 CA          1.2255   -9.5418  -44.3550 C.3       3 UNK         0.1400 
     58 CB          2.1314   -8.6570  -45.2248 C.3       3 UNK        -0.1800 
     59 N           0.4351  -10.4168  -45.2227 N.am      3 UNK        -0.5000 
     60 C          -0.5926  -11.1762  -44.8161 C.2       2 UNK         0.5000 
     61 O          -1.0561  -11.1428  -43.6770 O.2       2 UNK        -0.5000 
     62 CA         -1.1809  -12.1703  -45.8379 C.3       2 UNK         0.1400 
     63 CB         -2.4846  -11.6220  -46.4359 C.3       2 UNK        -0.1800 
     64 N          -0.2695  -12.5252  -46.9308 N.am      2 UNK        -0.5000 
     65 C           0.9160  -13.1348  -46.8007 C.2       1 UNK         0.5000 
     66 O           1.3865  -13.4788  -45.7133 O.2       1 UNK        -0.5000 
     67 C          -1.5285  -22.2601  -48.2002 C.2       11 UNK         0.5000 
     68 O          -1.8004  -23.0432  -49.1055 O.2       11 UNK        -0.5000 
     69 N          -2.4548  -21.7401  -47.3813 N.am      12 UNK        -0.5000 
     70 CA         -3.8775  -22.0930  -47.4107 C.3       12 UNK         0.1400 
     71 CB         -4.6752  -21.1920  -46.4543 C.3       12 UNK        -0.1800 
     72 C          -4.1238  -23.5731  -47.0766 C.2       12 UNK         0.5000 
     73 O          -4.9304  -24.2159  -47.7459 O.2       12 UNK        -0.5000 
     74 N          -3.4004  -24.0996  -46.0786 N.am      13 UNK        -0.5000 
     75 CA         -3.4333  -25.5136  -45.7028 C.3       13 UNK         0.1400 
     76 CB         -2.6641  -25.7178  -44.3888 C.3       13 UNK        -0.1800 
     77 C          -2.8927  -26.4362  -46.8130 C.2       13 UNK         0.5000 
     78 O          -3.4620  -27.5038  -47.0415 O.2       13 UNK        -0.5000 
     79 N          -1.8265  -25.9979  -47.4970 N.am      14 UNK        -0.5000 
     80 CA         -1.2284  -26.6961  -48.6354 C.3       14 UNK         0.1400 
     81 CB          0.1630  -26.1088  -48.9189 C.3       14 UNK        -0.1800 
     82 C          -2.1126  -26.6473  -49.8970 C.2       14 UNK         0.5000 
     83 O          -2.2891  -27.6729  -50.5558 O.2       14 UNK        -0.5000 
     84 N          -2.6484  -25.4598  -50.2100 N.am      15 UNK        -0.5000 
     85 CA         -3.5052  -25.1944  -51.3681 C.3       15 UNK         0.1400 
     86 CB         -3.5553  -23.6785  -51.6043 C.3       15 UNK        -0.1800 
     87 C          -4.9231  -25.7858  -51.2329 C.2       15 UNK         0.5000 
     88 O          -5.5580  -26.0615  -52.2527 O.2       15 UNK        -0.5000 
     89 N          -5.3715  -25.9960  -49.9869 N.am      16 UNK        -0.5000 
     90 CA         -6.5990  -26.6651  -49.5568 C.3       16 UNK         0.1400 
     91 CB         -6.5345  -28.1735  -49.8801 C.3       16 UNK        -0.1800 
     92 C          -7.8738  -25.9809  -50.0845 C.2       16 UNK         0.5000 
     93 O          -8.4026  -25.0887  -49.4204 O.2       16 UNK        -0.5000 
     94 N          -8.3559  -26.4222  -51.2537 N.am      17 UNK        -0.5000 
     95 CA         -9.5363  -25.8849  -51.9293 C.3       17 UNK         0.1400 
     96 CB         -9.9642  -26.8576  -53.0388 C.3       17 UNK        -0.1800 
     97 C          -9.3118  -24.4736  -52.5038 C.2       17 UNK         0.5000 
     98 O         -10.2653  -23.6972  -52.5806 O.2       17 UNK        -0.5000 
     99 N          -8.0674  -24.1640  -52.8908 N.am      18 UNK        -0.5000 
    100 CA        -7.6558  -22.8356  -53.3356 C.3       18 UNK         0.1400 
    101 CB        -6.5351  -22.9754  -54.3760 C.3       18 UNK        -0.1800 
    102 C         -7.2081  -21.9936  -52.1292 C.2       18 UNK         0.5000 
    103 O         -6.5551  -22.5130  -51.2218 O.2       18 UNK        -0.5000 
    104 N         -7.5519  -20.7013  -52.1419 N.am      19 UNK        -0.5000 
    105 CA        -7.3006  -19.7509  -51.0571 C.3       19 UNK         0.1400 
    106 CB        -8.3420  -18.6203  -51.1469 C.3       19 UNK        -0.1800 
    107 C         -5.8504  -19.2246  -51.0678 C.2       19 UNK         0.5000 
    108 O         -5.6271  -18.0421  -51.3321 O.2       19 UNK        -0.5000 
    109 N         -4.8946  -20.1247  -50.7925 N.am      20 UNK        -0.5000 
    110 CA        -3.4469  -19.8802  -50.7001 C.3       20 UNK         0.1400 
    111 CB        -3.1235  -18.9628  -49.5007 C.3       20 UNK        -0.1800 
    112 C         -2.8312  -19.3598  -52.0163 C.2       20 UNK         0.5000 
    113 O         -1.9515  -18.4980  -51.9884 O.2       20 UNK        -0.5000 
    114 N         -3.3257  -19.8782  -53.1488 N.am      21 UNK        -0.5000 
    115 CA        -2.9141  -19.4884  -54.4961 C.3       21 UNK         0.1400 
    116 CB        -3.8308  -20.1773  -55.5187 C.3       21 UNK        -0.1800 
    117 C         -1.4357  -19.8182  -54.7766 C.2       21 UNK         0.5000 
    118 O         -1.0055  -20.9487  -54.5362 O.2       21 UNK        -0.5000 
    119 N         -0.7012  -18.8286  -55.2953 N.am      22 UNK        -0.5000 
    120 CA         0.7239  -18.9357  -55.6519 C.3       22 UNK         0.1400 
    121 C          0.9885  -19.5789  -57.0460 C.2       22 UNK         0.5000 
    122 N         -0.0229  -19.8557  -57.8605 N.am      22 UNK        -0.7600 
    123 O          2.1365  -19.8427  -57.3928 O.2       22 UNK        -0.5000 
    124 C124        1.4456  -17.5682  -55.5241 C.3       23 UNK        -0.0398 
    125 S125        1.4350  -16.9272  -53.8138 S.3       23 UNK        -0.2404 
    126 C126        3.0740  -17.4865  -53.2614 C.3       23 UNK        -0.0205 
    127 H127        0.0797  -16.3073  -50.9363 H         1 UNK         0.0600 
    128 H128       -1.2891  -16.4259  -49.8273 H         1 UNK         0.0600 
    129 H129        0.3016  -16.9838  -49.3189 H         1 UNK         0.0600 
    130 H130        1.8812  -15.4263  -48.6472 H         1 UNK         0.3000 
    131 H131        1.4454  -12.5769  -48.7888 H         1 UNK         0.0600 
    132 H132        3.5607  -14.2611  -47.3631 H         1 UNK         0.0800 
    133 H133        3.5065  -12.5234  -47.2615 H         1 UNK         0.0800 
    134 H134        5.5976  -14.8798  -48.6100 H         1 UNK         0.0800 
    135 H135        5.9232  -14.5269  -50.2842 H         1 UNK         0.0800 
    136 H136        4.4101  -15.4030  -52.1033 H         1 UNK         0.1150 
    137 H137        2.2392  -18.9673  -51.1582 H         1 UNK         0.1150 
    138 H138        4.0174  -16.6348  -48.0218 H         1 UNK         0.1150 
    139 H139        3.3231  -18.9439  -47.5983 H         1 UNK         0.0800 
    140 H140        1.6951  -18.4090  -47.9254 H         1 UNK         0.0800 
    141 H141       -0.0289  -20.6890  -49.7810 H         1 UNK         0.0800 
    142 H142       -0.0246  -19.7541  -48.3067 H         1 UNK         0.0800 
    143 H143        0.5216  -22.7492  -48.3535 H         1 UNK         0.0600 
    144 H144        0.5522  -20.9050  -46.1737 H         1 UNK         0.3000 
    145 H145        0.1050  -23.4184  -43.6313 H         1 UNK         0.0600 
    146 H146        2.1532  -22.2606  -42.8346 H         1 UNK         0.0600 
    147 H147        2.5204  -23.3278  -44.1821 H         1 UNK         0.0600 
    148 H148        2.4293  -21.5919  -44.4401 H         1 UNK         0.0600 
    149 H149        0.3252  -20.5629  -43.5126 H         1 UNK         0.3000 
    150 H150       -3.2067  -19.9047  -43.5996 H         1 UNK         0.0600 
    151 H151       -2.6625  -20.5175  -41.2457 H         1 UNK         0.0600 
    152 H152       -2.6065  -18.7754  -41.4741 H         1 UNK         0.0600 
    153 H153       -1.1101  -19.6999  -41.3738 H         1 UNK         0.0600 
    154 H154       -1.0265  -18.1201  -43.3328 H         1 UNK         0.3000 
    155 H155       -0.3417  -17.6762  -46.8257 H         1 UNK         0.0600 
    156 H156       -1.5335  -15.7981  -44.7243 H         1 UNK         0.0600 
    157 H157       -2.2796  -16.1980  -46.2658 H         1 UNK         0.0600 
    158 H158       -0.7532  -15.3408  -46.2379 H         1 UNK         0.0600 
    159 H159        0.8676  -16.4833  -44.5660 H         1 UNK         0.3000 
    160 H160        3.4094  -18.9795  -44.0140 H         1 UNK         0.0600 
    161 H161        3.2962  -16.1210  -45.1270 H         1 UNK         0.0600 
    162 H162        4.1982  -17.4792  -45.7840 H         1 UNK         0.0600 
    163 H163        4.6649  -16.7927  -44.2393 H         1 UNK         0.0600 
    164 H164        2.7254  -16.5550  -42.6457 H         1 UNK         0.3000 
    165 H165        0.5297  -17.9385  -40.2364 H         1 UNK         0.0600 
    166 H166        2.1838  -16.9323  -38.6843 H         1 UNK         0.0600 
    167 H167        2.8102  -18.4405  -39.3322 H         1 UNK         0.0600 
    168 H168        3.4058  -16.9053  -39.9548 H         1 UNK         0.0600 
    169 H169        1.6314  -15.3125  -40.6412 H         1 UNK         0.3000 
    170 H170       -0.9248  -14.1388  -42.8536 H         1 UNK         0.0600 
    171 H171       -1.6988  -13.8761  -40.5254 H         1 UNK         0.0600 
    172 H172       -0.0755  -13.4712  -39.9893 H         1 UNK         0.0600 
    173 H173       -0.9352  -12.3995  -41.0933 H         1 UNK         0.0600 
    174 H174        0.9513  -13.2725  -43.5594 H         1 UNK         0.3000 
    175 H175        3.8160  -11.8985  -42.0779 H         1 UNK         0.0600 
    176 H176        3.5887  -13.9403  -44.3502 H         1 UNK         0.0600 
    177 H177        4.9017  -12.7932  -44.1120 H         1 UNK         0.0600 
    178 H178        4.6436  -14.0858  -42.9506 H         1 UNK         0.0600 
    179 H179        2.2998  -11.8733  -44.6115 H         1 UNK         0.3000 
    180 H180        0.5371   -8.8945  -43.8076 H         1 UNK         0.0600 
    181 H181        2.8308   -9.2515  -45.8141 H         1 UNK         0.0600 
    182 H182        2.7187   -7.9751  -44.6083 H         1 UNK         0.0600 
    183 H183        1.5450   -8.0475  -45.9126 H         1 UNK         0.0600 
    184 H184        0.7290  -10.4885  -46.1852 H         1 UNK         0.3000 
    185 H185       -1.4158  -13.0866  -45.2932 H         1 UNK         0.0600 
    186 H186       -3.2028  -11.3766  -45.6523 H         1 UNK         0.0600 
    187 H187       -2.3099  -10.7161  -47.0176 H         1 UNK         0.0600 
    188 H188       -2.9572  -12.3556  -47.0895 H         1 UNK         0.0600 
    189 H189       -0.6099  -12.3573  -47.8694 H         1 UNK         0.3000 
    190 H190       -2.1794  -21.0299  -46.7065 H         1 UNK         0.3000 
    191 H191       -4.2435  -21.9184  -48.4240 H         1 UNK         0.0600 
    192 H192       -4.3500  -21.3121  -45.4214 H         1 UNK         0.0600 
    193 H193       -5.7383  -21.4324  -46.4915 H         1 UNK         0.0600 
    194 H194       -4.5756  -20.1388  -46.7115 H         1 UNK         0.0600 
    195 H195       -2.7882  -23.4938  -45.5428 H         1 UNK         0.3000 
    196 H196       -4.4762  -25.7857  -45.5269 H         1 UNK         0.0600 
    197 H197       -2.7148  -26.7582  -44.0656 H         1 UNK         0.0600 
    198 H198       -3.0826  -25.1070  -43.5886 H         1 UNK         0.0600 
    199 H199       -1.6108  -25.4574  -44.4904 H         1 UNK         0.0600 
    200 H200       -1.3879  -25.1308  -47.2070 H         1 UNK         0.3000 
    201 H201       -1.0994  -27.7448  -48.3593 H         1 UNK         0.0600 
    202 H202        0.8095  -26.1869  -48.0445 H         1 UNK         0.0600 
    203 H203        0.1084  -25.0571  -49.2001 H         1 UNK         0.0600 
    204 H204        0.6520  -26.6416  -49.7352 H         1 UNK         0.0600 
    205 H205       -2.4038  -24.6483  -49.6452 H         1 UNK         0.3000 
    206 H206       -3.0433  -25.6563  -52.2430 H         1 UNK         0.0600 
    207 H207       -2.5575  -23.2704  -51.7672 H         1 UNK         0.0600 
    208 H208       -4.1479  -23.4324  -52.4820 H         1 UNK         0.0600 
    209 H209       -3.9952  -23.1615  -50.7515 H         1 UNK         0.0600 
    210 H210       -4.8242  -25.6043  -49.2281 H         1 UNK         0.3000 
    211 H211       -6.6268  -26.5691  -48.4701 H         1 UNK         0.0600 
    212 H212       -6.4026  -28.3677  -50.9447 H         1 UNK         0.0600 
    213 H213       -7.4452  -28.6817  -49.5607 H         1 UNK         0.0600 
    214 H214       -5.7019  -28.6440  -49.3565 H         1 UNK         0.0600 
    215 H215       -7.8271  -27.1251  -51.7504 H         1 UNK         0.3000 
    216 H216      -10.3470  -25.8206  -51.2006 H         1 UNK         0.0600 
    217 H217      -10.8590  -26.4986  -53.5490 H         1 UNK         0.0600 
    218 H218      -10.1958  -27.8424  -52.6327 H         1 UNK         0.0600 
    219 H219       -9.1835  -26.9786  -53.7909 H         1 UNK         0.0600 
    220 H220       -7.3261  -24.8349  -52.7241 H         1 UNK         0.3000 
    221 H221       -8.4955  -22.3311  -53.8185 H         1 UNK         0.0600 
    222 H222       -5.7261  -23.6114  -54.0212 H         1 UNK         0.0600 
    223 H223       -6.9157  -23.4177  -55.2967 H         1 UNK         0.0600 
    224 H224       -6.1118  -22.0047  -54.6345 H         1 UNK         0.0600 
    225 H225       -8.0536  -20.3373  -52.9392 H         1 UNK         0.3000 
    226 H226       -7.4523  -20.2577  -50.1014 H         1 UNK         0.0600 
    227 H227       -9.3560  -19.0113  -51.0608 H         1 UNK         0.0600 
    228 H228       -8.2055  -17.8978  -50.3412 H         1 UNK         0.0600 
    229 H229       -8.2708  -18.0783  -52.0908 H         1 UNK         0.0600 
    230 H230       -5.2000  -21.0841  -50.6617 H         1 UNK         0.3000 
    231 H231       -2.9818  -20.8478  -50.5110 H         1 UNK         0.0600 
    232 H232       -2.0487  -18.8976  -49.3337 H         1 UNK         0.0600 
    233 H233       -3.5683  -19.3364  -48.5819 H         1 UNK         0.0600 
    234 H234       -3.4889  -17.9475  -49.6561 H         1 UNK         0.0600 
    235 H235       -4.0363  -20.5898  -53.0806 H         1 UNK         0.3000 
    236 H236       -3.0582  -18.4093  -54.5834 H         1 UNK         0.0600 
    237 H237       -3.7598  -21.2640  -55.4549 H         1 UNK         0.0600 
    238 H238       -4.8733  -19.8972  -55.3658 H         1 UNK         0.0600 
    239 H239       -3.5655  -19.8906  -56.5370 H         1 UNK         0.0600 
    240 H240       -1.1273  -17.9269  -55.4512 H         1 UNK         0.3000 
    241 H241        1.1954  -19.6116  -54.9356 H         1 UNK         0.0600 
    242 H242        0.1634  -20.2768  -58.7574 H         1 UNK         0.3800 
    243 H243       -0.9710  -19.6492  -57.5913 H         1 UNK         0.3800 
    244 H244        2.4808  -17.6386  -55.8630 H         1 UNK         0.0800 
    245 H245        0.9714  -16.8290  -56.1714 H         1 UNK         0.0800 
    246 H246        3.8436  -16.9924  -53.8566 H         1 UNK         0.0800 
    247 H247        3.1757  -18.5557  -53.4541 H         1 UNK         0.0800 
@<TRIPOS>BOND
     1    1    2 1    
     2    1  127 1    
     3    1  128 1    
     4    1  129 1    
     5    2    3 2    
     6    2    4 am   BACKBONE|DICT|INTERRES
     7    4    5 1    
     8    4  130 1    
     9    5    6 1    
    10    5   65 1    
    11    5  131 1    
    12    6    7 1    
    13    6  132 1    
    14    6  133 1    
    15    7    8 1    
    16    8    9 1    
    17    8  134 1    
    18    8  135 1    
    19    9   10 ar   
    20    9   14 ar   
    21   10   11 ar   
    22   10  136 1    
    23   11   12 ar   
    24   11  126 1    
    25   12   13 ar   
    26   12  137 1    
    27   13   14 ar   
    28   13   15 1    
    29   14  138 1    
    30   15   16 1    
    31   15  139 1    
    32   15  140 1    
    33   16   17 1    
    34   17   18 1    
    35   17  141 1    
    36   17  142 1    
    37   18   19 1    
    38   18   67 1    
    39   18  143 1    
    40   19   20 am   BACKBONE|DICT|INTERRES
    41   19  144 1    
    42   20   21 2    
    43   20   22 1    
    44   22   23 1    
    45   22   24 1    
    46   22  145 1    
    47   23  146 1    
    48   23  147 1    
    49   23  148 1    
    50   24   25 am   BACKBONE|DICT|INTERRES
    51   24  149 1    
    52   25   26 2    
    53   25   27 1    
    54   27   28 1    
    55   27   29 1    
    56   27  150 1    
    57   28  151 1    
    58   28  152 1    
    59   28  153 1    
    60   29   30 am   BACKBONE|DICT|INTERRES
    61   29  154 1    
    62   30   31 2    
    63   30   32 1    
    64   32   33 1    
    65   32   34 1    
    66   32  155 1    
    67   33  156 1    
    68   33  157 1    
    69   33  158 1    
    70   34   35 am   BACKBONE|DICT|INTERRES
    71   34  159 1    
    72   35   36 2    
    73   35   37 1    
    74   37   38 1    
    75   37   39 1    
    76   37  160 1    
    77   38  161 1    
    78   38  162 1    
    79   38  163 1    
    80   39   40 am   BACKBONE|DICT|INTERRES
    81   39  164 1    
    82   40   41 2    
    83   40   42 1    
    84   42   43 1    
    85   42   44 1    
    86   42  165 1    
    87   43  166 1    
    88   43  167 1    
    89   43  168 1    
    90   44   45 am   BACKBONE|DICT|INTERRES
    91   44  169 1    
    92   45   46 2    
    93   45   47 1    
    94   47   48 1    
    95   47   49 1    
    96   47  170 1    
    97   48  171 1    
    98   48  172 1    
    99   48  173 1    
   100   49   50 am   BACKBONE|DICT|INTERRES
   101   49  174 1    
   102   50   51 2    
   103   50   52 1    
   104   52   53 1    
   105   52   54 1    
   106   52  175 1    
   107   53  176 1    
   108   53  177 1    
   109   53  178 1    
   110   54   55 am   BACKBONE|DICT|INTERRES
   111   54  179 1    
   112   55   56 2    
   113   55   57 1    
   114   57   58 1    
   115   57   59 1    
   116   57  180 1    
   117   58  181 1    
   118   58  182 1    
   119   58  183 1    
   120   59   60 am   BACKBONE|DICT|INTERRES
   121   59  184 1    
   122   60   61 2    
   123   60   62 1    
   124   62   63 1    
   125   62   64 1    
   126   62  185 1    
   127   63  186 1    
   128   63  187 1    
   129   63  188 1    
   130   64   65 am   BACKBONE|DICT|INTERRES
   131   64  189 1    
   132   65   66 2    
   133   67   68 2    
   134   67   69 am   BACKBONE|DICT|INTERRES
   135   69   70 1    
   136   69  190 1    
   137   70   71 1    
   138   70   72 1    
   139   70  191 1    
   140   71  192 1    
   141   71  193 1    
   142   71  194 1    
   143   72   73 2    
   144   72   74 am   BACKBONE|DICT|INTERRES
   145   74   75 1    
   146   74  195 1    
   147   75   76 1    
   148   75   77 1    
   149   75  196 1    
   150   76  197 1    
   151   76  198 1    
   152   76  199 1    
   153   77   78 2    
   154   77   79 am   BACKBONE|DICT|INTERRES
   155   79   80 1    
   156   79  200 1    
   157   80   81 1    
   158   80   82 1    
   159   80  201 1    
   160   81  202 1    
   161   81  203 1    
   162   81  204 1    
   163   82   83 2    
   164   82   84 am   BACKBONE|DICT|INTERRES
   165   84   85 1    
   166   84  205 1    
   167   85   86 1    
   168   85   87 1    
   169   85  206 1    
   170   86  207 1    
   171   86  208 1    
   172   86  209 1    
   173   87   88 2    
   174   87   89 am   BACKBONE|DICT|INTERRES
   175   89   90 1    
   176   89  210 1    
   177   90   91 1    
   178   90   92 1    
   179   90  211 1    
   180   91  212 1    
   181   91  213 1    
   182   91  214 1    
   183   92   93 2    
   184   92   94 am   BACKBONE|DICT|INTERRES
   185   94   95 1    
   186   94  215 1    
   187   95   96 1    
   188   95   97 1    
   189   95  216 1    
   190   96  217 1    
   191   96  218 1    
   192   96  219 1    
   193   97   98 2    
   194   97   99 am   BACKBONE|DICT|INTERRES
   195   99  100 1    
   196   99  220 1    
   197  100  101 1    
   198  100  102 1    
   199  100  221 1    
   200  101  222 1    
   201  101  223 1    
   202  101  224 1    
   203  102  103 2    
   204  102  104 am   BACKBONE|DICT|INTERRES
   205  104  105 1    
   206  104  225 1    
   207  105  106 1    
   208  105  107 1    
   209  105  226 1    
   210  106  227 1    
   211  106  228 1    
   212  106  229 1    
   213  107  108 2    
   214  107  109 am   BACKBONE|DICT|INTERRES
   215  109  110 1    
   216  109  230 1    
   217  110  111 1    
   218  110  112 1    
   219  110  231 1    
   220  111  232 1    
   221  111  233 1    
   222  111  234 1    
   223  112  113 2    
   224  112  114 am   BACKBONE|DICT|INTERRES
   225  114  115 1    
   226  114  235 1    
   227  115  116 1    
   228  115  117 1    
   229  115  236 1    
   230  116  237 1    
   231  116  238 1    
   232  116  239 1    
   233  117  118 2    
   234  117  119 am   BACKBONE|DICT|INTERRES
   235  119  120 1    
   236  119  240 1    
   237  120  121 1    
   238  120  124 1    
   239  120  241 1    
   240  121  122 am   BACKBONE|DICT|INTERRES
   241  121  123 2    
   242  122  242 1    
   243  122  243 1    
   244  124  125 1    
   245  124  244 1    
   246  124  245 1    
   247  125  126 1    
   248  126  246 1    
   249  126  247 1    
@<TRIPOS>SUBSTRUCTURE
     1 UNK         1 GROUP             0       ****    0 ROOT    
