@<TRIPOS>MOLECULE
3R540
247   249    1
SMALL
USER_CHARGES


@<TRIPOS>ATOM
      1 CA         -1.0909  -15.8079  -48.8373 C.3       0 UNK        -0.1800 
      2 C          -0.0243  -14.8133  -48.3971 C.2       0 UNK         0.5000 
      3 O          -0.2077  -14.1205  -47.3976 O.2       0 UNK        -0.5000 
      4 N           1.0839  -14.7342  -49.1430 N.am      1 UNK        -0.5000 
      5 CA          2.2527  -13.8999  -48.8461 C.3       1 UNK         0.1400 
      6 C6          3.2654  -13.8027  -50.0285 C.3       23 UNK        -0.0398 
      7 S7          2.5375  -13.7486  -51.7077 S.3       23 UNK        -0.2404 
      8 C8          3.2283  -15.2645  -52.4666 C.3       23 UNK        -0.0205 
      9 C9          2.3863  -16.5032  -52.1806 C.ar      23 UNK        -0.0193 
     10 C10         1.6841  -17.1338  -53.2133 C.ar      23 UNK        -0.1150 
     11 C11         0.8984  -18.2616  -52.9542 C.ar      23 UNK        -0.0193 
     12 C12         0.7820  -18.7345  -51.6432 C.ar      23 UNK        -0.1150 
     13 C13         1.4688  -18.1052  -50.6024 C.ar      23 UNK        -0.0193 
     14 C14         2.3047  -17.0243  -50.8862 C.ar      23 UNK        -0.1150 
     15 C15         1.2506  -18.5336  -49.1618 C.3       23 UNK        -0.0205 
     16 S16         2.5008  -19.7132  -48.5770 S.3       23 UNK        -0.2404 
     17 C17         1.9008  -19.9365  -46.8638 C.3       23 UNK        -0.0398 
     18 CA          1.1523  -21.2668  -46.6000 C.3       11 UNK         0.1400 
     19 N           0.7201  -21.3597  -45.2053 N.am      11 UNK        -0.5000 
     20 C           0.1985  -22.4517  -44.6299 C.2       10 UNK         0.5000 
     21 O           0.0788  -23.5380  -45.1986 O.2       10 UNK        -0.5000 
     22 CA         -0.3249  -22.2812  -43.1920 C.3       10 UNK         0.1400 
     23 CB          0.8319  -22.2976  -42.1819 C.3       10 UNK        -0.1800 
     24 N          -1.1109  -21.0565  -43.0221 N.am      10 UNK        -0.5000 
     25 C          -2.2652  -20.8065  -43.6577 C.2       9 UNK         0.5000 
     26 O          -2.8062  -21.5997  -44.4270 O.2       9 UNK        -0.5000 
     27 CA         -2.9066  -19.4266  -43.4317 C.3       9 UNK         0.1400 
     28 CB         -3.6567  -19.3853  -42.0923 C.3       9 UNK        -0.1800 
     29 N          -1.9388  -18.3320  -43.4904 N.am      9 UNK        -0.5000 
     30 C          -1.2170  -18.0045  -44.5720 C.2       8 UNK         0.5000 
     31 O          -1.2988  -18.5794  -45.6554 O.2       8 UNK        -0.5000 
     32 CA         -0.1891  -16.8759  -44.3997 C.3       8 UNK         0.1400 
     33 CB         -0.8913  -15.5094  -44.3926 C.3       8 UNK        -0.1800 
     34 N           0.6118  -17.0438  -43.1861 N.am      8 UNK        -0.5000 
     35 C           1.4069  -18.0955  -42.9356 C.2       7 UNK         0.5000 
     36 O           1.5985  -19.0157  -43.7307 O.2       7 UNK        -0.5000 
     37 CA          2.0479  -18.1627  -41.5387 C.3       7 UNK         0.1400 
     38 CB          3.3279  -17.3183  -41.4614 C.3       7 UNK        -0.1800 
     39 N           1.1199  -17.7398  -40.4922 N.am      7 UNK        -0.5000 
     40 C           0.0343  -18.4313  -40.1193 C.2       6 UNK         0.5000 
     41 O          -0.2781  -19.5253  -40.5899 O.2       6 UNK        -0.5000 
     42 CA         -0.8763  -17.7571  -39.0776 C.3       6 UNK         0.1400 
     43 CB         -0.3306  -17.9702  -37.6578 C.3       6 UNK        -0.1800 
     44 N          -1.0372  -16.3231  -39.3286 N.am      6 UNK        -0.5000 
     45 C          -1.6778  -15.8147  -40.3905 C.2       5 UNK         0.5000 
     46 O          -2.2290  -16.5045  -41.2471 O.2       5 UNK        -0.5000 
     47 CA         -1.6710  -14.2827  -40.5421 C.3       5 UNK         0.1400 
     48 CB         -2.8488  -13.6617  -39.7765 C.3       5 UNK        -0.1800 
     49 N          -0.4216  -13.6537  -40.1043 N.am      5 UNK        -0.5000 
     50 C           0.7752  -13.8518  -40.6716 C.2       4 UNK         0.5000 
     51 O           0.9774  -14.6407  -41.5980 O.2       4 UNK        -0.5000 
     52 CA          1.9479  -13.0675  -40.0730 C.3       4 UNK         0.1400 
     53 CB          2.5721  -13.8403  -38.8988 C.3       4 UNK        -0.1800 
     54 N           2.9608  -12.8464  -41.1011 N.am      4 UNK        -0.5000 
     55 C           3.7284  -11.7540  -41.2053 C.2       3 UNK         0.5000 
     56 O           3.6533  -10.7986  -40.4310 O.2       3 UNK        -0.5000 
     57 CA          4.7718  -11.7109  -42.3417 C.3       3 UNK         0.1400 
     58 CB          6.1933  -11.8124  -41.7644 C.3       3 UNK        -0.1800 
     59 N           4.6005  -12.7719  -43.3366 N.am      3 UNK        -0.5000 
     60 C           3.7631  -12.7159  -44.3785 C.2       2 UNK         0.5000 
     61 O           3.0374  -11.7504  -44.6320 O.2       2 UNK        -0.5000 
     62 CA          3.7242  -13.9646  -45.2703 C.3       2 UNK         0.1400 
     63 CB          3.0641  -15.1342  -44.5169 C.3       2 UNK        -0.1800 
     64 N           3.0059  -13.6574  -46.5058 N.am      2 UNK        -0.5000 
     65 C           2.9730  -14.4385  -47.5902 C.2       1 UNK         0.5000 
     66 O           3.4994  -15.5524  -47.6413 O.2       1 UNK        -0.5000 
     67 C          -0.0299  -21.5011  -47.5651 C.2       11 UNK         0.5000 
     68 O           0.0937  -22.3152  -48.4777 O.2       11 UNK        -0.5000 
     69 N          -1.1637  -20.8242  -47.3310 N.am      12 UNK        -0.5000 
     70 CA         -2.3846  -20.9595  -48.1253 C.3       12 UNK         0.1400 
     71 CB         -3.4249  -19.9251  -47.6729 C.3       12 UNK        -0.1800 
     72 C          -2.9727  -22.3799  -48.0935 C.2       12 UNK         0.5000 
     73 O          -3.4042  -22.8689  -49.1357 O.2       12 UNK        -0.5000 
     74 N          -2.9462  -23.0319  -46.9231 N.am      13 UNK        -0.5000 
     75 CA         -3.3488  -24.4275  -46.7457 C.3       13 UNK         0.1400 
     76 CB         -3.3644  -24.7806  -45.2509 C.3       13 UNK        -0.1800 
     77 C          -2.4540  -25.4002  -47.5350 C.2       13 UNK         0.5000 
     78 O          -2.9754  -26.2721  -48.2317 O.2       13 UNK        -0.5000 
     79 N          -1.1296  -25.2001  -47.4608 N.am      14 UNK        -0.5000 
     80 CA         -0.1319  -25.9526  -48.2283 C.3       14 UNK         0.1400 
     81 CB          1.2754  -25.5898  -47.7309 C.3       14 UNK        -0.1800 
     82 C          -0.2509  -25.7341  -49.7509 C.2       14 UNK         0.5000 
     83 O          -0.0192  -26.6659  -50.5213 O.2       14 UNK        -0.5000 
     84 N          -0.6546  -24.5217  -50.1503 N.am      15 UNK        -0.5000 
     85 CA         -0.9270  -24.1101  -51.5278 C.3       15 UNK         0.1400 
     86 CB         -0.7431  -22.5864  -51.6263 C.3       15 UNK        -0.1800 
     87 C          -2.3176  -24.5441  -52.0474 C.2       15 UNK         0.5000 
     88 O          -2.6957  -24.1316  -53.1459 O.2       15 UNK        -0.5000 
     89 N          -3.0489  -25.3602  -51.2714 N.am      16 UNK        -0.5000 
     90 CA         -4.3632  -25.9378  -51.5755 C.3       16 UNK         0.1400 
     91 CB         -4.2772  -26.8949  -52.7837 C.3       16 UNK        -0.1800 
     92 C          -5.4704  -24.8732  -51.7188 C.2       16 UNK         0.5000 
     93 O          -6.3130  -24.9749  -52.6114 O.2       16 UNK        -0.5000 
     94 N          -5.4342  -23.8865  -50.8127 N.am      17 UNK        -0.5000 
     95 CA         -6.2312  -22.6637  -50.7409 C.3       17 UNK         0.1400 
     96 CB         -7.7495  -22.9200  -50.7985 C.3       17 UNK        -0.1800 
     97 C          -5.7571  -21.6514  -51.7937 C.2       17 UNK         0.5000 
     98 O          -5.9853  -21.8368  -52.9910 O.2       17 UNK        -0.5000 
     99 N          -5.1103  -20.5792  -51.3194 N.am      18 UNK        -0.5000 
    100 CA        -4.5444  -19.4976  -52.1312 C.3       18 UNK         0.1400 
    101 CB        -3.7844  -18.5288  -51.2107 C.3       18 UNK        -0.1800 
    102 C         -5.5785  -18.7408  -52.9882 C.2       18 UNK         0.5000 
    103 O         -5.2366  -18.2380  -54.0577 O.2       18 UNK        -0.5000 
    104 N         -6.8299  -18.6954  -52.5148 N.am      19 UNK        -0.5000 
    105 CA        -7.9613  -18.0980  -53.2218 C.3       19 UNK         0.1400 
    106 CB        -9.0738  -17.8034  -52.2031 C.3       19 UNK        -0.1800 
    107 C         -8.5049  -18.9757  -54.3679 C.2       19 UNK         0.5000 
    108 O         -9.2025  -18.4480  -55.2354 O.2       19 UNK        -0.5000 
    109 N         -8.2125  -20.2843  -54.3449 N.am      20 UNK        -0.5000 
    110 CA        -8.7463  -21.2649  -55.2900 C.3       20 UNK         0.1400 
    111 CB        -9.3406  -22.4490  -54.5105 C.3       20 UNK        -0.1800 
    112 C         -7.6728  -21.7579  -56.2705 C.2       20 UNK         0.5000 
    113 O         -7.9266  -21.7781  -57.4760 O.2       20 UNK        -0.5000 
    114 N         -6.5116  -22.1642  -55.7432 N.am      21 UNK        -0.5000 
    115 CA        -5.4339  -22.7946  -56.5006 C.3       21 UNK         0.1400 
    116 CB        -5.1649  -24.1972  -55.9276 C.3       21 UNK        -0.1800 
    117 C         -4.1666  -21.9331  -56.4703 C.2       21 UNK         0.5000 
    118 O         -3.7007  -21.5061  -57.5276 O.2       21 UNK        -0.5000 
    119 N         -3.6278  -21.7036  -55.2656 N.am      22 UNK        -0.5000 
    120 CA        -2.3056  -21.0963  -55.0372 C.3       22 UNK         0.1400 
    121 C         -1.1390  -21.9717  -55.5978 C.2       22 UNK         0.5000 
    122 N         -1.1602  -23.2769  -55.3622 N.am      22 UNK        -0.7600 
    123 O         -0.2146  -21.4865  -56.2445 O.2       22 UNK        -0.5000 
    124 C124       -2.2346  -19.5919  -55.4515 C.3       23 UNK        -0.0398 
    125 S125       -1.5838  -18.5112  -54.1308 S.3       23 UNK        -0.2404 
    126 C126        0.1728  -18.9720  -54.0848 C.3       23 UNK        -0.0205 
    127 H127       -2.0521  -15.3056  -48.9445 H         1 UNK         0.0600 
    128 H128       -1.1991  -16.5963  -48.0917 H         1 UNK         0.0600 
    129 H129       -0.8442  -16.2720  -49.7927 H         1 UNK         0.0600 
    130 H130        1.1706  -15.3106  -49.9684 H         1 UNK         0.3000 
    131 H131        1.8857  -12.8922  -48.6400 H         1 UNK         0.0600 
    132 H132        3.8641  -12.8989  -49.9056 H         1 UNK         0.0800 
    133 H133        3.9917  -14.6159  -50.0037 H         1 UNK         0.0800 
    134 H134        4.2538  -15.4284  -52.1332 H         1 UNK         0.0800 
    135 H135        3.2923  -15.0996  -53.5432 H         1 UNK         0.0800 
    136 H136        1.7518  -16.7512  -54.2221 H         1 UNK         0.1150 
    137 H137        0.1437  -19.5813  -51.4325 H         1 UNK         0.1150 
    138 H138        2.8607  -16.5689  -50.0813 H         1 UNK         0.1150 
    139 H139        1.2725  -17.6550  -48.5155 H         1 UNK         0.0800 
    140 H140        0.2550  -18.9656  -49.0541 H         1 UNK         0.0800 
    141 H141        1.2734  -19.0894  -46.5825 H         1 UNK         0.0800 
    142 H142        2.7702  -19.8794  -46.2075 H         1 UNK         0.0800 
    143 H143        1.8628  -22.0792  -46.7670 H         1 UNK         0.0600 
    144 H144        0.8136  -20.5136  -44.6495 H         1 UNK         0.3000 
    145 H145       -0.9778  -23.1291  -42.9745 H         1 UNK         0.0600 
    146 H146        0.4604  -22.2582  -41.1578 H         1 UNK         0.0600 
    147 H147        1.4228  -23.2092  -42.2793 H         1 UNK         0.0600 
    148 H148        1.5049  -21.4519  -42.3252 H         1 UNK         0.0600 
    149 H149       -0.7511  -20.3692  -42.3674 H         1 UNK         0.3000 
    150 H150       -3.6337  -19.2658  -44.2299 H         1 UNK         0.0600 
    151 H151       -4.3921  -20.1884  -42.0308 H         1 UNK         0.0600 
    152 H152       -4.1924  -18.4438  -41.9707 H         1 UNK         0.0600 
    153 H153       -2.9781  -19.4944  -41.2459 H         1 UNK         0.0600 
    154 H154       -1.8390  -17.7716  -42.6485 H         1 UNK         0.3000 
    155 H155        0.4894  -16.9051  -45.2549 H         1 UNK         0.0600 
    156 H156       -1.5819  -15.4117  -43.5571 H         1 UNK         0.0600 
    157 H157       -1.4703  -15.3693  -45.3060 H         1 UNK         0.0600 
    158 H158       -0.1794  -14.6874  -44.3347 H         1 UNK         0.0600 
    159 H159        0.5589  -16.2984  -42.4982 H         1 UNK         0.3000 
    160 H160        2.3209  -19.2036  -41.3528 H         1 UNK         0.0600 
    161 H161        3.1155  -16.2526  -41.5375 H         1 UNK         0.0600 
    162 H162        4.0185  -17.5788  -42.2645 H         1 UNK         0.0600 
    163 H163        3.8493  -17.4847  -40.5187 H         1 UNK         0.0600 
    164 H164        1.2739  -16.8280  -40.0896 H         1 UNK         0.3000 
    165 H165       -1.8598  -18.2278  -39.1401 H         1 UNK         0.0600 
    166 H166       -1.0092  -17.5603  -36.9095 H         1 UNK         0.0600 
    167 H167       -0.2131  -19.0329  -37.4411 H         1 UNK         0.0600 
    168 H168        0.6433  -17.4978  -37.5229 H         1 UNK         0.0600 
    169 H169       -0.6153  -15.6881  -38.6674 H         1 UNK         0.3000 
    170 H170       -1.8008  -14.0560  -41.6018 H         1 UNK         0.0600 
    171 H171       -3.7961  -14.0967  -40.0983 H         1 UNK         0.0600 
    172 H172       -2.7617  -13.8233  -38.7014 H         1 UNK         0.0600 
    173 H173       -2.9108  -12.5875  -39.9514 H         1 UNK         0.0600 
    174 H174       -0.4963  -13.0002  -39.3380 H         1 UNK         0.3000 
    175 H175        1.5658  -12.1092  -39.7145 H         1 UNK         0.0600 
    176 H176        2.9679  -14.8055  -39.2177 H         1 UNK         0.0600 
    177 H177        3.3898  -13.2774  -38.4485 H         1 UNK         0.0600 
    178 H178        1.8377  -14.0273  -38.1145 H         1 UNK         0.0600 
    179 H179        3.0160  -13.5663  -41.8082 H         1 UNK         0.3000 
    180 H180        4.6760  -10.7409  -42.8343 H         1 UNK         0.0600 
    181 H181        6.3520  -12.7607  -41.2494 H         1 UNK         0.0600 
    182 H182        6.3834  -11.0136  -41.0462 H         1 UNK         0.0600 
    183 H183        6.9451  -11.7254  -42.5490 H         1 UNK         0.0600 
    184 H184        5.1619  -13.6008  -43.2023 H         1 UNK         0.3000 
    185 H185        4.7511  -14.2317  -45.5284 H         1 UNK         0.0600 
    186 H186        2.9542  -16.0237  -45.1360 H         1 UNK         0.0600 
    187 H187        3.6641  -15.4244  -43.6562 H         1 UNK         0.0600 
    188 H188        2.0782  -14.8560  -44.1499 H         1 UNK         0.0600 
    189 H189        2.5491  -12.7530  -46.5031 H         1 UNK         0.3000 
    190 H190       -1.1903  -20.1383  -46.5786 H         1 UNK         0.3000 
    191 H191       -2.1223  -20.7396  -49.1614 H         1 UNK         0.0600 
    192 H192       -3.6821  -20.0492  -46.6209 H         1 UNK         0.0600 
    193 H193       -4.3467  -20.0133  -48.2480 H         1 UNK         0.0600 
    194 H194       -3.0534  -18.9091  -47.8089 H         1 UNK         0.0600 
    195 H195       -2.6356  -22.5367  -46.0912 H         1 UNK         0.3000 
    196 H196       -4.3668  -24.5305  -47.1271 H         1 UNK         0.0600 
    197 H197       -3.6707  -25.8159  -45.0967 H         1 UNK         0.0600 
    198 H198       -4.0659  -24.1490  -44.7057 H         1 UNK         0.0600 
    199 H199       -2.3817  -24.6564  -44.7955 H         1 UNK         0.0600 
    200 H200       -0.7776  -24.4688  -46.8510 H         1 UNK         0.3000 
    201 H201       -0.2962  -27.0145  -48.0348 H         1 UNK         0.0600 
    202 H202        1.3849  -25.8044  -46.6677 H         1 UNK         0.0600 
    203 H203        1.4974  -24.5333  -47.8820 H         1 UNK         0.0600 
    204 H204        2.0368  -26.1643  -48.2598 H         1 UNK         0.0600 
    205 H205       -0.7401  -23.7948  -49.4456 H         1 UNK         0.3000 
    206 H206       -0.1841  -24.5777  -52.1768 H         1 UNK         0.0600 
    207 H207        0.1986  -22.2686  -51.1786 H         1 UNK         0.0600 
    208 H208       -0.7156  -22.2666  -52.6650 H         1 UNK         0.0600 
    209 H209       -1.5516  -22.0484  -51.1313 H         1 UNK         0.0600 
    210 H210       -2.6710  -25.6068  -50.3653 H         1 UNK         0.3000 
    211 H211       -4.6349  -26.5371  -50.7054 H         1 UNK         0.0600 
    212 H212       -4.0675  -26.3619  -53.7115 H         1 UNK         0.0600 
    213 H213       -5.2159  -27.4323  -52.9230 H         1 UNK         0.0600 
    214 H214       -3.4954  -27.6407  -52.6408 H         1 UNK         0.0600 
    215 H215       -4.6383  -23.8760  -50.1794 H         1 UNK         0.3000 
    216 H216       -6.0268  -22.2439  -49.7548 H         1 UNK         0.0600 
    217 H217       -8.3036  -21.9942  -50.6402 H         1 UNK         0.0600 
    218 H218       -8.0584  -23.6214  -50.0237 H         1 UNK         0.0600 
    219 H219       -8.0676  -23.3231  -51.7579 H         1 UNK         0.0600 
    220 H220       -4.9627  -20.5088  -50.3244 H         1 UNK         0.3000 
    221 H221       -3.8302  -19.9491  -52.8180 H         1 UNK         0.0600 
    222 H222       -4.4291  -18.1224  -50.4306 H         1 UNK         0.0600 
    223 H223       -2.9399  -19.0220  -50.7299 H         1 UNK         0.0600 
    224 H224       -3.3824  -17.6853  -51.7734 H         1 UNK         0.0600 
    225 H225       -7.0247  -19.1254  -51.6230 H         1 UNK         0.3000 
    226 H226       -7.6400  -17.1496  -53.6578 H         1 UNK         0.0600 
    227 H227       -8.7242  -17.1303  -51.4201 H         1 UNK         0.0600 
    228 H228       -9.9276  -17.3238  -52.6837 H         1 UNK         0.0600 
    229 H229       -9.4355  -18.7156  -51.7268 H         1 UNK         0.0600 
    230 H230       -7.5721  -20.6347  -53.6435 H         1 UNK         0.3000 
    231 H231       -9.5546  -20.8263  -55.8789 H         1 UNK         0.0600 
    232 H232      -10.0968  -22.1165  -53.7993 H         1 UNK         0.0600 
    233 H233       -8.5747  -22.9938  -53.9587 H         1 UNK         0.0600 
    234 H234       -9.8185  -23.1581  -55.1874 H         1 UNK         0.0600 
    235 H235       -6.3678  -22.0855  -54.7382 H         1 UNK         0.3000 
    236 H236       -5.7154  -22.9182  -57.5484 H         1 UNK         0.0600 
    237 H237       -4.3326  -24.6794  -56.4418 H         1 UNK         0.0600 
    238 H238       -4.9196  -24.1628  -54.8657 H         1 UNK         0.0600 
    239 H239       -6.0370  -24.8409  -56.0421 H         1 UNK         0.0600 
    240 H240       -4.0754  -22.1085  -54.4538 H         1 UNK         0.3000 
    241 H241       -2.1850  -21.1453  -53.9566 H         1 UNK         0.0600 
    242 H242       -0.4231  -23.8587  -55.7260 H         1 UNK         0.3800 
    243 H243       -1.8676  -23.6767  -54.7499 H         1 UNK         0.3800 
    244 H244       -3.2347  -19.2189  -55.6751 H         1 UNK         0.0800 
    245 H245       -1.6693  -19.4318  -56.3705 H         1 UNK         0.0800 
    246 H246        0.6353  -18.7449  -55.0467 H         1 UNK         0.0800 
    247 H247        0.2708  -20.0476  -53.9386 H         1 UNK         0.0800 
@<TRIPOS>BOND
     1    1    2 1    
     2    1  127 1    
     3    1  128 1    
     4    1  129 1    
     5    2    3 2    
     6    2    4 am   BACKBONE|DICT|INTERRES
     7    4    5 1    
     8    4  130 1    
     9    5    6 1    
    10    5   65 1    
    11    5  131 1    
    12    6    7 1    
    13    6  132 1    
    14    6  133 1    
    15    7    8 1    
    16    8    9 1    
    17    8  134 1    
    18    8  135 1    
    19    9   10 ar   
    20    9   14 ar   
    21   10   11 ar   
    22   10  136 1    
    23   11   12 ar   
    24   11  126 1    
    25   12   13 ar   
    26   12  137 1    
    27   13   14 ar   
    28   13   15 1    
    29   14  138 1    
    30   15   16 1    
    31   15  139 1    
    32   15  140 1    
    33   16   17 1    
    34   17   18 1    
    35   17  141 1    
    36   17  142 1    
    37   18   19 1    
    38   18   67 1    
    39   18  143 1    
    40   19   20 am   BACKBONE|DICT|INTERRES
    41   19  144 1    
    42   20   21 2    
    43   20   22 1    
    44   22   23 1    
    45   22   24 1    
    46   22  145 1    
    47   23  146 1    
    48   23  147 1    
    49   23  148 1    
    50   24   25 am   BACKBONE|DICT|INTERRES
    51   24  149 1    
    52   25   26 2    
    53   25   27 1    
    54   27   28 1    
    55   27   29 1    
    56   27  150 1    
    57   28  151 1    
    58   28  152 1    
    59   28  153 1    
    60   29   30 am   BACKBONE|DICT|INTERRES
    61   29  154 1    
    62   30   31 2    
    63   30   32 1    
    64   32   33 1    
    65   32   34 1    
    66   32  155 1    
    67   33  156 1    
    68   33  157 1    
    69   33  158 1    
    70   34   35 am   BACKBONE|DICT|INTERRES
    71   34  159 1    
    72   35   36 2    
    73   35   37 1    
    74   37   38 1    
    75   37   39 1    
    76   37  160 1    
    77   38  161 1    
    78   38  162 1    
    79   38  163 1    
    80   39   40 am   BACKBONE|DICT|INTERRES
    81   39  164 1    
    82   40   41 2    
    83   40   42 1    
    84   42   43 1    
    85   42   44 1    
    86   42  165 1    
    87   43  166 1    
    88   43  167 1    
    89   43  168 1    
    90   44   45 am   BACKBONE|DICT|INTERRES
    91   44  169 1    
    92   45   46 2    
    93   45   47 1    
    94   47   48 1    
    95   47   49 1    
    96   47  170 1    
    97   48  171 1    
    98   48  172 1    
    99   48  173 1    
   100   49   50 am   BACKBONE|DICT|INTERRES
   101   49  174 1    
   102   50   51 2    
   103   50   52 1    
   104   52   53 1    
   105   52   54 1    
   106   52  175 1    
   107   53  176 1    
   108   53  177 1    
   109   53  178 1    
   110   54   55 am   BACKBONE|DICT|INTERRES
   111   54  179 1    
   112   55   56 2    
   113   55   57 1    
   114   57   58 1    
   115   57   59 1    
   116   57  180 1    
   117   58  181 1    
   118   58  182 1    
   119   58  183 1    
   120   59   60 am   BACKBONE|DICT|INTERRES
   121   59  184 1    
   122   60   61 2    
   123   60   62 1    
   124   62   63 1    
   125   62   64 1    
   126   62  185 1    
   127   63  186 1    
   128   63  187 1    
   129   63  188 1    
   130   64   65 am   BACKBONE|DICT|INTERRES
   131   64  189 1    
   132   65   66 2    
   133   67   68 2    
   134   67   69 am   BACKBONE|DICT|INTERRES
   135   69   70 1    
   136   69  190 1    
   137   70   71 1    
   138   70   72 1    
   139   70  191 1    
   140   71  192 1    
   141   71  193 1    
   142   71  194 1    
   143   72   73 2    
   144   72   74 am   BACKBONE|DICT|INTERRES
   145   74   75 1    
   146   74  195 1    
   147   75   76 1    
   148   75   77 1    
   149   75  196 1    
   150   76  197 1    
   151   76  198 1    
   152   76  199 1    
   153   77   78 2    
   154   77   79 am   BACKBONE|DICT|INTERRES
   155   79   80 1    
   156   79  200 1    
   157   80   81 1    
   158   80   82 1    
   159   80  201 1    
   160   81  202 1    
   161   81  203 1    
   162   81  204 1    
   163   82   83 2    
   164   82   84 am   BACKBONE|DICT|INTERRES
   165   84   85 1    
   166   84  205 1    
   167   85   86 1    
   168   85   87 1    
   169   85  206 1    
   170   86  207 1    
   171   86  208 1    
   172   86  209 1    
   173   87   88 2    
   174   87   89 am   BACKBONE|DICT|INTERRES
   175   89   90 1    
   176   89  210 1    
   177   90   91 1    
   178   90   92 1    
   179   90  211 1    
   180   91  212 1    
   181   91  213 1    
   182   91  214 1    
   183   92   93 2    
   184   92   94 am   BACKBONE|DICT|INTERRES
   185   94   95 1    
   186   94  215 1    
   187   95   96 1    
   188   95   97 1    
   189   95  216 1    
   190   96  217 1    
   191   96  218 1    
   192   96  219 1    
   193   97   98 2    
   194   97   99 am   BACKBONE|DICT|INTERRES
   195   99  100 1    
   196   99  220 1    
   197  100  101 1    
   198  100  102 1    
   199  100  221 1    
   200  101  222 1    
   201  101  223 1    
   202  101  224 1    
   203  102  103 2    
   204  102  104 am   BACKBONE|DICT|INTERRES
   205  104  105 1    
   206  104  225 1    
   207  105  106 1    
   208  105  107 1    
   209  105  226 1    
   210  106  227 1    
   211  106  228 1    
   212  106  229 1    
   213  107  108 2    
   214  107  109 am   BACKBONE|DICT|INTERRES
   215  109  110 1    
   216  109  230 1    
   217  110  111 1    
   218  110  112 1    
   219  110  231 1    
   220  111  232 1    
   221  111  233 1    
   222  111  234 1    
   223  112  113 2    
   224  112  114 am   BACKBONE|DICT|INTERRES
   225  114  115 1    
   226  114  235 1    
   227  115  116 1    
   228  115  117 1    
   229  115  236 1    
   230  116  237 1    
   231  116  238 1    
   232  116  239 1    
   233  117  118 2    
   234  117  119 am   BACKBONE|DICT|INTERRES
   235  119  120 1    
   236  119  240 1    
   237  120  121 1    
   238  120  124 1    
   239  120  241 1    
   240  121  122 am   BACKBONE|DICT|INTERRES
   241  121  123 2    
   242  122  242 1    
   243  122  243 1    
   244  124  125 1    
   245  124  244 1    
   246  124  245 1    
   247  125  126 1    
   248  126  246 1    
   249  126  247 1    
@<TRIPOS>SUBSTRUCTURE
     1 UNK         1 GROUP             0       ****    0 ROOT    
