@<TRIPOS>MOLECULE
3R540
247   249    1
SMALL
USER_CHARGES


@<TRIPOS>ATOM
      1 CA          6.0432   -9.9050  -50.2894 C.3       0 UNK        -0.1800 
      2 C           4.7480  -10.5823  -49.8641 C.2       0 UNK         0.5000 
      3 O           3.6683  -10.0989  -50.2035 O.2       0 UNK        -0.5000 
      4 N           4.8585  -11.6974  -49.1285 N.am      1 UNK        -0.5000 
      5 CA          3.7545  -12.4965  -48.5834 C.3       1 UNK         0.1400 
      6 C6          2.8844  -13.1645  -49.6815 C.3       23 UNK        -0.0398 
      7 S7          2.0532  -14.6674  -49.0692 S.3       23 UNK        -0.2404 
      8 C8          1.1206  -15.1479  -50.5528 C.3       23 UNK        -0.0205 
      9 C9          0.1791  -16.2999  -50.2471 C.ar      23 UNK        -0.0193 
     10 C10        -1.0837  -16.0416  -49.7104 C.ar      23 UNK        -0.1150 
     11 C11        -1.9536  -17.0893  -49.3993 C.ar      23 UNK        -0.0193 
     12 C12        -1.5527  -18.4083  -49.6362 C.ar      23 UNK        -0.1150 
     13 C13        -0.2906  -18.6800  -50.1784 C.ar      23 UNK        -0.0193 
     14 C14         0.5681  -17.6204  -50.4863 C.ar      23 UNK        -0.1150 
     15 C15         0.1466  -20.1158  -50.4392 C.3       23 UNK        -0.0205 
     16 S16         1.5264  -20.6535  -49.3703 S.3       23 UNK        -0.2404 
     17 C17         0.8189  -20.4889  -47.6963 C.3       23 UNK        -0.0398 
     18 CA          0.2353  -21.8045  -47.1283 C.3       11 UNK         0.1400 
     19 N           0.0520  -21.7291  -45.6775 N.am      11 UNK        -0.5000 
     20 C          -0.3717  -22.7288  -44.8910 C.2       10 UNK         0.5000 
     21 O          -0.5727  -23.8765  -45.2844 O.2       10 UNK        -0.5000 
     22 CA         -0.6816  -22.3677  -43.4290 C.3       10 UNK         0.1400 
     23 CB          0.5862  -22.4380  -42.5657 C.3       10 UNK        -0.1800 
     24 N          -1.2892  -21.0403  -43.3203 N.am      10 UNK        -0.5000 
     25 C          -2.5342  -20.7488  -43.7246 C.2       9 UNK         0.5000 
     26 O          -3.3151  -21.5836  -44.1827 O.2       9 UNK        -0.5000 
     27 CA         -2.9594  -19.2700  -43.6422 C.3       9 UNK         0.1400 
     28 CB         -3.4076  -18.9114  -42.2176 C.3       9 UNK        -0.1800 
     29 N          -1.8963  -18.3542  -44.0623 N.am      9 UNK        -0.5000 
     30 C          -1.4367  -18.2609  -45.3180 C.2       8 UNK         0.5000 
     31 O          -1.9011  -18.9068  -46.2568 O.2       8 UNK        -0.5000 
     32 CA         -0.2277  -17.3323  -45.5572 C.3       8 UNK         0.1400 
     33 CB         -0.6954  -15.9137  -45.9045 C.3       8 UNK        -0.1800 
     34 N           0.7112  -17.2620  -44.4329 N.am      8 UNK        -0.5000 
     35 C           1.3595  -18.3074  -43.8980 C.2       7 UNK         0.5000 
     36 O           1.1897  -19.4697  -44.2691 O.2       7 UNK        -0.5000 
     37 CA          2.3466  -17.9897  -42.7554 C.3       7 UNK         0.1400 
     38 CB          3.2304  -19.1898  -42.3591 C.3       7 UNK        -0.1800 
     39 N           3.1639  -16.8085  -43.0398 N.am      7 UNK        -0.5000 
     40 C           4.0237  -16.6305  -44.0550 C.2       6 UNK         0.5000 
     41 O           4.3128  -17.5047  -44.8725 O.2       6 UNK        -0.5000 
     42 CA          4.6615  -15.2340  -44.1954 C.3       6 UNK         0.1400 
     43 CB          4.2472  -14.5814  -45.5212 C.3       6 UNK        -0.1800 
     44 N           4.2855  -14.3351  -43.1031 N.am      6 UNK        -0.5000 
     45 C           4.9953  -14.1457  -41.9829 C.2       5 UNK         0.5000 
     46 O           6.1012  -14.6473  -41.7797 O.2       5 UNK        -0.5000 
     47 CA          4.3480  -13.2717  -40.8907 C.3       5 UNK         0.1400 
     48 CB          4.8844  -11.8338  -40.9524 C.3       5 UNK        -0.1800 
     49 N           2.8838  -13.2563  -40.9729 N.am      5 UNK        -0.5000 
     50 C           2.1058  -14.2896  -40.6154 C.2       4 UNK         0.5000 
     51 O           2.5479  -15.3478  -40.1689 O.2       4 UNK        -0.5000 
     52 CA          0.5870  -14.1504  -40.8313 C.3       4 UNK         0.1400 
     53 CB         -0.0910  -13.6251  -39.5574 C.3       4 UNK        -0.1800 
     54 N           0.2217  -13.2905  -41.9570 N.am      4 UNK        -0.5000 
     55 C           0.5290  -13.5185  -43.2405 C.2       3 UNK         0.5000 
     56 O           1.1815  -14.4939  -43.6173 O.2       3 UNK        -0.5000 
     57 CA          0.0457  -12.4830  -44.2786 C.3       3 UNK         0.1400 
     58 CB         -0.9315  -11.4311  -43.7085 C.3       3 UNK        -0.1800 
     59 N           1.1525  -11.8080  -44.9604 N.am      3 UNK        -0.5000 
     60 C           2.1923  -11.1692  -44.4088 C.2       2 UNK         0.5000 
     61 O           2.4046  -11.1432  -43.1947 O.2       2 UNK        -0.5000 
     62 CA          3.1400  -10.4232  -45.3797 C.3       2 UNK         0.1400 
     63 CB          4.3484   -9.7992  -44.6580 C.3       2 UNK        -0.1800 
     64 N           3.6431  -11.2447  -46.4853 N.am      2 UNK        -0.5000 
     65 C           2.9449  -11.6928  -47.5381 C.2       1 UNK         0.5000 
     66 O           1.7426  -11.4723  -47.6982 O.2       1 UNK        -0.5000 
     67 C          -1.0757  -22.2019  -47.8370 C.2       11 UNK         0.5000 
     68 O          -1.0742  -23.1514  -48.6191 O.2       11 UNK        -0.5000 
     69 N          -2.1766  -21.5038  -47.5170 N.am      12 UNK        -0.5000 
     70 CA         -3.5162  -21.7917  -48.0315 C.3       12 UNK         0.1400 
     71 CB         -4.5057  -20.7254  -47.5430 C.3       12 UNK        -0.1800 
     72 C          -4.0123  -23.1983  -47.6578 C.2       12 UNK         0.5000 
     73 O          -4.5618  -23.8863  -48.5171 O.2       12 UNK        -0.5000 
     74 N          -3.7771  -23.6118  -46.4041 N.am      13 UNK        -0.5000 
     75 CA         -4.1011  -24.9465  -45.8995 C.3       13 UNK         0.1400 
     76 CB         -3.8795  -24.9974  -44.3805 C.3       13 UNK        -0.1800 
     77 C          -3.3114  -26.0598  -46.6129 C.2       13 UNK         0.5000 
     78 O          -3.9107  -27.0500  -47.0324 O.2       13 UNK        -0.5000 
     79 N          -1.9963  -25.8606  -46.7838 N.am      14 UNK        -0.5000 
     80 CA         -1.1000  -26.7632  -47.5134 C.3       14 UNK         0.1400 
     81 CB          0.3530  -26.3003  -47.3294 C.3       14 UNK        -0.1800 
     82 C          -1.4490  -26.8747  -49.0099 C.2       14 UNK         0.5000 
     83 O          -1.3533  -27.9609  -49.5816 O.2       14 UNK        -0.5000 
     84 N          -1.8895  -25.7576  -49.6013 N.am      15 UNK        -0.5000 
     85 CA         -2.3911  -25.6579  -50.9712 C.3       15 UNK         0.1400 
     86 CB         -2.3063  -24.1867  -51.4084 C.3       15 UNK        -0.1800 
     87 C          -3.8308  -26.1848  -51.1498 C.2       15 UNK         0.5000 
     88 O          -4.3453  -26.1387  -52.2703 O.2       15 UNK        -0.5000 
     89 N          -4.4801  -26.6131  -50.0544 N.am      16 UNK        -0.5000 
     90 CA         -5.8690  -27.0833  -49.9573 C.3       16 UNK         0.1400 
     91 CB         -6.0220  -28.4397  -50.6753 C.3       16 UNK        -0.1800 
     92 C          -6.9042  -26.0412  -50.4372 C.2       16 UNK         0.5000 
     93 O          -7.9848  -26.4120  -50.8982 O.2       16 UNK        -0.5000 
     94 N          -6.5257  -24.7562  -50.3588 N.am      17 UNK        -0.5000 
     95 CA         -7.1961  -23.5749  -50.9066 C.3       17 UNK         0.1400 
     96 CB         -8.4956  -23.2870  -50.1287 C.3       17 UNK        -0.1800 
     97 C          -7.4182  -23.6232  -52.4377 C.2       17 UNK         0.5000 
     98 O          -8.2642  -22.8805  -52.9399 O.2       17 UNK        -0.5000 
     99 N          -6.6646  -24.4710  -53.1536 N.am      18 UNK        -0.5000 
    100 CA        -6.8489  -24.7489  -54.5786 C.3       18 UNK         0.1400 
    101 CB        -7.3047  -26.2078  -54.7424 C.3       18 UNK        -0.1800 
    102 C         -5.5729  -24.4939  -55.3944 C.2       18 UNK         0.5000 
    103 O         -5.6642  -23.9631  -56.5017 O.2       18 UNK        -0.5000 
    104 N         -4.4073  -24.8723  -54.8513 N.am      19 UNK        -0.5000 
    105 CA        -3.1092  -24.7635  -55.5280 C.3       19 UNK         0.1400 
    106 CB        -2.1826  -25.8739  -55.0057 C.3       19 UNK        -0.1800 
    107 C         -2.4493  -23.3748  -55.3874 C.2       19 UNK         0.5000 
    108 O         -1.3674  -23.1644  -55.9377 O.2       19 UNK        -0.5000 
    109 N         -3.0945  -22.4607  -54.6556 N.am      20 UNK        -0.5000 
    110 CA        -2.6721  -21.0823  -54.4316 C.3       20 UNK         0.1400 
    111 CB        -2.2057  -20.9385  -52.9728 C.3       20 UNK        -0.1800 
    112 C         -3.8530  -20.1433  -54.7113 C.2       20 UNK         0.5000 
    113 O         -5.0025  -20.5918  -54.7405 O.2       20 UNK        -0.5000 
    114 N         -3.5572  -18.8443  -54.8576 N.am      21 UNK        -0.5000 
    115 CA        -4.5347  -17.7727  -55.0935 C.3       21 UNK         0.1400 
    116 CB        -3.7838  -16.4488  -55.3031 C.3       21 UNK        -0.1800 
    117 C         -5.5880  -17.6229  -53.9755 C.2       21 UNK         0.5000 
    118 O         -6.7032  -17.1759  -54.2464 O.2       21 UNK        -0.5000 
    119 N         -5.2217  -18.0305  -52.7547 N.am      22 UNK        -0.5000 
    120 CA        -6.1169  -18.1603  -51.5951 C.3       22 UNK         0.1400 
    121 C         -7.0443  -19.4135  -51.6353 C.2       22 UNK         0.5000 
    122 N         -6.9534  -20.2905  -52.6278 N.am      22 UNK        -0.7600 
    123 O         -7.8792  -19.5852  -50.7520 O.2       22 UNK        -0.5000 
    124 C124       -5.3241  -18.0803  -50.2660 C.3       23 UNK        -0.0398 
    125 S125       -4.5730  -16.4350  -50.0334 S.3       23 UNK        -0.2404 
    126 C126       -3.3063  -16.7778  -48.7765 C.3       23 UNK        -0.0205 
    127 H127        6.9207  -10.4410  -49.9268 H         1 UNK         0.0600 
    128 H128        6.0806   -8.8883  -49.8981 H         1 UNK         0.0600 
    129 H129        6.1011   -9.8552  -51.3768 H         1 UNK         0.0600 
    130 H130        5.7841  -12.0301  -48.8959 H         1 UNK         0.3000 
    131 H131        4.2490  -13.2988  -48.0362 H         1 UNK         0.0600 
    132 H132        2.1493  -12.4694  -50.0910 H         1 UNK         0.0800 
    133 H133        3.5144  -13.4644  -50.5201 H         1 UNK         0.0800 
    134 H134        0.5497  -14.2937  -50.9202 H         1 UNK         0.0800 
    135 H135        1.8155  -15.4235  -51.3475 H         1 UNK         0.0800 
    136 H136       -1.3844  -15.0208  -49.5197 H         1 UNK         0.1150 
    137 H137       -2.2178  -19.2219  -49.3858 H         1 UNK         0.1150 
    138 H138        1.5461  -17.8269  -50.8981 H         1 UNK         0.1150 
    139 H139       -0.6922  -20.8032  -50.3255 H         1 UNK         0.0800 
    140 H140        0.4644  -20.2014  -51.4791 H         1 UNK         0.0800 
    141 H141        0.0805  -19.6905  -47.6836 H         1 UNK         0.0800 
    142 H142        1.6294  -20.1446  -47.0521 H         1 UNK         0.0800 
    143 H143        0.9593  -22.6023  -47.3068 H         1 UNK         0.0600 
    144 H144        0.2563  -20.8359  -45.2382 H         1 UNK         0.3000 
    145 H145       -1.3930  -23.1007  -43.0432 H         1 UNK         0.0600 
    146 H146        0.3782  -22.1653  -41.5310 H         1 UNK         0.0600 
    147 H147        0.9935  -23.4497  -42.5604 H         1 UNK         0.0600 
    148 H148        1.3674  -21.7769  -42.9395 H         1 UNK         0.0600 
    149 H149       -0.6844  -20.2893  -43.0219 H         1 UNK         0.3000 
    150 H150       -3.8111  -19.1323  -44.3121 H         1 UNK         0.0600 
    151 H151       -4.2116  -19.5694  -41.8850 H         1 UNK         0.0600 
    152 H152       -3.7844  -17.8896  -42.1688 H         1 UNK         0.0600 
    153 H153       -2.5905  -19.0030  -41.5009 H         1 UNK         0.0600 
    154 H154       -1.4634  -17.7898  -43.3468 H         1 UNK         0.3000 
    155 H155        0.3224  -17.7215  -46.4153 H         1 UNK         0.0600 
    156 H156        0.1485  -15.2745  -46.1657 H         1 UNK         0.0600 
    157 H157       -1.2298  -15.4527  -45.0735 H         1 UNK         0.0600 
    158 H158       -1.3659  -15.9224  -46.7609 H         1 UNK         0.0600 
    159 H159        0.9294  -16.3294  -44.0909 H         1 UNK         0.3000 
    160 H160        1.7361  -17.7328  -41.8887 H         1 UNK         0.0600 
    161 H161        3.7996  -19.5742  -43.2060 H         1 UNK         0.0600 
    162 H162        2.6233  -20.0085  -41.9734 H         1 UNK         0.0600 
    163 H163        3.9371  -18.9169  -41.5754 H         1 UNK         0.0600 
    164 H164        3.0065  -16.0200  -42.4284 H         1 UNK         0.3000 
    165 H165        5.7444  -15.3729  -44.2107 H         1 UNK         0.0600 
    166 H166        3.1753  -14.3824  -45.5596 H         1 UNK         0.0600 
    167 H167        4.7751  -13.6394  -45.6596 H         1 UNK         0.0600 
    168 H168        4.4940  -15.2193  -46.3709 H         1 UNK         0.0600 
    169 H169        3.3721  -13.9055  -43.1750 H         1 UNK         0.3000 
    170 H170        4.6317  -13.6921  -39.9234 H         1 UNK         0.0600 
    171 H171        5.9655  -11.8163  -40.8093 H         1 UNK         0.0600 
    172 H172        4.6767  -11.3644  -41.9131 H         1 UNK         0.0600 
    173 H173        4.4433  -11.2130  -40.1725 H         1 UNK         0.0600 
    174 H174        2.4608  -12.4378  -41.3960 H         1 UNK         0.3000 
    175 H175        0.1954  -15.1485  -41.0389 H         1 UNK         0.0600 
    176 H176        0.2382  -12.6140  -39.3143 H         1 UNK         0.0600 
    177 H177       -1.1757  -13.6091  -39.6651 H         1 UNK         0.0600 
    178 H178        0.1396  -14.2604  -38.7011 H         1 UNK         0.0600 
    179 H179       -0.2936  -12.4518  -41.7326 H         1 UNK         0.3000 
    180 H180       -0.4883  -13.0461  -45.0443 H         1 UNK         0.0600 
    181 H181       -0.4597  -10.7927  -42.9604 H         1 UNK         0.0600 
    182 H182       -1.8013  -11.9037  -43.2501 H         1 UNK         0.0600 
    183 H183       -1.3054  -10.7824  -44.5008 H         1 UNK         0.0600 
    184 H184        1.1029  -11.7921  -45.9763 H         1 UNK         0.3000 
    185 H185        2.5577   -9.6055  -45.8093 H         1 UNK         0.0600 
    186 H186        4.9497   -9.1999  -45.3419 H         1 UNK         0.0600 
    187 H187        4.0293   -9.1394  -43.8501 H         1 UNK         0.0600 
    188 H188        4.9948  -10.5632  -44.2248 H         1 UNK         0.0600 
    189 H189        4.6275  -11.4634  -46.4462 H         1 UNK         0.3000 
    190 H190       -2.0920  -20.7066  -46.8918 H         1 UNK         0.3000 
    191 H191       -3.4687  -21.7347  -49.1208 H         1 UNK         0.0600 
    192 H192       -4.1981  -19.7323  -47.8604 H         1 UNK         0.0600 
    193 H193       -4.5867  -20.7159  -46.4558 H         1 UNK         0.0600 
    194 H194       -5.5032  -20.9021  -47.9475 H         1 UNK         0.0600 
    195 H195       -3.3571  -22.9635  -45.7467 H         1 UNK         0.3000 
    196 H196       -5.1622  -25.1209  -46.0898 H         1 UNK         0.0600 
    197 H197       -4.1613  -25.9713  -43.9783 H         1 UNK         0.0600 
    198 H198       -4.4823  -24.2468  -43.8689 H         1 UNK         0.0600 
    199 H199       -2.8365  -24.8240  -44.1174 H         1 UNK         0.0600 
    200 H200       -1.5681  -25.0320  -46.3768 H         1 UNK         0.3000 
    201 H201       -1.1994  -27.7582  -47.0751 H         1 UNK         0.0600 
    202 H202        0.6348  -26.2979  -46.2763 H         1 UNK         0.0600 
    203 H203        0.5061  -25.2928  -47.7179 H         1 UNK         0.0600 
    204 H204        1.0447  -26.9634  -47.8503 H         1 UNK         0.0600 
    205 H205       -1.8618  -24.8899  -49.0728 H         1 UNK         0.3000 
    206 H206       -1.7457  -26.2508  -51.6215 H         1 UNK         0.0600 
    207 H207       -1.2795  -23.8225  -51.3710 H         1 UNK         0.0600 
    208 H208       -2.6591  -24.0533  -52.4289 H         1 UNK         0.0600 
    209 H209       -2.9127  -23.5430  -50.7713 H         1 UNK         0.0600 
    210 H210       -3.9857  -26.5717  -49.1716 H         1 UNK         0.3000 
    211 H211       -6.0656  -27.2415  -48.8963 H         1 UNK         0.0600 
    212 H212       -5.9034  -28.3409  -51.7549 H         1 UNK         0.0600 
    213 H213       -7.0062  -28.8724  -50.4924 H         1 UNK         0.0600 
    214 H214       -5.2828  -29.1581  -50.3208 H         1 UNK         0.0600 
    215 H215       -5.6505  -24.5621  -49.8760 H         1 UNK         0.3000 
    216 H216       -6.5168  -22.7396  -50.7302 H         1 UNK         0.0600 
    217 H217       -8.3094  -23.2421  -49.0557 H         1 UNK         0.0600 
    218 H218       -9.2519  -24.0517  -50.3078 H         1 UNK         0.0600 
    219 H219       -8.9237  -22.3272  -50.4205 H         1 UNK         0.0600 
    220 H220       -5.9750  -25.0363  -52.6700 H         1 UNK         0.3000 
    221 H221       -7.6262  -24.1070  -54.9982 H         1 UNK         0.0600 
    222 H222       -6.5738  -26.9065  -54.3326 H         1 UNK         0.0600 
    223 H223       -8.2523  -26.3814  -54.2318 H         1 UNK         0.0600 
    224 H224       -7.4497  -26.4589  -55.7939 H         1 UNK         0.0600 
    225 H225       -4.4035  -25.3253  -53.9408 H         1 UNK         0.3000 
    226 H226       -3.2542  -24.9367  -56.5965 H         1 UNK         0.0600 
    227 H227       -2.6415  -26.8564  -55.1174 H         1 UNK         0.0600 
    228 H228       -1.2424  -25.8917  -55.5581 H         1 UNK         0.0600 
    229 H229       -1.9388  -25.7364  -53.9539 H         1 UNK         0.0600 
    230 H230       -4.0237  -22.6822  -54.3255 H         1 UNK         0.3000 
    231 H231       -1.8557  -20.8126  -55.1047 H         1 UNK         0.0600 
    232 H232       -1.8758  -19.9210  -52.7604 H         1 UNK         0.0600 
    233 H233       -1.3646  -21.6004  -52.7669 H         1 UNK         0.0600 
    234 H234       -3.0017  -21.1809  -52.2673 H         1 UNK         0.0600 
    235 H235       -2.5901  -18.5574  -54.8089 H         1 UNK         0.3000 
    236 H236       -5.0709  -18.0126  -56.0139 H         1 UNK         0.0600 
    237 H237       -3.1000  -16.5115  -56.1498 H         1 UNK         0.0600 
    238 H238       -4.4788  -15.6335  -55.5087 H         1 UNK         0.0600 
    239 H239       -3.2046  -16.1715  -54.4212 H         1 UNK         0.0600 
    240 H240       -4.2786  -18.3636  -52.6283 H         1 UNK         0.3000 
    241 H241       -6.8012  -17.3098  -51.6142 H         1 UNK         0.0600 
    242 H242       -6.2742  -20.1839  -53.3746 H         1 UNK         0.3800 
    243 H243       -7.5924  -21.0765  -52.6620 H         1 UNK         0.3800 
    244 H244       -5.9739  -18.2645  -49.4085 H         1 UNK         0.0800 
    245 H245       -4.5496  -18.8479  -50.2391 H         1 UNK         0.0800 
    246 H246       -3.6250  -17.5821  -48.1151 H         1 UNK         0.0800 
    247 H247       -3.2209  -15.8944  -48.1432 H         1 UNK         0.0800 
@<TRIPOS>BOND
     1    1    2 1    
     2    1  127 1    
     3    1  128 1    
     4    1  129 1    
     5    2    3 2    
     6    2    4 am   BACKBONE|DICT|INTERRES
     7    4    5 1    
     8    4  130 1    
     9    5    6 1    
    10    5   65 1    
    11    5  131 1    
    12    6    7 1    
    13    6  132 1    
    14    6  133 1    
    15    7    8 1    
    16    8    9 1    
    17    8  134 1    
    18    8  135 1    
    19    9   10 ar   
    20    9   14 ar   
    21   10   11 ar   
    22   10  136 1    
    23   11   12 ar   
    24   11  126 1    
    25   12   13 ar   
    26   12  137 1    
    27   13   14 ar   
    28   13   15 1    
    29   14  138 1    
    30   15   16 1    
    31   15  139 1    
    32   15  140 1    
    33   16   17 1    
    34   17   18 1    
    35   17  141 1    
    36   17  142 1    
    37   18   19 1    
    38   18   67 1    
    39   18  143 1    
    40   19   20 am   BACKBONE|DICT|INTERRES
    41   19  144 1    
    42   20   21 2    
    43   20   22 1    
    44   22   23 1    
    45   22   24 1    
    46   22  145 1    
    47   23  146 1    
    48   23  147 1    
    49   23  148 1    
    50   24   25 am   BACKBONE|DICT|INTERRES
    51   24  149 1    
    52   25   26 2    
    53   25   27 1    
    54   27   28 1    
    55   27   29 1    
    56   27  150 1    
    57   28  151 1    
    58   28  152 1    
    59   28  153 1    
    60   29   30 am   BACKBONE|DICT|INTERRES
    61   29  154 1    
    62   30   31 2    
    63   30   32 1    
    64   32   33 1    
    65   32   34 1    
    66   32  155 1    
    67   33  156 1    
    68   33  157 1    
    69   33  158 1    
    70   34   35 am   BACKBONE|DICT|INTERRES
    71   34  159 1    
    72   35   36 2    
    73   35   37 1    
    74   37   38 1    
    75   37   39 1    
    76   37  160 1    
    77   38  161 1    
    78   38  162 1    
    79   38  163 1    
    80   39   40 am   BACKBONE|DICT|INTERRES
    81   39  164 1    
    82   40   41 2    
    83   40   42 1    
    84   42   43 1    
    85   42   44 1    
    86   42  165 1    
    87   43  166 1    
    88   43  167 1    
    89   43  168 1    
    90   44   45 am   BACKBONE|DICT|INTERRES
    91   44  169 1    
    92   45   46 2    
    93   45   47 1    
    94   47   48 1    
    95   47   49 1    
    96   47  170 1    
    97   48  171 1    
    98   48  172 1    
    99   48  173 1    
   100   49   50 am   BACKBONE|DICT|INTERRES
   101   49  174 1    
   102   50   51 2    
   103   50   52 1    
   104   52   53 1    
   105   52   54 1    
   106   52  175 1    
   107   53  176 1    
   108   53  177 1    
   109   53  178 1    
   110   54   55 am   BACKBONE|DICT|INTERRES
   111   54  179 1    
   112   55   56 2    
   113   55   57 1    
   114   57   58 1    
   115   57   59 1    
   116   57  180 1    
   117   58  181 1    
   118   58  182 1    
   119   58  183 1    
   120   59   60 am   BACKBONE|DICT|INTERRES
   121   59  184 1    
   122   60   61 2    
   123   60   62 1    
   124   62   63 1    
   125   62   64 1    
   126   62  185 1    
   127   63  186 1    
   128   63  187 1    
   129   63  188 1    
   130   64   65 am   BACKBONE|DICT|INTERRES
   131   64  189 1    
   132   65   66 2    
   133   67   68 2    
   134   67   69 am   BACKBONE|DICT|INTERRES
   135   69   70 1    
   136   69  190 1    
   137   70   71 1    
   138   70   72 1    
   139   70  191 1    
   140   71  192 1    
   141   71  193 1    
   142   71  194 1    
   143   72   73 2    
   144   72   74 am   BACKBONE|DICT|INTERRES
   145   74   75 1    
   146   74  195 1    
   147   75   76 1    
   148   75   77 1    
   149   75  196 1    
   150   76  197 1    
   151   76  198 1    
   152   76  199 1    
   153   77   78 2    
   154   77   79 am   BACKBONE|DICT|INTERRES
   155   79   80 1    
   156   79  200 1    
   157   80   81 1    
   158   80   82 1    
   159   80  201 1    
   160   81  202 1    
   161   81  203 1    
   162   81  204 1    
   163   82   83 2    
   164   82   84 am   BACKBONE|DICT|INTERRES
   165   84   85 1    
   166   84  205 1    
   167   85   86 1    
   168   85   87 1    
   169   85  206 1    
   170   86  207 1    
   171   86  208 1    
   172   86  209 1    
   173   87   88 2    
   174   87   89 am   BACKBONE|DICT|INTERRES
   175   89   90 1    
   176   89  210 1    
   177   90   91 1    
   178   90   92 1    
   179   90  211 1    
   180   91  212 1    
   181   91  213 1    
   182   91  214 1    
   183   92   93 2    
   184   92   94 am   BACKBONE|DICT|INTERRES
   185   94   95 1    
   186   94  215 1    
   187   95   96 1    
   188   95   97 1    
   189   95  216 1    
   190   96  217 1    
   191   96  218 1    
   192   96  219 1    
   193   97   98 2    
   194   97   99 am   BACKBONE|DICT|INTERRES
   195   99  100 1    
   196   99  220 1    
   197  100  101 1    
   198  100  102 1    
   199  100  221 1    
   200  101  222 1    
   201  101  223 1    
   202  101  224 1    
   203  102  103 2    
   204  102  104 am   BACKBONE|DICT|INTERRES
   205  104  105 1    
   206  104  225 1    
   207  105  106 1    
   208  105  107 1    
   209  105  226 1    
   210  106  227 1    
   211  106  228 1    
   212  106  229 1    
   213  107  108 2    
   214  107  109 am   BACKBONE|DICT|INTERRES
   215  109  110 1    
   216  109  230 1    
   217  110  111 1    
   218  110  112 1    
   219  110  231 1    
   220  111  232 1    
   221  111  233 1    
   222  111  234 1    
   223  112  113 2    
   224  112  114 am   BACKBONE|DICT|INTERRES
   225  114  115 1    
   226  114  235 1    
   227  115  116 1    
   228  115  117 1    
   229  115  236 1    
   230  116  237 1    
   231  116  238 1    
   232  116  239 1    
   233  117  118 2    
   234  117  119 am   BACKBONE|DICT|INTERRES
   235  119  120 1    
   236  119  240 1    
   237  120  121 1    
   238  120  124 1    
   239  120  241 1    
   240  121  122 am   BACKBONE|DICT|INTERRES
   241  121  123 2    
   242  122  242 1    
   243  122  243 1    
   244  124  125 1    
   245  124  244 1    
   246  124  245 1    
   247  125  126 1    
   248  126  246 1    
   249  126  247 1    
@<TRIPOS>SUBSTRUCTURE
     1 UNK         1 GROUP             0       ****    0 ROOT    
