@<TRIPOS>MOLECULE
3R540
247   249    1
SMALL
USER_CHARGES


@<TRIPOS>ATOM
      1 CA          4.2507  -16.5399  -47.0807 C.3       0 UNK        -0.1800 
      2 C           3.2344  -15.4369  -47.3297 C.2       0 UNK         0.5000 
      3 O           2.2915  -15.2817  -46.5556 O.2       0 UNK        -0.5000 
      4 N           3.4414  -14.6311  -48.3784 N.am      1 UNK        -0.5000 
      5 CA          2.6245  -13.4548  -48.7152 C.3       1 UNK         0.1400 
      6 C6          2.6453  -13.1489  -50.2349 C.3       23 UNK        -0.0398 
      7 S7          1.7809  -14.4452  -51.1842 S.3       23 UNK        -0.2404 
      8 C8          3.1570  -15.4233  -51.8650 C.3       23 UNK        -0.0205 
      9 C9          2.8055  -16.9026  -51.8740 C.ar      23 UNK        -0.0193 
     10 C10         1.9011  -17.4064  -52.8130 C.ar      23 UNK        -0.1150 
     11 C11         1.5351  -18.7554  -52.7929 C.ar      23 UNK        -0.0193 
     12 C12         2.0979  -19.6082  -51.8397 C.ar      23 UNK        -0.1150 
     13 C13         3.0031  -19.1155  -50.8945 C.ar      23 UNK        -0.0193 
     14 C14         3.3588  -17.7642  -50.9229 C.ar      23 UNK        -0.1150 
     15 C15         3.5820  -20.0350  -49.8287 C.3       23 UNK        -0.0205 
     16 S16         2.8715  -19.7031  -48.1835 S.3       23 UNK        -0.2404 
     17 C17         1.1441  -20.2409  -48.4014 C.3       23 UNK        -0.0398 
     18 CA          0.8681  -21.5741  -47.6722 C.3       11 UNK         0.1400 
     19 N           0.7860  -21.4186  -46.2160 N.am      11 UNK        -0.5000 
     20 C           0.7206  -22.4404  -45.3506 C.2       10 UNK         0.5000 
     21 O           0.7945  -23.6227  -45.6850 O.2       10 UNK        -0.5000 
     22 CA          0.4692  -22.0904  -43.8725 C.3       10 UNK         0.1400 
     23 CB          1.7710  -21.6735  -43.1724 C.3       10 UNK        -0.1800 
     24 N          -0.5465  -21.0484  -43.7097 N.am      10 UNK        -0.5000 
     25 C          -1.8326  -21.1894  -44.0638 C.2       9 UNK         0.5000 
     26 O          -2.3047  -22.2352  -44.5069 O.2       9 UNK        -0.5000 
     27 CA         -2.7363  -19.9483  -43.9515 C.3       9 UNK         0.1400 
     28 CB         -3.2585  -19.7817  -42.5174 C.3       9 UNK        -0.1800 
     29 N          -2.0677  -18.7206  -44.3809 N.am      9 UNK        -0.5000 
     30 C          -1.6216  -18.4860  -45.6235 C.2       8 UNK         0.5000 
     31 O          -1.7766  -19.2648  -46.5639 O.2       8 UNK        -0.5000 
     32 CA         -0.8180  -17.1905  -45.8361 C.3       8 UNK         0.1400 
     33 CB         -1.7479  -15.9863  -46.0447 C.3       8 UNK        -0.1800 
     34 N           0.0930  -16.9241  -44.7237 N.am      8 UNK        -0.5000 
     35 C           1.1568  -17.6831  -44.4250 C.2       7 UNK         0.5000 
     36 O           1.4910  -18.6771  -45.0703 O.2       7 UNK        -0.5000 
     37 CA          1.9306  -17.3067  -43.1487 C.3       7 UNK         0.1400 
     38 CB          2.9047  -16.1469  -43.4023 C.3       7 UNK        -0.1800 
     39 N           1.0264  -16.9542  -42.0537 N.am      7 UNK        -0.5000 
     40 C           0.2576  -17.8419  -41.4057 C.2       6 UNK         0.5000 
     41 O           0.2620  -19.0487  -41.6462 O.2       6 UNK        -0.5000 
     42 CA         -0.7036  -17.2909  -40.3347 C.3       6 UNK         0.1400 
     43 CB         -0.0072  -17.2328  -38.9672 C.3       6 UNK        -0.1800 
     44 N          -1.2366  -15.9672  -40.6584 N.am      6 UNK        -0.5000 
     45 C          -1.9874  -15.6797  -41.7312 C.2       5 UNK         0.5000 
     46 O          -2.3523  -16.5209  -42.5513 O.2       5 UNK        -0.5000 
     47 CA         -2.3601  -14.2006  -41.9489 C.3       5 UNK         0.1400 
     48 CB         -3.7730  -13.9200  -41.4168 C.3       5 UNK        -0.1800 
     49 N          -1.4192  -13.2541  -41.3400 N.am      5 UNK        -0.5000 
     50 C          -0.1308  -13.1294  -41.6835 C.2       4 UNK         0.5000 
     51 O           0.4225  -13.8294  -42.5345 O.2       4 UNK        -0.5000 
     52 CA          0.6831  -12.0640  -40.9305 C.3       4 UNK         0.1400 
     53 CB          1.9080  -12.6940  -40.2472 C.3       4 UNK        -0.1800 
     54 N           1.1304  -11.0243  -41.8509 N.am      4 UNK        -0.5000 
     55 C           0.3455  -10.0760  -42.3821 C.2       3 UNK         0.5000 
     56 O          -0.8337   -9.9105  -42.0673 O.2       3 UNK        -0.5000 
     57 CA          0.9839   -9.1606  -43.4483 C.3       3 UNK         0.1400 
     58 CB          1.4671   -7.8481  -42.8122 C.3       3 UNK        -0.1800 
     59 N           2.1057   -9.7960  -44.1468 N.am      3 UNK        -0.5000 
     60 C           1.9762  -10.8146  -45.0068 C.2       2 UNK         0.5000 
     61 O           0.8860  -11.2573  -45.3786 O.2       2 UNK        -0.5000 
     62 CA          3.2880  -11.4597  -45.4878 C.3       2 UNK         0.1400 
     63 CB          3.9943  -12.1766  -44.3229 C.3       2 UNK        -0.1800 
     64 N           3.0203  -12.4489  -46.5247 N.am      2 UNK        -0.5000 
     65 C           3.0329  -12.2422  -47.8448 C.2       1 UNK         0.5000 
     66 O           3.3658  -11.1754  -48.3651 O.2       1 UNK        -0.5000 
     67 C          -0.3827  -22.2641  -48.2506 C.2       11 UNK         0.5000 
     68 O          -0.2374  -23.1682  -49.0719 O.2       11 UNK        -0.5000 
     69 N          -1.5780  -21.8646  -47.7946 N.am      12 UNK        -0.5000 
     70 CA         -2.8502  -22.4762  -48.1835 C.3       12 UNK         0.1400 
     71 CB         -4.0165  -21.6474  -47.6238 C.3       12 UNK        -0.1800 
     72 C          -2.9570  -23.9529  -47.7545 C.2       12 UNK         0.5000 
     73 O          -3.4039  -24.7878  -48.5410 O.2       12 UNK        -0.5000 
     74 N          -2.4970  -24.2639  -46.5347 N.am      13 UNK        -0.5000 
     75 CA         -2.4064  -25.6254  -46.0066 C.3       13 UNK         0.1400 
     76 CB         -2.0346  -25.5802  -44.5170 C.3       13 UNK        -0.1800 
     77 C          -1.4181  -26.5056  -46.7947 C.2       13 UNK         0.5000 
     78 O          -1.7324  -27.6634  -47.0714 O.2       13 UNK        -0.5000 
     79 N          -0.2626  -25.9369  -47.1688 N.am      14 UNK        -0.5000 
     80 CA          0.7553  -26.5883  -47.9958 C.3       14 UNK         0.1400 
     81 CB          2.0450  -25.7535  -47.9791 C.3       14 UNK        -0.1800 
     82 C           0.2813  -26.8374  -49.4404 C.2       14 UNK         0.5000 
     83 O           0.5403  -27.9104  -49.9870 O.2       14 UNK        -0.5000 
     84 N          -0.4196  -25.8551  -50.0237 N.am      15 UNK        -0.5000 
     85 CA         -1.0325  -25.9381  -51.3516 C.3       15 UNK         0.1400 
     86 CB         -1.4544  -24.5292  -51.7988 C.3       15 UNK        -0.1800 
     87 C          -2.2433  -26.8896  -51.4057 C.2       15 UNK         0.5000 
     88 O          -2.5491  -27.4134  -52.4774 O.2       15 UNK        -0.5000 
     89 N          -2.9105  -27.0728  -50.2568 N.am      16 UNK        -0.5000 
     90 CA         -4.1676  -27.7975  -50.0518 C.3       16 UNK         0.1400 
     91 CB         -4.0040  -29.3015  -50.3549 C.3       16 UNK        -0.1800 
     92 C          -5.3439  -27.1399  -50.8048 C.2       16 UNK         0.5000 
     93 O          -6.2160  -27.8344  -51.3308 O.2       16 UNK        -0.5000 
     94 N          -5.3400  -25.8033  -50.8419 N.am      17 UNK        -0.5000 
     95 CA         -6.3166  -24.9537  -51.5120 C.3       17 UNK         0.1400 
     96 CB         -6.0366  -24.9190  -53.0258 C.3       17 UNK        -0.1800 
     97 C          -6.2121  -23.5471  -50.9137 C.2       17 UNK         0.5000 
     98 O          -5.1379  -23.1677  -50.4453 O.2       17 UNK        -0.5000 
     99 N          -7.3141  -22.7883  -50.9553 N.am      18 UNK        -0.5000 
    100 CA        -7.3780  -21.3983  -50.4969 C.3       18 UNK         0.1400 
    101 CB        -8.8232  -20.8949  -50.6296 C.3       18 UNK        -0.1800 
    102 C         -6.4248  -20.4854  -51.2891 C.2       18 UNK         0.5000 
    103 O         -6.2340  -20.7024  -52.4876 O.2       18 UNK        -0.5000 
    104 N         -5.8777  -19.4597  -50.6239 N.am      19 UNK        -0.5000 
    105 CA        -4.8759  -18.5316  -51.1665 C.3       19 UNK         0.1400 
    106 CB        -4.3845  -17.6141  -50.0357 C.3       19 UNK        -0.1800 
    107 C         -5.3405  -17.7027  -52.3845 C.2       19 UNK         0.5000 
    108 O         -4.4990  -17.1702  -53.1073 O.2       19 UNK        -0.5000 
    109 N         -6.6599  -17.6273  -52.6105 N.am      20 UNK        -0.5000 
    110 CA        -7.2698  -17.0594  -53.8143 C.3       20 UNK         0.1400 
    111 CB        -8.7827  -16.9160  -53.5890 C.3       20 UNK        -0.1800 
    112 C         -6.9879  -17.8952  -55.0811 C.2       20 UNK         0.5000 
    113 O         -6.8739  -17.3243  -56.1665 O.2       20 UNK        -0.5000 
    114 N         -6.8683  -19.2202  -54.9187 N.am      21 UNK        -0.5000 
    115 CA        -6.4498  -20.1568  -55.9612 C.3       21 UNK         0.1400 
    116 CB        -7.2401  -21.4680  -55.8158 C.3       21 UNK        -0.1800 
    117 C         -4.9377  -20.4159  -55.8605 C.2       21 UNK         0.5000 
    118 O         -4.2384  -20.3609  -56.8721 O.2       21 UNK        -0.5000 
    119 N         -4.4654  -20.6592  -54.6305 N.am      22 UNK        -0.5000 
    120 CA        -3.0586  -20.8476  -54.2444 C.3       22 UNK         0.1400 
    121 C         -2.3949  -22.1605  -54.7636 C.2       22 UNK         0.5000 
    122 N         -3.1564  -23.1453  -55.2250 N.am      22 UNK        -0.7600 
    123 O         -1.1765  -22.3049  -54.7290 O.2       22 UNK        -0.5000 
    124 C124       -2.2050  -19.5716  -54.5082 C.3       23 UNK        -0.0398 
    125 S125       -1.1697  -19.1138  -53.0792 S.3       23 UNK        -0.2404 
    126 C126        0.5016  -19.2796  -53.7749 C.3       23 UNK        -0.0205 
    127 H127        4.7178  -16.8747  -48.0060 H         1 UNK         0.0600 
    128 H128        3.7685  -17.3967  -46.6109 H         1 UNK         0.0600 
    129 H129        5.0314  -16.1829  -46.4095 H         1 UNK         0.0600 
    130 H130        4.2569  -14.7747  -48.9550 H         1 UNK         0.3000 
    131 H131        1.5862  -13.6673  -48.4492 H         1 UNK         0.0600 
    132 H132        2.1250  -12.2124  -50.4434 H         1 UNK         0.0800 
    133 H133        3.6648  -13.0162  -50.6001 H         1 UNK         0.0800 
    134 H134        4.0650  -15.2589  -51.2838 H         1 UNK         0.0800 
    135 H135        3.3745  -15.0854  -52.8792 H         1 UNK         0.0800 
    136 H136        1.4566  -16.7395  -53.5386 H         1 UNK         0.1150 
    137 H137        1.8080  -20.6495  -51.8181 H         1 UNK         0.1150 
    138 H138        4.0508  -17.3811  -50.1877 H         1 UNK         0.1150 
    139 H139        3.4226  -21.0830  -50.0876 H         1 UNK         0.0800 
    140 H140        4.6625  -19.8925  -49.7810 H         1 UNK         0.0800 
    141 H141        0.9303  -20.3283  -49.4666 H         1 UNK         0.0800 
    142 H142        0.4861  -19.4535  -48.0325 H         1 UNK         0.0800 
    143 H143        1.7051  -22.2460  -47.8754 H         1 UNK         0.0600 
    144 H144        0.7745  -20.4693  -45.8577 H         1 UNK         0.3000 
    145 H145        0.0991  -22.9917  -43.3795 H         1 UNK         0.0600 
    146 H146        1.6073  -21.4990  -42.1089 H         1 UNK         0.0600 
    147 H147        2.5276  -22.4540  -43.2612 H         1 UNK         0.0600 
    148 H148        2.1889  -20.7626  -43.5999 H         1 UNK         0.0600 
    149 H149       -0.2411  -20.1734  -43.2978 H         1 UNK         0.3000 
    150 H150       -3.5952  -20.1016  -44.6076 H         1 UNK         0.0600 
    151 H151       -3.8085  -20.6677  -42.1981 H         1 UNK         0.0600 
    152 H152       -3.9363  -18.9315  -42.4398 H         1 UNK         0.0600 
    153 H153       -2.4453  -19.6281  -41.8086 H         1 UNK         0.0600 
    154 H154       -1.9564  -17.9931  -43.6795 H         1 UNK         0.3000 
    155 H155       -0.2161  -17.3136  -46.7392 H         1 UNK         0.0600 
    156 H156       -2.3734  -15.7996  -45.1716 H         1 UNK         0.0600 
    157 H157       -2.4112  -16.1510  -46.8948 H         1 UNK         0.0600 
    158 H158       -1.1762  -15.0804  -46.2485 H         1 UNK         0.0600 
    159 H159       -0.1182  -16.1320  -44.1346 H         1 UNK         0.3000 
    160 H160        2.5160  -18.1767  -42.8432 H         1 UNK         0.0600 
    161 H161        2.3855  -15.2525  -43.7473 H         1 UNK         0.0600 
    162 H162        3.6358  -16.4152  -44.1649 H         1 UNK         0.0600 
    163 H163        3.4570  -15.8872  -42.4992 H         1 UNK         0.0600 
    164 H164        0.9274  -15.9692  -41.8450 H         1 UNK         0.3000 
    165 H165       -1.5470  -17.9798  -40.2596 H         1 UNK         0.0600 
    166 H166       -0.7002  -16.9252  -38.1838 H         1 UNK         0.0600 
    167 H167        0.3842  -18.2117  -38.6868 H         1 UNK         0.0600 
    168 H168        0.8296  -16.5331  -38.9704 H         1 UNK         0.0600 
    169 H169       -0.9896  -15.2130  -40.0354 H         1 UNK         0.3000 
    170 H170       -2.3590  -14.0227  -43.0264 H         1 UNK         0.0600 
    171 H171       -4.5023  -14.5920  -41.8715 H         1 UNK         0.0600 
    172 H172       -3.8306  -14.0557  -40.3361 H         1 UNK         0.0600 
    173 H173       -4.0860  -12.9012  -41.6457 H         1 UNK         0.0600 
    174 H174       -1.8000  -12.6313  -40.6419 H         1 UNK         0.3000 
    175 H175        0.0595  -11.6080  -40.1585 H         1 UNK         0.0600 
    176 H176        2.5901  -13.1433  -40.9706 H         1 UNK         0.0600 
    177 H177        2.4666  -11.9510  -39.6778 H         1 UNK         0.0600 
    178 H178        1.6065  -13.4774  -39.5507 H         1 UNK         0.0600 
    179 H179        2.0762  -11.1039  -42.1911 H         1 UNK         0.3000 
    180 H180        0.2118   -8.9204  -44.1825 H         1 UNK         0.0600 
    181 H181        2.2515   -8.0223  -42.0746 H         1 UNK         0.0600 
    182 H182        0.6483   -7.3355  -42.3055 H         1 UNK         0.0600 
    183 H183        1.8591   -7.1650  -43.5659 H         1 UNK         0.0600 
    184 H184        3.0304   -9.4729  -43.9003 H         1 UNK         0.3000 
    185 H185        3.9429  -10.6774  -45.8770 H         1 UNK         0.0600 
    186 H186        4.8951  -12.6875  -44.6636 H         1 UNK         0.0600 
    187 H187        4.2994  -11.4730  -43.5478 H         1 UNK         0.0600 
    188 H188        3.3465  -12.9203  -43.8561 H         1 UNK         0.0600 
    189 H189        2.6847  -13.3524  -46.2055 H         1 UNK         0.3000 
    190 H190       -1.6251  -21.0728  -47.1586 H         1 UNK         0.3000 
    191 H191       -2.9048  -22.4443  -49.2731 H         1 UNK         0.0600 
    192 H192       -4.0007  -21.6114  -46.5351 H         1 UNK         0.0600 
    193 H193       -4.9750  -22.0725  -47.9232 H         1 UNK         0.0600 
    194 H194       -3.9843  -20.6230  -47.9950 H         1 UNK         0.0600 
    195 H195       -2.2005  -23.5130  -45.9166 H         1 UNK         0.3000 
    196 H196       -3.3954  -26.0801  -46.0933 H         1 UNK         0.0600 
    197 H197       -1.9868  -26.5850  -44.0956 H         1 UNK         0.0600 
    198 H198       -2.7743  -25.0214  -43.9435 H         1 UNK         0.0600 
    199 H199       -1.0642  -25.1102  -44.3570 H         1 UNK         0.0600 
    200 H200       -0.0558  -24.9951  -46.8501 H         1 UNK         0.3000 
    201 H201        0.9777  -27.5593  -47.5483 H         1 UNK         0.0600 
    202 H202        2.4247  -25.6358  -46.9640 H         1 UNK         0.0600 
    203 H203        1.8873  -24.7577  -48.3936 H         1 UNK         0.0600 
    204 H204        2.8286  -26.2335  -48.5665 H         1 UNK         0.0600 
    205 H205       -0.5217  -24.9694  -49.5333 H         1 UNK         0.3000 
    206 H206       -0.2833  -26.3114  -52.0526 H         1 UNK         0.0600 
    207 H207       -0.5999  -23.8537  -51.8430 H         1 UNK         0.0600 
    208 H208       -1.9009  -24.5528  -52.7935 H         1 UNK         0.0600 
    209 H209       -2.1905  -24.0951  -51.1208 H         1 UNK         0.0600 
    210 H210       -2.6052  -26.5256  -49.4604 H         1 UNK         0.3000 
    211 H211       -4.3971  -27.7009  -48.9897 H         1 UNK         0.0600 
    212 H212       -3.8440  -29.4887  -51.4169 H         1 UNK         0.0600 
    213 H213       -4.8936  -29.8573  -50.0569 H         1 UNK         0.0600 
    214 H214       -3.1603  -29.7226  -49.8081 H         1 UNK         0.0600 
    215 H215       -4.6249  -25.2924  -50.3305 H         1 UNK         0.3000 
    216 H216       -7.3201  -25.3424  -51.3272 H         1 UNK         0.0600 
    217 H217       -6.7364  -24.2591  -53.5399 H         1 UNK         0.0600 
    218 H218       -6.1361  -25.9084  -53.4722 H         1 UNK         0.0600 
    219 H219       -5.0287  -24.5580  -53.2354 H         1 UNK         0.0600 
    220 H220       -8.1481  -23.1564  -51.3884 H         1 UNK         0.3000 
    221 H221       -7.0905  -21.3775  -49.4437 H         1 UNK         0.0600 
    222 H222       -9.1602  -20.9083  -51.6672 H         1 UNK         0.0600 
    223 H223       -9.5100  -21.5079  -50.0457 H         1 UNK         0.0600 
    224 H224       -8.9174  -19.8704  -50.2672 H         1 UNK         0.0600 
    225 H225       -6.1119  -19.3338  -49.6498 H         1 UNK         0.3000 
    226 H226       -4.0284  -19.1322  -51.5031 H         1 UNK         0.0600 
    227 H227       -3.9499  -18.1908  -49.2187 H         1 UNK         0.0600 
    228 H228       -3.6119  -16.9319  -50.3933 H         1 UNK         0.0600 
    229 H229       -5.1952  -17.0087  -49.6287 H         1 UNK         0.0600 
    230 H230       -7.2806  -18.0779  -51.9552 H         1 UNK         0.3000 
    231 H231       -6.8503  -16.0635  -53.9720 H         1 UNK         0.0600 
    232 H232       -8.9954  -16.2688  -52.7380 H         1 UNK         0.0600 
    233 H233       -9.2560  -17.8813  -53.4046 H         1 UNK         0.0600 
    234 H234       -9.2667  -16.4742  -54.4611 H         1 UNK         0.0600 
    235 H235       -6.9205  -19.5998  -53.9799 H         1 UNK         0.3000 
    236 H236       -6.6606  -19.7426  -56.9494 H         1 UNK         0.0600 
    237 H237       -6.9424  -22.1894  -56.5778 H         1 UNK         0.0600 
    238 H238       -7.0836  -21.9338  -54.8421 H         1 UNK         0.0600 
    239 H239       -8.3098  -21.2946  -55.9329 H         1 UNK         0.0600 
    240 H240       -5.1314  -20.7104  -53.8613 H         1 UNK         0.3000 
    241 H241       -3.1177  -20.9977  -53.1658 H         1 UNK         0.0600 
    242 H242       -2.7222  -23.9912  -55.5578 H         1 UNK         0.3800 
    243 H243       -4.1566  -23.0416  -55.2668 H         1 UNK         0.3800 
    244 H244       -2.8490  -18.7111  -54.6940 H         1 UNK         0.0800 
    245 H245       -1.6013  -19.6722  -55.4117 H         1 UNK         0.0800 
    246 H246        0.5671  -18.7272  -54.7136 H         1 UNK         0.0800 
    247 H247        0.6972  -20.3265  -54.0125 H         1 UNK         0.0800 
@<TRIPOS>BOND
     1    1    2 1    
     2    1  127 1    
     3    1  128 1    
     4    1  129 1    
     5    2    3 2    
     6    2    4 am   BACKBONE|DICT|INTERRES
     7    4    5 1    
     8    4  130 1    
     9    5    6 1    
    10    5   65 1    
    11    5  131 1    
    12    6    7 1    
    13    6  132 1    
    14    6  133 1    
    15    7    8 1    
    16    8    9 1    
    17    8  134 1    
    18    8  135 1    
    19    9   10 ar   
    20    9   14 ar   
    21   10   11 ar   
    22   10  136 1    
    23   11   12 ar   
    24   11  126 1    
    25   12   13 ar   
    26   12  137 1    
    27   13   14 ar   
    28   13   15 1    
    29   14  138 1    
    30   15   16 1    
    31   15  139 1    
    32   15  140 1    
    33   16   17 1    
    34   17   18 1    
    35   17  141 1    
    36   17  142 1    
    37   18   19 1    
    38   18   67 1    
    39   18  143 1    
    40   19   20 am   BACKBONE|DICT|INTERRES
    41   19  144 1    
    42   20   21 2    
    43   20   22 1    
    44   22   23 1    
    45   22   24 1    
    46   22  145 1    
    47   23  146 1    
    48   23  147 1    
    49   23  148 1    
    50   24   25 am   BACKBONE|DICT|INTERRES
    51   24  149 1    
    52   25   26 2    
    53   25   27 1    
    54   27   28 1    
    55   27   29 1    
    56   27  150 1    
    57   28  151 1    
    58   28  152 1    
    59   28  153 1    
    60   29   30 am   BACKBONE|DICT|INTERRES
    61   29  154 1    
    62   30   31 2    
    63   30   32 1    
    64   32   33 1    
    65   32   34 1    
    66   32  155 1    
    67   33  156 1    
    68   33  157 1    
    69   33  158 1    
    70   34   35 am   BACKBONE|DICT|INTERRES
    71   34  159 1    
    72   35   36 2    
    73   35   37 1    
    74   37   38 1    
    75   37   39 1    
    76   37  160 1    
    77   38  161 1    
    78   38  162 1    
    79   38  163 1    
    80   39   40 am   BACKBONE|DICT|INTERRES
    81   39  164 1    
    82   40   41 2    
    83   40   42 1    
    84   42   43 1    
    85   42   44 1    
    86   42  165 1    
    87   43  166 1    
    88   43  167 1    
    89   43  168 1    
    90   44   45 am   BACKBONE|DICT|INTERRES
    91   44  169 1    
    92   45   46 2    
    93   45   47 1    
    94   47   48 1    
    95   47   49 1    
    96   47  170 1    
    97   48  171 1    
    98   48  172 1    
    99   48  173 1    
   100   49   50 am   BACKBONE|DICT|INTERRES
   101   49  174 1    
   102   50   51 2    
   103   50   52 1    
   104   52   53 1    
   105   52   54 1    
   106   52  175 1    
   107   53  176 1    
   108   53  177 1    
   109   53  178 1    
   110   54   55 am   BACKBONE|DICT|INTERRES
   111   54  179 1    
   112   55   56 2    
   113   55   57 1    
   114   57   58 1    
   115   57   59 1    
   116   57  180 1    
   117   58  181 1    
   118   58  182 1    
   119   58  183 1    
   120   59   60 am   BACKBONE|DICT|INTERRES
   121   59  184 1    
   122   60   61 2    
   123   60   62 1    
   124   62   63 1    
   125   62   64 1    
   126   62  185 1    
   127   63  186 1    
   128   63  187 1    
   129   63  188 1    
   130   64   65 am   BACKBONE|DICT|INTERRES
   131   64  189 1    
   132   65   66 2    
   133   67   68 2    
   134   67   69 am   BACKBONE|DICT|INTERRES
   135   69   70 1    
   136   69  190 1    
   137   70   71 1    
   138   70   72 1    
   139   70  191 1    
   140   71  192 1    
   141   71  193 1    
   142   71  194 1    
   143   72   73 2    
   144   72   74 am   BACKBONE|DICT|INTERRES
   145   74   75 1    
   146   74  195 1    
   147   75   76 1    
   148   75   77 1    
   149   75  196 1    
   150   76  197 1    
   151   76  198 1    
   152   76  199 1    
   153   77   78 2    
   154   77   79 am   BACKBONE|DICT|INTERRES
   155   79   80 1    
   156   79  200 1    
   157   80   81 1    
   158   80   82 1    
   159   80  201 1    
   160   81  202 1    
   161   81  203 1    
   162   81  204 1    
   163   82   83 2    
   164   82   84 am   BACKBONE|DICT|INTERRES
   165   84   85 1    
   166   84  205 1    
   167   85   86 1    
   168   85   87 1    
   169   85  206 1    
   170   86  207 1    
   171   86  208 1    
   172   86  209 1    
   173   87   88 2    
   174   87   89 am   BACKBONE|DICT|INTERRES
   175   89   90 1    
   176   89  210 1    
   177   90   91 1    
   178   90   92 1    
   179   90  211 1    
   180   91  212 1    
   181   91  213 1    
   182   91  214 1    
   183   92   93 2    
   184   92   94 am   BACKBONE|DICT|INTERRES
   185   94   95 1    
   186   94  215 1    
   187   95   96 1    
   188   95   97 1    
   189   95  216 1    
   190   96  217 1    
   191   96  218 1    
   192   96  219 1    
   193   97   98 2    
   194   97   99 am   BACKBONE|DICT|INTERRES
   195   99  100 1    
   196   99  220 1    
   197  100  101 1    
   198  100  102 1    
   199  100  221 1    
   200  101  222 1    
   201  101  223 1    
   202  101  224 1    
   203  102  103 2    
   204  102  104 am   BACKBONE|DICT|INTERRES
   205  104  105 1    
   206  104  225 1    
   207  105  106 1    
   208  105  107 1    
   209  105  226 1    
   210  106  227 1    
   211  106  228 1    
   212  106  229 1    
   213  107  108 2    
   214  107  109 am   BACKBONE|DICT|INTERRES
   215  109  110 1    
   216  109  230 1    
   217  110  111 1    
   218  110  112 1    
   219  110  231 1    
   220  111  232 1    
   221  111  233 1    
   222  111  234 1    
   223  112  113 2    
   224  112  114 am   BACKBONE|DICT|INTERRES
   225  114  115 1    
   226  114  235 1    
   227  115  116 1    
   228  115  117 1    
   229  115  236 1    
   230  116  237 1    
   231  116  238 1    
   232  116  239 1    
   233  117  118 2    
   234  117  119 am   BACKBONE|DICT|INTERRES
   235  119  120 1    
   236  119  240 1    
   237  120  121 1    
   238  120  124 1    
   239  120  241 1    
   240  121  122 am   BACKBONE|DICT|INTERRES
   241  121  123 2    
   242  122  242 1    
   243  122  243 1    
   244  124  125 1    
   245  124  244 1    
   246  124  245 1    
   247  125  126 1    
   248  126  246 1    
   249  126  247 1    
@<TRIPOS>SUBSTRUCTURE
     1 UNK         1 GROUP             0       ****    0 ROOT    
