@<TRIPOS>MOLECULE
3R540
247   249    1
SMALL
USER_CHARGES


@<TRIPOS>ATOM
      1 CA          4.5209  -17.1825  -47.5652 C.3       0 UNK        -0.1800 
      2 C           3.6753  -16.0250  -47.0566 C.2       0 UNK         0.5000 
      3 O           3.5113  -15.8697  -45.8476 O.2       0 UNK        -0.5000 
      4 N           3.1451  -15.2048  -47.9715 N.am      1 UNK        -0.5000 
      5 CA          2.3043  -14.0384  -47.6766 C.3       1 UNK         0.1400 
      6 C6          1.3251  -13.7154  -48.8336 C.3       23 UNK        -0.0398 
      7 S7          0.1378  -15.0730  -49.1008 S.3       23 UNK        -0.2404 
      8 C8          0.7195  -15.7730  -50.6752 C.3       23 UNK        -0.0205 
      9 C9          0.3419  -17.2406  -50.7738 C.ar      23 UNK        -0.0193 
     10 C10        -0.9668  -17.6135  -51.0894 C.ar      23 UNK        -0.1150 
     11 C11        -1.3344  -18.9627  -51.1303 C.ar      23 UNK        -0.0193 
     12 C12        -0.3675  -19.9411  -50.8754 C.ar      23 UNK        -0.1150 
     13 C13         0.9519  -19.5815  -50.5783 C.ar      23 UNK        -0.0193 
     14 C14         1.2991  -18.2283  -50.5321 C.ar      23 UNK        -0.1150 
     15 C15         2.0002  -20.6615  -50.3364 C.3       23 UNK        -0.0205 
     16 S16         3.0323  -20.3948  -48.8525 S.3       23 UNK        -0.2404 
     17 C17         1.8082  -20.1676  -47.5177 C.3       23 UNK        -0.0398 
     18 CA          1.3236  -21.5031  -46.9006 C.3       11 UNK         0.1400 
     19 N           1.0023  -21.3776  -45.4767 N.am      11 UNK        -0.5000 
     20 C           0.6808  -22.4016  -44.6722 C.2       10 UNK         0.5000 
     21 O           0.6858  -23.5804  -45.0270 O.2       10 UNK        -0.5000 
     22 CA          0.2230  -22.0465  -43.2466 C.3       10 UNK         0.1400 
     23 CB          1.4298  -21.8062  -42.3279 C.3       10 UNK        -0.1800 
     24 N          -0.6675  -20.8846  -43.2175 N.am      10 UNK        -0.5000 
     25 C          -1.8761  -20.8458  -43.7981 C.2       9 UNK         0.5000 
     26 O          -2.3896  -21.8087  -44.3668 O.2       9 UNK        -0.5000 
     27 CA         -2.6179  -19.4971  -43.7855 C.3       9 UNK         0.1400 
     28 CB         -3.3079  -19.2644  -42.4337 C.3       9 UNK        -0.1800 
     29 N          -1.7435  -18.3653  -44.0924 N.am      9 UNK        -0.5000 
     30 C          -1.0886  -18.1941  -45.2503 C.2       8 UNK         0.5000 
     31 O          -1.1738  -18.9620  -46.2078 O.2       8 UNK        -0.5000 
     32 CA         -0.1312  -16.9921  -45.3241 C.3       8 UNK         0.1400 
     33 CB         -0.9067  -15.6884  -45.5689 C.3       8 UNK        -0.1800 
     34 N           0.6752  -16.8686  -44.1096 N.am      8 UNK        -0.5000 
     35 C           1.5845  -17.7697  -43.7093 C.2       7 UNK         0.5000 
     36 O           1.8647  -18.7888  -44.3405 O.2       7 UNK        -0.5000 
     37 CA          2.2390  -17.5246  -42.3391 C.3       7 UNK         0.1400 
     38 CB          3.3943  -16.5204  -42.4517 C.3       7 UNK        -0.1800 
     39 N           1.2682  -17.0560  -41.3487 N.am      7 UNK        -0.5000 
     40 C           0.3024  -17.8296  -40.8284 C.2       6 UNK         0.5000 
     41 O           0.1616  -19.0193  -41.1081 O.2       6 UNK        -0.5000 
     42 CA         -0.7023  -17.1633  -39.8677 C.3       6 UNK         0.1400 
     43 CB         -0.1907  -17.2343  -38.4214 C.3       6 UNK        -0.1800 
     44 N          -0.9891  -15.7702  -40.2062 N.am      6 UNK        -0.5000 
     45 C          -1.5168  -15.3502  -41.3645 C.2       5 UNK         0.5000 
     46 O          -1.9073  -16.1129  -42.2480 O.2       5 UNK        -0.5000 
     47 CA         -1.5734  -13.8266  -41.5975 C.3       5 UNK         0.1400 
     48 CB         -2.9957  -13.3009  -41.3546 C.3       5 UNK        -0.1800 
     49 N          -0.6293  -13.0542  -40.7790 N.am      5 UNK        -0.5000 
     50 C           0.7054  -13.1711  -40.8189 C.2       4 UNK         0.5000 
     51 O           1.2973  -13.9874  -41.5281 O.2       4 UNK        -0.5000 
     52 CA          1.4945  -12.2857  -39.8368 C.3       4 UNK         0.1400 
     53 CB          1.6631  -13.0120  -38.4927 C.3       4 UNK        -0.1800 
     54 N           2.8183  -11.9285  -40.3459 N.am      4 UNK        -0.5000 
     55 C           3.0478  -11.1015  -41.3737 C.2       3 UNK         0.5000 
     56 O           2.1526  -10.5085  -41.9808 O.2       3 UNK        -0.5000 
     57 CA          4.5183  -10.8539  -41.7817 C.3       3 UNK         0.1400 
     58 CB          5.5540  -11.7110  -41.0162 C.3       3 UNK        -0.1800 
     59 N           4.7007  -10.9738  -43.2325 N.am      3 UNK        -0.5000 
     60 C           4.5035  -12.0743  -43.9704 C.2       2 UNK         0.5000 
     61 O           4.2303  -13.1821  -43.5034 O.2       2 UNK        -0.5000 
     62 CA          4.6475  -11.9111  -45.4896 C.3       2 UNK         0.1400 
     63 CB          6.1142  -12.0484  -45.9307 C.3       2 UNK        -0.1800 
     64 N           3.8461  -12.9437  -46.1328 N.am      2 UNK        -0.5000 
     65 C           3.1752  -12.8270  -47.2806 C.2       1 UNK         0.5000 
     66 O           3.2343  -11.8334  -48.0076 O.2       1 UNK        -0.5000 
     67 C           0.1387  -22.0882  -47.6928 C.2       11 UNK         0.5000 
     68 O           0.3201  -23.0635  -48.4199 O.2       11 UNK        -0.5000 
     69 N          -1.0582  -21.5157  -47.4998 N.am      12 UNK        -0.5000 
     70 CA         -2.3057  -21.9607  -48.1197 C.3       12 UNK         0.1400 
     71 CB         -3.4401  -20.9991  -47.7412 C.3       12 UNK        -0.1800 
     72 C          -2.6749  -23.4085  -47.7547 C.2       12 UNK         0.5000 
     73 O          -3.0960  -24.1600  -48.6328 O.2       12 UNK        -0.5000 
     74 N          -2.4784  -23.7881  -46.4852 N.am      13 UNK        -0.5000 
     75 CA         -2.6731  -25.1512  -45.9930 C.3       13 UNK         0.1400 
     76 CB         -2.5724  -25.1669  -44.4602 C.3       13 UNK        -0.1800 
     77 C          -1.6874  -26.1548  -46.6200 C.2       13 UNK         0.5000 
     78 O          -2.1076  -27.2375  -47.0288 O.2       13 UNK        -0.5000 
     79 N          -0.4059  -25.7713  -46.7071 N.am      14 UNK        -0.5000 
     80 CA          0.6634  -26.5768  -47.2994 C.3       14 UNK         0.1400 
     81 CB          2.0244  -25.9516  -46.9564 C.3       14 UNK        -0.1800 
     82 C           0.5135  -26.7527  -48.8219 C.2       14 UNK         0.5000 
     83 O           0.7101  -27.8578  -49.3289 O.2       14 UNK        -0.5000 
     84 N           0.1617  -25.6659  -49.5206 N.am      15 UNK        -0.5000 
     85 CA         -0.0286  -25.6315  -50.9720 C.3       15 UNK         0.1400 
     86 CB          0.0837  -24.1759  -51.4500 C.3       15 UNK        -0.1800 
     87 C          -1.3621  -26.2452  -51.4403 C.2       15 UNK         0.5000 
     88 O          -1.4946  -26.5352  -52.6300 O.2       15 UNK        -0.5000 
     89 N          -2.3161  -26.4175  -50.5122 N.am      16 UNK        -0.5000 
     90 CA         -3.7113  -26.8120  -50.7317 C.3       16 UNK         0.1400 
     91 CB         -3.8145  -28.2397  -51.3085 C.3       16 UNK        -0.1800 
     92 C          -4.4541  -25.7485  -51.5658 C.2       16 UNK         0.5000 
     93 O          -4.9842  -26.0433  -52.6390 O.2       16 UNK        -0.5000 
     94 N          -4.4375  -24.5161  -51.0414 N.am      17 UNK        -0.5000 
     95 CA         -4.9094  -23.2718  -51.6457 C.3       17 UNK         0.1400 
     96 CB         -6.4367  -23.3031  -51.8825 C.3       17 UNK        -0.1800 
     97 C          -4.0660  -22.8966  -52.8821 C.2       17 UNK         0.5000 
     98 O          -2.8373  -22.9183  -52.7978 O.2       17 UNK        -0.5000 
     99 N          -4.7229  -22.5291  -53.9851 N.am      18 UNK        -0.5000 
    100 CA        -4.1324  -22.1289  -55.2573 C.3       18 UNK         0.1400 
    101 CB        -3.5251  -20.7159  -55.1389 C.3       18 UNK        -0.1800 
    102 C         -5.2345  -22.1743  -56.3269 C.2       18 UNK         0.5000 
    103 O         -6.4046  -22.3775  -55.9897 O.2       18 UNK        -0.5000 
    104 N         -4.8635  -21.9357  -57.5920 N.am      19 UNK        -0.5000 
    105 CA        -5.7848  -21.8642  -58.7351 C.3       19 UNK         0.1400 
    106 CB        -4.9698  -21.7309  -60.0305 C.3       19 UNK        -0.1800 
    107 C         -6.8202  -20.7233  -58.6287 C.2       19 UNK         0.5000 
    108 O         -7.9281  -20.8540  -59.1490 O.2       19 UNK        -0.5000 
    109 N         -6.4516  -19.6476  -57.9198 N.am      20 UNK        -0.5000 
    110 CA        -7.3119  -18.5131  -57.5731 C.3       20 UNK         0.1400 
    111 CB        -6.4473  -17.2400  -57.5601 C.3       20 UNK        -0.1800 
    112 C         -8.0370  -18.7106  -56.2217 C.2       20 UNK         0.5000 
    113 O         -8.5281  -17.7355  -55.6497 O.2       20 UNK        -0.5000 
    114 N         -8.0409  -19.9472  -55.6955 N.am      21 UNK        -0.5000 
    115 CA        -8.6072  -20.3813  -54.4097 C.3       21 UNK         0.1400 
    116 CB       -10.1408  -20.2151  -54.4037 C.3       21 UNK        -0.1800 
    117 C         -7.9389  -19.7264  -53.1808 C.2       21 UNK         0.5000 
    118 O         -8.5097  -19.7485  -52.0898 O.2       21 UNK        -0.5000 
    119 N         -6.7427  -19.1550  -53.3815 N.am      22 UNK        -0.5000 
    120 CA        -6.0129  -18.3152  -52.4194 C.3       22 UNK         0.1400 
    121 C         -6.7234  -16.9590  -52.1000 C.2       22 UNK         0.5000 
    122 N         -7.6191  -16.4696  -52.9524 N.am      22 UNK        -0.7600 
    123 O         -6.4525  -16.3234  -51.0855 O.2       22 UNK        -0.5000 
    124 C124       -5.5597  -19.1209  -51.1670 C.3       23 UNK        -0.0398 
    125 S125       -3.9987  -18.5174  -50.4416 S.3       23 UNK        -0.2404 
    126 C126       -2.7629  -19.3643  -51.4798 C.3       23 UNK        -0.0205 
    127 H127        4.2746  -18.0943  -47.0217 H         1 UNK         0.0600 
    128 H128        5.5785  -16.9698  -47.4110 H         1 UNK         0.0600 
    129 H129        4.3567  -17.3665  -48.6272 H         1 UNK         0.0600 
    130 H130        3.3455  -15.3609  -48.9479 H         1 UNK         0.3000 
    131 H131        1.6945  -14.2692  -46.8013 H         1 UNK         0.0600 
    132 H132        0.7436  -12.8219  -48.5996 H         1 UNK         0.0800 
    133 H133        1.8638  -13.4929  -49.7561 H         1 UNK         0.0800 
    134 H134        1.8011  -15.6609  -50.7602 H         1 UNK         0.0800 
    135 H135        0.2831  -15.2155  -51.5053 H         1 UNK         0.0800 
    136 H136       -1.7064  -16.8490  -51.2825 H         1 UNK         0.1150 
    137 H137       -0.6392  -20.9865  -50.9206 H         1 UNK         0.1150 
    138 H138        2.3152  -17.9448  -50.2973 H         1 UNK         0.1150 
    139 H139        1.5323  -21.6421  -50.2651 H         1 UNK         0.0800 
    140 H140        2.6547  -20.7056  -51.2075 H         1 UNK         0.0800 
    141 H141        0.9815  -19.5368  -47.8486 H         1 UNK         0.0800 
    142 H142        2.3216  -19.5804  -46.7572 H         1 UNK         0.0800 
    143 H143        2.1412  -22.2250  -46.9585 H         1 UNK         0.0600 
    144 H144        1.0164  -20.4395  -45.0884 H         1 UNK         0.3000 
    145 H145       -0.3333  -22.9011  -42.8559 H         1 UNK         0.0600 
    146 H146        1.1137  -21.6470  -41.2970 H         1 UNK         0.0600 
    147 H147        2.1015  -22.6656  -42.3326 H         1 UNK         0.0600 
    148 H148        2.0075  -20.9356  -42.6387 H         1 UNK         0.0600 
    149 H149       -0.3333  -20.0685  -42.7145 H         1 UNK         0.3000 
    150 H150       -3.3887  -19.5353  -44.5579 H         1 UNK         0.0600 
    151 H151       -4.0058  -20.0717  -42.2085 H         1 UNK         0.0600 
    152 H152       -3.8751  -18.3334  -42.4348 H         1 UNK         0.0600 
    153 H153       -2.5877  -19.2163  -41.6173 H         1 UNK         0.0600 
    154 H154       -1.6489  -17.6540  -43.3726 H         1 UNK         0.3000 
    155 H155        0.5483  -17.1490  -46.1651 H         1 UNK         0.0600 
    156 H156       -1.6360  -15.4916  -44.7836 H         1 UNK         0.0600 
    157 H157       -0.2378  -14.8307  -45.6225 H         1 UNK         0.0600 
    158 H158       -1.4522  -15.7364  -46.5120 H         1 UNK         0.0600 
    159 H159        0.4897  -16.0759  -43.5133 H         1 UNK         0.3000 
    160 H160        2.6521  -18.4734  -41.9902 H         1 UNK         0.0600 
    161 H161        3.0528  -15.5553  -42.8267 H         1 UNK         0.0600 
    162 H162        4.1576  -16.8823  -43.1416 H         1 UNK         0.0600 
    163 H163        3.8748  -16.3552  -41.4875 H         1 UNK         0.0600 
    164 H164        1.2914  -16.0674  -41.1252 H         1 UNK         0.3000 
    165 H165       -1.6393  -17.7200  -39.9277 H         1 UNK         0.0600 
    166 H166       -0.9289  -16.8419  -37.7216 H         1 UNK         0.0600 
    167 H167        0.0149  -18.2654  -38.1305 H         1 UNK         0.0600 
    168 H168        0.7313  -16.6661  -38.2918 H         1 UNK         0.0600 
    169 H169       -0.7023  -15.0728  -39.5364 H         1 UNK         0.3000 
    170 H170       -1.3192  -13.6539  -42.6454 H         1 UNK         0.0600 
    171 H171       -3.7206  -13.8356  -41.9701 H         1 UNK         0.0600 
    172 H172       -3.2968  -13.4217  -40.3132 H         1 UNK         0.0600 
    173 H173       -3.0750  -12.2436  -41.6080 H         1 UNK         0.0600 
    174 H174       -1.0389  -12.3768  -40.1515 H         1 UNK         0.3000 
    175 H175        0.9344  -11.3635  -39.6683 H         1 UNK         0.0600 
    176 H176        2.2220  -13.9422  -38.6051 H         1 UNK         0.0600 
    177 H177        2.1910  -12.3887  -37.7707 H         1 UNK         0.0600 
    178 H178        0.6953  -13.2616  -38.0559 H         1 UNK         0.0600 
    179 H179        3.6038  -12.4069  -39.9308 H         1 UNK         0.3000 
    180 H180        4.7212   -9.8101  -41.5382 H         1 UNK         0.0600 
    181 H181        5.3890  -12.7803  -41.1519 H         1 UNK         0.0600 
    182 H182        5.5243  -11.5026  -39.9461 H         1 UNK         0.0600 
    183 H183        6.5665  -11.4895  -41.3536 H         1 UNK         0.0600 
    184 H184        4.9036  -10.1076  -43.7116 H         1 UNK         0.3000 
    185 H185        4.2711  -10.9245  -45.7683 H         1 UNK         0.0600 
    186 H186        6.7388  -11.2899  -45.4574 H         1 UNK         0.0600 
    187 H187        6.5222  -13.0246  -45.6651 H         1 UNK         0.0600 
    188 H188        6.2146  -11.9259  -47.0092 H         1 UNK         0.0600 
    189 H189        3.7452  -13.7988  -45.5908 H         1 UNK         0.3000 
    190 H190       -1.1176  -20.6918  -46.9049 H         1 UNK         0.3000 
    191 H191       -2.1678  -21.9159  -49.2016 H         1 UNK         0.0600 
    192 H192       -3.6624  -21.0357  -46.6747 H         1 UNK         0.0600 
    193 H193       -4.3565  -21.2447  -48.2791 H         1 UNK         0.0600 
    194 H194       -3.1808  -19.9700  -47.9884 H         1 UNK         0.0600 
    195 H195       -2.1890  -23.0914  -45.8042 H         1 UNK         0.3000 
    196 H196       -3.6830  -25.4629  -46.2675 H         1 UNK         0.0600 
    197 H197       -2.7340  -26.1717  -44.0681 H         1 UNK         0.0600 
    198 H198       -3.3230  -24.5170  -44.0101 H         1 UNK         0.0600 
    199 H199       -1.5933  -24.8330  -44.1163 H         1 UNK         0.0600 
    200 H200       -0.1341  -24.8732  -46.3181 H         1 UNK         0.3000 
    201 H201        0.6254  -27.5696  -46.8462 H         1 UNK         0.0600 
    202 H202        2.1758  -25.9067  -45.8778 H         1 UNK         0.0600 
    203 H203        2.1121  -24.9373  -47.3475 H         1 UNK         0.0600 
    204 H204        2.8423  -26.5386  -47.3761 H         1 UNK         0.0600 
    205 H205        0.0751  -24.7758  -49.0324 H         1 UNK         0.3000 
    206 H206        0.7749  -26.2034  -51.4407 H         1 UNK         0.0600 
    207 H207        1.0628  -23.7612  -51.2132 H         1 UNK         0.0600 
    208 H208       -0.0475  -24.1031  -52.5304 H         1 UNK         0.0600 
    209 H209       -0.6746  -23.5434  -50.9862 H         1 UNK         0.0600 
    210 H210       -2.1012  -26.1069  -49.5738 H         1 UNK         0.3000 
    211 H211       -4.1835  -26.8231  -49.7481 H         1 UNK         0.0600 
    212 H212       -3.4103  -28.3072  -52.3186 H         1 UNK         0.0600 
    213 H213       -4.8550  -28.5626  -51.3543 H         1 UNK         0.0600 
    214 H214       -3.2789  -28.9550  -50.6844 H         1 UNK         0.0600 
    215 H215       -3.9315  -24.3975  -50.1638 H         1 UNK         0.3000 
    216 H216       -4.7120  -22.4954  -50.9054 H         1 UNK         0.0600 
    217 H217       -6.8096  -22.3220  -52.1756 H         1 UNK         0.0600 
    218 H218       -6.9653  -23.5821  -50.9710 H         1 UNK         0.0600 
    219 H219       -6.7214  -24.0135  -52.6593 H         1 UNK         0.0600 
    220 H220       -5.7325  -22.6010  -54.0174 H         1 UNK         0.3000 
    221 H221       -3.3574  -22.8461  -55.5347 H         1 UNK         0.0600 
    222 H222       -4.2689  -19.9819  -54.8292 H         1 UNK         0.0600 
    223 H223       -2.7132  -20.6950  -54.4123 H         1 UNK         0.0600 
    224 H224       -3.1046  -20.3799  -56.0871 H         1 UNK         0.0600 
    225 H225       -3.8862  -21.7808  -57.7955 H         1 UNK         0.3000 
    226 H226       -6.3392  -22.8042  -58.7754 H         1 UNK         0.0600 
    227 H227       -4.2955  -22.5774  -60.1617 H         1 UNK         0.0600 
    228 H228       -5.6242  -21.7009  -60.9027 H         1 UNK         0.0600 
    229 H229       -4.3712  -20.8191  -60.0377 H         1 UNK         0.0600 
    230 H230       -5.5159  -19.6313  -57.5420 H         1 UNK         0.3000 
    231 H231       -8.0827  -18.3907  -58.3366 H         1 UNK         0.0600 
    232 H232       -7.0548  -16.3513  -57.3838 H         1 UNK         0.0600 
    233 H233       -5.9423  -17.0974  -58.5156 H         1 UNK         0.0600 
    234 H234       -5.6856  -17.2777  -56.7802 H         1 UNK         0.0600 
    235 H235       -7.5776  -20.6852  -56.2137 H         1 UNK         0.3000 
    236 H236       -8.3949  -21.4482  -54.3305 H         1 UNK         0.0600 
    237 H237      -10.5915  -20.6872  -55.2767 H         1 UNK         0.0600 
    238 H238      -10.5821  -20.6808  -53.5218 H         1 UNK         0.0600 
    239 H239      -10.4358  -19.1655  -54.3992 H         1 UNK         0.0600 
    240 H240       -6.3695  -19.1781  -54.3176 H         1 UNK         0.3000 
    241 H241       -5.1129  -18.0206  -52.9595 H         1 UNK         0.0600 
    242 H242       -7.8692  -16.9649  -53.8004 H         1 UNK         0.3800 
    243 H243       -8.0665  -15.5914  -52.7423 H         1 UNK         0.3800 
    244 H244       -6.3352  -19.1106  -50.3995 H         1 UNK         0.0800 
    245 H245       -5.4166  -20.1703  -51.4238 H         1 UNK         0.0800 
    246 H246       -2.8935  -20.4419  -51.3750 H         1 UNK         0.0800 
    247 H247       -2.9440  -19.1247  -52.5276 H         1 UNK         0.0800 
@<TRIPOS>BOND
     1    1    2 1    
     2    1  127 1    
     3    1  128 1    
     4    1  129 1    
     5    2    3 2    
     6    2    4 am   BACKBONE|DICT|INTERRES
     7    4    5 1    
     8    4  130 1    
     9    5    6 1    
    10    5   65 1    
    11    5  131 1    
    12    6    7 1    
    13    6  132 1    
    14    6  133 1    
    15    7    8 1    
    16    8    9 1    
    17    8  134 1    
    18    8  135 1    
    19    9   10 ar   
    20    9   14 ar   
    21   10   11 ar   
    22   10  136 1    
    23   11   12 ar   
    24   11  126 1    
    25   12   13 ar   
    26   12  137 1    
    27   13   14 ar   
    28   13   15 1    
    29   14  138 1    
    30   15   16 1    
    31   15  139 1    
    32   15  140 1    
    33   16   17 1    
    34   17   18 1    
    35   17  141 1    
    36   17  142 1    
    37   18   19 1    
    38   18   67 1    
    39   18  143 1    
    40   19   20 am   BACKBONE|DICT|INTERRES
    41   19  144 1    
    42   20   21 2    
    43   20   22 1    
    44   22   23 1    
    45   22   24 1    
    46   22  145 1    
    47   23  146 1    
    48   23  147 1    
    49   23  148 1    
    50   24   25 am   BACKBONE|DICT|INTERRES
    51   24  149 1    
    52   25   26 2    
    53   25   27 1    
    54   27   28 1    
    55   27   29 1    
    56   27  150 1    
    57   28  151 1    
    58   28  152 1    
    59   28  153 1    
    60   29   30 am   BACKBONE|DICT|INTERRES
    61   29  154 1    
    62   30   31 2    
    63   30   32 1    
    64   32   33 1    
    65   32   34 1    
    66   32  155 1    
    67   33  156 1    
    68   33  157 1    
    69   33  158 1    
    70   34   35 am   BACKBONE|DICT|INTERRES
    71   34  159 1    
    72   35   36 2    
    73   35   37 1    
    74   37   38 1    
    75   37   39 1    
    76   37  160 1    
    77   38  161 1    
    78   38  162 1    
    79   38  163 1    
    80   39   40 am   BACKBONE|DICT|INTERRES
    81   39  164 1    
    82   40   41 2    
    83   40   42 1    
    84   42   43 1    
    85   42   44 1    
    86   42  165 1    
    87   43  166 1    
    88   43  167 1    
    89   43  168 1    
    90   44   45 am   BACKBONE|DICT|INTERRES
    91   44  169 1    
    92   45   46 2    
    93   45   47 1    
    94   47   48 1    
    95   47   49 1    
    96   47  170 1    
    97   48  171 1    
    98   48  172 1    
    99   48  173 1    
   100   49   50 am   BACKBONE|DICT|INTERRES
   101   49  174 1    
   102   50   51 2    
   103   50   52 1    
   104   52   53 1    
   105   52   54 1    
   106   52  175 1    
   107   53  176 1    
   108   53  177 1    
   109   53  178 1    
   110   54   55 am   BACKBONE|DICT|INTERRES
   111   54  179 1    
   112   55   56 2    
   113   55   57 1    
   114   57   58 1    
   115   57   59 1    
   116   57  180 1    
   117   58  181 1    
   118   58  182 1    
   119   58  183 1    
   120   59   60 am   BACKBONE|DICT|INTERRES
   121   59  184 1    
   122   60   61 2    
   123   60   62 1    
   124   62   63 1    
   125   62   64 1    
   126   62  185 1    
   127   63  186 1    
   128   63  187 1    
   129   63  188 1    
   130   64   65 am   BACKBONE|DICT|INTERRES
   131   64  189 1    
   132   65   66 2    
   133   67   68 2    
   134   67   69 am   BACKBONE|DICT|INTERRES
   135   69   70 1    
   136   69  190 1    
   137   70   71 1    
   138   70   72 1    
   139   70  191 1    
   140   71  192 1    
   141   71  193 1    
   142   71  194 1    
   143   72   73 2    
   144   72   74 am   BACKBONE|DICT|INTERRES
   145   74   75 1    
   146   74  195 1    
   147   75   76 1    
   148   75   77 1    
   149   75  196 1    
   150   76  197 1    
   151   76  198 1    
   152   76  199 1    
   153   77   78 2    
   154   77   79 am   BACKBONE|DICT|INTERRES
   155   79   80 1    
   156   79  200 1    
   157   80   81 1    
   158   80   82 1    
   159   80  201 1    
   160   81  202 1    
   161   81  203 1    
   162   81  204 1    
   163   82   83 2    
   164   82   84 am   BACKBONE|DICT|INTERRES
   165   84   85 1    
   166   84  205 1    
   167   85   86 1    
   168   85   87 1    
   169   85  206 1    
   170   86  207 1    
   171   86  208 1    
   172   86  209 1    
   173   87   88 2    
   174   87   89 am   BACKBONE|DICT|INTERRES
   175   89   90 1    
   176   89  210 1    
   177   90   91 1    
   178   90   92 1    
   179   90  211 1    
   180   91  212 1    
   181   91  213 1    
   182   91  214 1    
   183   92   93 2    
   184   92   94 am   BACKBONE|DICT|INTERRES
   185   94   95 1    
   186   94  215 1    
   187   95   96 1    
   188   95   97 1    
   189   95  216 1    
   190   96  217 1    
   191   96  218 1    
   192   96  219 1    
   193   97   98 2    
   194   97   99 am   BACKBONE|DICT|INTERRES
   195   99  100 1    
   196   99  220 1    
   197  100  101 1    
   198  100  102 1    
   199  100  221 1    
   200  101  222 1    
   201  101  223 1    
   202  101  224 1    
   203  102  103 2    
   204  102  104 am   BACKBONE|DICT|INTERRES
   205  104  105 1    
   206  104  225 1    
   207  105  106 1    
   208  105  107 1    
   209  105  226 1    
   210  106  227 1    
   211  106  228 1    
   212  106  229 1    
   213  107  108 2    
   214  107  109 am   BACKBONE|DICT|INTERRES
   215  109  110 1    
   216  109  230 1    
   217  110  111 1    
   218  110  112 1    
   219  110  231 1    
   220  111  232 1    
   221  111  233 1    
   222  111  234 1    
   223  112  113 2    
   224  112  114 am   BACKBONE|DICT|INTERRES
   225  114  115 1    
   226  114  235 1    
   227  115  116 1    
   228  115  117 1    
   229  115  236 1    
   230  116  237 1    
   231  116  238 1    
   232  116  239 1    
   233  117  118 2    
   234  117  119 am   BACKBONE|DICT|INTERRES
   235  119  120 1    
   236  119  240 1    
   237  120  121 1    
   238  120  124 1    
   239  120  241 1    
   240  121  122 am   BACKBONE|DICT|INTERRES
   241  121  123 2    
   242  122  242 1    
   243  122  243 1    
   244  124  125 1    
   245  124  244 1    
   246  124  245 1    
   247  125  126 1    
   248  126  246 1    
   249  126  247 1    
@<TRIPOS>SUBSTRUCTURE
     1 UNK         1 GROUP             0       ****    0 ROOT    
