@<TRIPOS>MOLECULE
3R540
247   249    1
SMALL
USER_CHARGES


@<TRIPOS>ATOM
      1 CA          3.3068  -17.0782  -47.2863 C.3       0 UNK        -0.1800 
      2 C           2.7063  -15.8722  -47.9921 C.2       0 UNK         0.5000 
      3 O           3.4194  -14.9105  -48.2795 O.2       0 UNK        -0.5000 
      4 N           1.3989  -15.9226  -48.2740 N.am      1 UNK        -0.5000 
      5 CA          0.6268  -14.9008  -48.9868 C.3       1 UNK         0.1400 
      6 C6          1.0199  -14.8136  -50.4914 C.3       23 UNK        -0.0398 
      7 S7         -0.3593  -14.1956  -51.5160 S.3       23 UNK        -0.2404 
      8 C8         -0.9257  -15.7151  -52.3491 C.3       23 UNK        -0.0205 
      9 C9         -1.3504  -16.7915  -51.3612 C.ar      23 UNK        -0.0193 
     10 C10        -2.5969  -16.7212  -50.7299 C.ar      23 UNK        -0.1150 
     11 C11        -2.9893  -17.7153  -49.8284 C.ar      23 UNK        -0.0193 
     12 C12        -2.1299  -18.7846  -49.5723 C.ar      23 UNK        -0.1150 
     13 C13        -0.8790  -18.8601  -50.1851 C.ar      23 UNK        -0.0193 
     14 C14        -0.4939  -17.8619  -51.0816 C.ar      23 UNK        -0.1150 
     15 C15         0.0351  -20.0334  -49.8841 C.3       23 UNK        -0.0205 
     16 S16         0.7121  -19.9003  -48.2037 S.3       23 UNK        -0.2404 
     17 C17         1.3692  -21.5769  -47.9382 C.3       23 UNK        -0.0398 
     18 CA          0.4615  -22.5307  -47.1207 C.3       11 UNK         0.1400 
     19 N           0.2055  -22.0941  -45.7416 N.am      11 UNK        -0.5000 
     20 C          -0.1732  -22.9442  -44.7735 C.2       10 UNK         0.5000 
     21 O          -0.3457  -24.1485  -44.9618 O.2       10 UNK        -0.5000 
     22 CA         -0.4387  -22.3718  -43.3706 C.3       10 UNK         0.1400 
     23 CB          0.8735  -22.0199  -42.6539 C.3       10 UNK        -0.1800 
     24 N          -1.3353  -21.2186  -43.3846 N.am      10 UNK        -0.5000 
     25 C          -2.6138  -21.2581  -43.7866 C.2       9 UNK         0.5000 
     26 O          -3.1778  -22.2801  -44.1771 O.2       9 UNK        -0.5000 
     27 CA         -3.3825  -19.9238  -43.7952 C.3       9 UNK         0.1400 
     28 CB         -3.9026  -19.5812  -42.3914 C.3       9 UNK        -0.1800 
     29 N          -2.5820  -18.8134  -44.3113 N.am      9 UNK        -0.5000 
     30 C          -2.0715  -18.7696  -45.5498 C.2       8 UNK         0.5000 
     31 O          -2.2654  -19.6417  -46.3932 O.2       8 UNK        -0.5000 
     32 CA         -1.1462  -17.5866  -45.8805 C.3       8 UNK         0.1400 
     33 CB         -1.9581  -16.3091  -46.1329 C.3       8 UNK        -0.1800 
     34 N          -0.1520  -17.3481  -44.8334 N.am      8 UNK        -0.5000 
     35 C           0.7649  -18.2398  -44.4265 C.2       7 UNK         0.5000 
     36 O           0.9281  -19.3459  -44.9395 O.2       7 UNK        -0.5000 
     37 CA          1.6025  -17.8548  -43.1963 C.3       7 UNK         0.1400 
     38 CB          2.7697  -16.9319  -43.5787 C.3       7 UNK        -0.1800 
     39 N           0.7805  -17.2263  -42.1625 N.am      7 UNK        -0.5000 
     40 C          -0.1387  -17.8781  -41.4350 C.2       6 UNK         0.5000 
     41 O          -0.3551  -19.0856  -41.5308 O.2       6 UNK        -0.5000 
     42 CA         -0.9830  -17.0315  -40.4651 C.3       6 UNK         0.1400 
     43 CB         -0.2475  -16.8436  -39.1300 C.3       6 UNK        -0.1800 
     44 N          -1.3236  -15.7210  -41.0192 N.am      6 UNK        -0.5000 
     45 C          -2.1398  -15.5290  -42.0656 C.2       5 UNK         0.5000 
     46 O          -2.7409  -16.4371  -42.6377 O.2       5 UNK        -0.5000 
     47 CA         -2.2572  -14.0855  -42.5919 C.3       5 UNK         0.1400 
     48 CB         -3.3620  -13.3247  -41.8443 C.3       5 UNK        -0.1800 
     49 N          -0.9970  -13.3419  -42.4915 N.am      5 UNK        -0.5000 
     50 C           0.1186  -13.6653  -43.1575 C.2       4 UNK         0.5000 
     51 O           0.1955  -14.6118  -43.9443 O.2       4 UNK        -0.5000 
     52 CA          1.3754  -12.8523  -42.8316 C.3       4 UNK         0.1400 
     53 CB          2.0861  -13.4697  -41.6087 C.3       4 UNK        -0.1800 
     54 N           2.2400  -12.8603  -44.0073 N.am      4 UNK        -0.5000 
     55 C           3.3854  -12.1855  -44.1579 C.2       3 UNK         0.5000 
     56 O           3.8835  -11.4663  -43.2907 O.2       3 UNK        -0.5000 
     57 CA          4.0836  -12.3144  -45.5252 C.3       3 UNK         0.1400 
     58 CB          4.8723  -13.6306  -45.6000 C.3       3 UNK        -0.1800 
     59 N           3.1633  -12.2246  -46.6637 N.am      3 UNK        -0.5000 
     60 C           2.4060  -11.1523  -46.9499 C.2       2 UNK         0.5000 
     61 O           2.4101  -10.1206  -46.2768 O.2       2 UNK        -0.5000 
     62 CA          1.5039  -11.2102  -48.2006 C.3       2 UNK         0.1400 
     63 CB          2.0367  -10.2700  -49.2939 C.3       2 UNK        -0.1800 
     64 N           1.3541  -12.5466  -48.7741 N.am      2 UNK        -0.5000 
     65 C           0.6511  -13.5488  -48.2311 C.2       1 UNK         0.5000 
     66 O           0.0506  -13.4423  -47.1622 O.2       1 UNK        -0.5000 
     67 C          -0.8264  -22.9439  -47.8664 C.2       11 UNK         0.5000 
     68 O          -0.7648  -23.8537  -48.6928 O.2       11 UNK        -0.5000 
     69 N          -1.9741  -22.3279  -47.5398 N.am      12 UNK        -0.5000 
     70 CA         -3.2900  -22.7472  -48.0302 C.3       12 UNK         0.1400 
     71 CB         -4.3612  -21.7134  -47.6478 C.3       12 UNK        -0.1800 
     72 C          -3.6865  -24.1451  -47.5187 C.2       12 UNK         0.5000 
     73 O          -4.1734  -24.9592  -48.3035 O.2       12 UNK        -0.5000 
     74 N          -3.4536  -24.4042  -46.2234 N.am      13 UNK        -0.5000 
     75 CA         -3.7167  -25.6898  -45.5751 C.3       13 UNK         0.1400 
     76 CB         -3.6312  -25.5266  -44.0499 C.3       13 UNK        -0.1800 
     77 C          -2.7737  -26.8069  -46.0570 C.2       13 UNK         0.5000 
     78 O          -3.2317  -27.9264  -46.2901 O.2       13 UNK        -0.5000 
     79 N          -1.4808  -26.4855  -46.2051 N.am      14 UNK        -0.5000 
     80 CA         -0.4507  -27.4018  -46.7002 C.3       14 UNK         0.1400 
     81 CB          0.9360  -26.8046  -46.4178 C.3       14 UNK        -0.1800 
     82 C          -0.5947  -27.7289  -48.1989 C.2       14 UNK         0.5000 
     83 O          -0.2073  -28.8222  -48.6145 O.2       14 UNK        -0.5000 
     84 N          -1.1454  -26.7789  -48.9685 N.am      15 UNK        -0.5000 
     85 CA         -1.3003  -26.7855  -50.4239 C.3       15 UNK         0.1400 
     86 CB         -2.2271  -27.9338  -50.8817 C.3       15 UNK        -0.1800 
     87 C           0.0626  -26.7519  -51.1497 C.2       15 UNK         0.5000 
     88 O           1.0528  -26.2953  -50.5728 O.2       15 UNK        -0.5000 
     89 N           0.0806  -27.1711  -52.4238 N.am      16 UNK        -0.5000 
     90 CA          1.2042  -27.1973  -53.3772 C.3       16 UNK         0.1400 
     91 CB          2.3637  -28.0713  -52.8614 C.3       16 UNK        -0.1800 
     92 C           1.7083  -25.8079  -53.8259 C.2       16 UNK         0.5000 
     93 O           2.0772  -25.6477  -54.9905 O.2       16 UNK        -0.5000 
     94 N           1.6957  -24.8286  -52.9155 N.am      17 UNK        -0.5000 
     95 CA          1.9512  -23.4122  -53.1629 C.3       17 UNK         0.1400 
     96 CB          2.0363  -22.6952  -51.8059 C.3       17 UNK        -0.1800 
     97 C           0.8566  -22.7687  -54.0366 C.2       17 UNK         0.5000 
     98 O          -0.2673  -23.2758  -54.1047 O.2       17 UNK        -0.5000 
     99 N           1.1941  -21.6330  -54.6590 N.am      18 UNK        -0.5000 
    100 CA         0.3062  -20.8249  -55.4979 C.3       18 UNK         0.1400 
    101 CB         1.1684  -19.9389  -56.4153 C.3       18 UNK        -0.1800 
    102 C         -0.6977  -20.0082  -54.6554 C.2       18 UNK         0.5000 
    103 O         -0.6336  -18.7776  -54.6292 O.2       18 UNK        -0.5000 
    104 N         -1.5893  -20.7190  -53.9560 N.am      19 UNK        -0.5000 
    105 CA        -2.6587  -20.1591  -53.1347 C.3       19 UNK         0.1400 
    106 CB        -3.2677  -21.2747  -52.2708 C.3       19 UNK        -0.1800 
    107 C         -3.7363  -19.4492  -53.9732 C.2       19 UNK         0.5000 
    108 O         -3.9998  -19.8440  -55.1126 O.2       19 UNK        -0.5000 
    109 N         -4.3448  -18.4222  -53.3734 N.am      20 UNK        -0.5000 
    110 CA        -5.4585  -17.6559  -53.9270 C.3       20 UNK         0.1400 
    111 CB        -5.3216  -16.2018  -53.4323 C.3       20 UNK        -0.1800 
    112 C         -6.8066  -18.2970  -53.5291 C.2       20 UNK         0.5000 
    113 O         -6.8632  -19.4932  -53.2328 O.2       20 UNK        -0.5000 
    114 N         -7.8768  -17.4896  -53.5058 N.am      21 UNK        -0.5000 
    115 CA        -9.1697  -17.8631  -52.9220 C.3       21 UNK         0.1400 
    116 CB       -10.2304  -16.8282  -53.3277 C.3       21 UNK        -0.1800 
    117 C         -9.0911  -17.9940  -51.3862 C.2       21 UNK         0.5000 
    118 O         -9.7422  -18.8706  -50.8160 O.2       21 UNK        -0.5000 
    119 N         -8.2598  -17.1418  -50.7683 N.am      22 UNK        -0.5000 
    120 CA        -7.9047  -17.1287  -49.3394 C.3       22 UNK         0.1400 
    121 C         -9.1168  -16.8477  -48.3945 C.2       22 UNK         0.5000 
    122 N         -9.0394  -17.1880  -47.1138 N.am      22 UNK        -0.7600 
    123 O        -10.1203  -16.2624  -48.7974 O.2       22 UNK        -0.5000 
    124 C124       -7.0470  -18.3632  -48.9271 C.3       23 UNK        -0.0398 
    125 S125       -5.5853  -18.6165  -49.9949 S.3       23 UNK        -0.2404 
    126 C126       -4.3308  -17.6401  -49.1191 C.3       23 UNK        -0.0205 
    127 H127        2.5385  -17.7016  -46.8293 H         1 UNK         0.0600 
    128 H128        3.9951  -16.7560  -46.5059 H         1 UNK         0.0600 
    129 H129        3.8619  -17.6885  -47.9984 H         1 UNK         0.0600 
    130 H130        0.8750  -16.7411  -48.0005 H         1 UNK         0.3000 
    131 H131       -0.4046  -15.2537  -48.9318 H         1 UNK         0.0600 
    132 H132        1.9081  -14.2049  -50.6619 H         1 UNK         0.0800 
    133 H133        1.3051  -15.7988  -50.8579 H         1 UNK         0.0800 
    134 H134       -0.1350  -16.0863  -53.0034 H         1 UNK         0.0800 
    135 H135       -1.7657  -15.4706  -53.0007 H         1 UNK         0.0800 
    136 H136       -3.2559  -15.8898  -50.9370 H         1 UNK         0.1150 
    137 H137       -2.4276  -19.5629  -48.8875 H         1 UNK         0.1150 
    138 H138        0.4676  -17.9245  -51.5712 H         1 UNK         0.1150 
    139 H139       -0.5304  -20.9594  -49.9920 H         1 UNK         0.0800 
    140 H140        0.8553  -20.0808  -50.6012 H         1 UNK         0.0800 
    141 H141        2.3222  -21.4673  -47.4191 H         1 UNK         0.0800 
    142 H142        1.6177  -22.0248  -48.9012 H         1 UNK         0.0800 
    143 H143        1.0419  -23.4519  -47.0365 H         1 UNK         0.0600 
    144 H144        0.3325  -21.1060  -45.5335 H         1 UNK         0.3000 
    145 H145       -0.9299  -23.1547  -42.7889 H         1 UNK         0.0600 
    146 H146        0.6881  -21.6973  -41.6294 H         1 UNK         0.0600 
    147 H147        1.5350  -22.8858  -42.6069 H         1 UNK         0.0600 
    148 H148        1.4148  -21.2231  -43.1623 H         1 UNK         0.0600 
    149 H149       -0.9549  -20.3422  -43.0442 H         1 UNK         0.3000 
    150 H150       -4.2439  -20.0435  -44.4554 H         1 UNK         0.0600 
    151 H151       -4.5208  -20.3883  -41.9966 H         1 UNK         0.0600 
    152 H152       -4.5152  -18.6797  -42.4077 H         1 UNK         0.0600 
    153 H153       -3.0864  -19.4176  -41.6877 H         1 UNK         0.0600 
    154 H154       -2.4229  -18.0312  -43.6826 H         1 UNK         0.3000 
    155 H155       -0.6089  -17.8230  -46.7979 H         1 UNK         0.0600 
    156 H156       -2.5853  -16.0488  -45.2811 H         1 UNK         0.0600 
    157 H157       -2.6106  -16.4272  -46.9976 H         1 UNK         0.0600 
    158 H158       -1.3046  -15.4626  -46.3328 H         1 UNK         0.0600 
    159 H159       -0.1737  -16.4358  -44.3859 H         1 UNK         0.3000 
    160 H160        2.0254  -18.7712  -42.7790 H         1 UNK         0.0600 
    161 H161        2.4303  -16.0184  -44.0668 H         1 UNK         0.0600 
    162 H162        3.4474  -17.4386  -44.2656 H         1 UNK         0.0600 
    163 H163        3.3541  -16.6497  -42.7031 H         1 UNK         0.0600 
    164 H164        0.8591  -16.2262  -42.0637 H         1 UNK         0.3000 
    165 H165       -1.9119  -17.5722  -40.2713 H         1 UNK         0.0600 
    166 H166       -0.8670  -16.3076  -38.4107 H         1 UNK         0.0600 
    167 H167        0.0049  -17.8072  -38.6853 H         1 UNK         0.0600 
    168 H168        0.6817  -16.2861  -39.2549 H         1 UNK         0.0600 
    169 H169       -0.8791  -14.9175  -40.6011 H         1 UNK         0.3000 
    170 H170       -2.5330  -14.1391  -43.6471 H         1 UNK         0.0600 
    171 H171       -4.3158  -13.8486  -41.9203 H         1 UNK         0.0600 
    172 H172       -3.1311  -13.2151  -40.7840 H         1 UNK         0.0600 
    173 H173       -3.5063  -12.3281  -42.2620 H         1 UNK         0.0600 
    174 H174       -0.9841  -12.5574  -41.8555 H         1 UNK         0.3000 
    175 H175        1.0868  -11.8220  -42.6148 H         1 UNK         0.0600 
    176 H176        2.4669  -14.4675  -41.8264 H         1 UNK         0.0600 
    177 H177        2.9259  -12.8593  -41.2786 H         1 UNK         0.0600 
    178 H178        1.4080  -13.5549  -40.7587 H         1 UNK         0.0600 
    179 H179        1.8807  -13.4126  -44.7770 H         1 UNK         0.3000 
    180 H180        4.7940  -11.4898  -45.6132 H         1 UNK         0.0600 
    181 H181        5.6034  -13.6939  -44.7931 H         1 UNK         0.0600 
    182 H182        5.4176  -13.7131  -46.5404 H         1 UNK         0.0600 
    183 H183        4.2159  -14.4969  -45.5149 H         1 UNK         0.0600 
    184 H184        3.1200  -13.0300  -47.2781 H         1 UNK         0.3000 
    185 H185        0.5152  -10.8569  -47.9006 H         1 UNK         0.0600 
    186 H186        1.3684  -10.2467  -50.1550 H         1 UNK         0.0600 
    187 H187        2.1224   -9.2471  -48.9249 H         1 UNK         0.0600 
    188 H188        3.0238  -10.5770  -49.6417 H         1 UNK         0.0600 
    189 H189        1.8463  -12.7143  -49.6389 H         1 UNK         0.3000 
    190 H190       -1.9532  -21.5364  -46.9027 H         1 UNK         0.3000 
    191 H191       -3.2423  -22.7924  -49.1204 H         1 UNK         0.0600 
    192 H192       -4.4136  -21.5663  -46.5690 H         1 UNK         0.0600 
    193 H193       -5.3488  -22.0305  -47.9846 H         1 UNK         0.0600 
    194 H194       -4.1649  -20.7465  -48.1069 H         1 UNK         0.0600 
    195 H195       -3.0951  -23.6630  -45.6287 H         1 UNK         0.3000 
    196 H196       -4.7372  -25.9884  -45.8238 H         1 UNK         0.0600 
    197 H197       -3.8269  -26.4722  -43.5430 H         1 UNK         0.0600 
    198 H198       -4.3663  -24.8067  -43.6899 H         1 UNK         0.0600 
    199 H199       -2.6454  -25.1819  -43.7357 H         1 UNK         0.0600 
    200 H200       -1.1696  -25.5597  -45.9210 H         1 UNK         0.3000 
    201 H201       -0.5361  -28.3390  -46.1462 H         1 UNK         0.0600 
    202 H202        1.0760  -26.6134  -45.3537 H         1 UNK         0.0600 
    203 H203        1.0818  -25.8649  -46.9510 H         1 UNK         0.0600 
    204 H204        1.7266  -27.4864  -46.7337 H         1 UNK         0.0600 
    205 H205       -1.3365  -25.8835  -48.5345 H         1 UNK         0.3000 
    206 H206       -1.7952  -25.8443  -50.6675 H         1 UNK         0.0600 
    207 H207       -3.1336  -27.9683  -50.2769 H         1 UNK         0.0600 
    208 H208       -2.5429  -27.8014  -51.9168 H         1 UNK         0.0600 
    209 H209       -1.7399  -28.9065  -50.8067 H         1 UNK         0.0600 
    210 H210       -0.7970  -27.4898  -52.8101 H         1 UNK         0.3000 
    211 H211        0.8104  -27.6811  -54.2725 H         1 UNK         0.0600 
    212 H212        2.8441  -27.6384  -51.9837 H         1 UNK         0.0600 
    213 H213        3.1322  -28.1860  -53.6267 H         1 UNK         0.0600 
    214 H214        2.0171  -29.0701  -52.5964 H         1 UNK         0.0600 
    215 H215        1.4085  -25.0839  -51.9756 H         1 UNK         0.3000 
    216 H216        2.9099  -23.3219  -53.6775 H         1 UNK         0.0600 
    217 H217        2.2766  -21.6391  -51.9319 H         1 UNK         0.0600 
    218 H218        2.8134  -23.1304  -51.1771 H         1 UNK         0.0600 
    219 H219        1.0924  -22.7579  -51.2620 H         1 UNK         0.0600 
    220 H220        2.1239  -21.2636  -54.5220 H         1 UNK         0.3000 
    221 H221       -0.2755  -21.4925  -56.1374 H         1 UNK         0.0600 
    222 H222        1.7977  -19.2561  -55.8430 H         1 UNK         0.0600 
    223 H223        1.8182  -20.5426  -57.0491 H         1 UNK         0.0600 
    224 H224        0.5436  -19.3356  -57.0752 H         1 UNK         0.0600 
    225 H225       -1.5340  -21.7303  -54.0145 H         1 UNK         0.3000 
    226 H226       -2.2134  -19.4192  -52.4745 H         1 UNK         0.0600 
    227 H227       -2.5143  -21.7333  -51.6298 H         1 UNK         0.0600 
    228 H228       -4.0498  -20.8818  -51.6198 H         1 UNK         0.0600 
    229 H229       -3.7129  -22.0591  -52.8838 H         1 UNK         0.0600 
    230 H230       -4.1089  -18.2186  -52.4122 H         1 UNK         0.3000 
    231 H231       -5.4001  -17.6556  -55.0172 H         1 UNK         0.0600 
    232 H232       -4.3303  -15.8055  -53.6535 H         1 UNK         0.0600 
    233 H233       -5.4739  -16.1269  -52.3546 H         1 UNK         0.0600 
    234 H234       -6.0390  -15.5411  -53.9197 H         1 UNK         0.0600 
    235 H235       -7.7700  -16.5277  -53.7929 H         1 UNK         0.3000 
    236 H236       -9.4663  -18.8329  -53.3274 H         1 UNK         0.0600 
    237 H237      -11.2073  -17.0934  -52.9215 H         1 UNK         0.0600 
    238 H238       -9.9832  -15.8309  -52.9618 H         1 UNK         0.0600 
    239 H239      -10.3338  -16.7733  -54.4115 H         1 UNK         0.0600 
    240 H240       -7.7946  -16.4492  -51.3336 H         1 UNK         0.3000 
    241 H241       -7.2706  -16.2497  -49.2213 H         1 UNK         0.0600 
    242 H242       -9.8208  -16.9806  -46.5110 H         1 UNK         0.3800 
    243 H243       -8.2286  -17.6430  -46.7264 H         1 UNK         0.3800 
    244 H244       -6.7010  -18.2757  -47.8969 H         1 UNK         0.0800 
    245 H245       -7.6523  -19.2700  -48.9667 H         1 UNK         0.0800 
    246 H246       -4.6604  -16.6031  -49.0414 H         1 UNK         0.0800 
    247 H247       -4.2281  -18.0142  -48.0990 H         1 UNK         0.0800 
@<TRIPOS>BOND
     1    1    2 1    
     2    1  127 1    
     3    1  128 1    
     4    1  129 1    
     5    2    3 2    
     6    2    4 am   BACKBONE|DICT|INTERRES
     7    4    5 1    
     8    4  130 1    
     9    5    6 1    
    10    5   65 1    
    11    5  131 1    
    12    6    7 1    
    13    6  132 1    
    14    6  133 1    
    15    7    8 1    
    16    8    9 1    
    17    8  134 1    
    18    8  135 1    
    19    9   10 ar   
    20    9   14 ar   
    21   10   11 ar   
    22   10  136 1    
    23   11   12 ar   
    24   11  126 1    
    25   12   13 ar   
    26   12  137 1    
    27   13   14 ar   
    28   13   15 1    
    29   14  138 1    
    30   15   16 1    
    31   15  139 1    
    32   15  140 1    
    33   16   17 1    
    34   17   18 1    
    35   17  141 1    
    36   17  142 1    
    37   18   19 1    
    38   18   67 1    
    39   18  143 1    
    40   19   20 am   BACKBONE|DICT|INTERRES
    41   19  144 1    
    42   20   21 2    
    43   20   22 1    
    44   22   23 1    
    45   22   24 1    
    46   22  145 1    
    47   23  146 1    
    48   23  147 1    
    49   23  148 1    
    50   24   25 am   BACKBONE|DICT|INTERRES
    51   24  149 1    
    52   25   26 2    
    53   25   27 1    
    54   27   28 1    
    55   27   29 1    
    56   27  150 1    
    57   28  151 1    
    58   28  152 1    
    59   28  153 1    
    60   29   30 am   BACKBONE|DICT|INTERRES
    61   29  154 1    
    62   30   31 2    
    63   30   32 1    
    64   32   33 1    
    65   32   34 1    
    66   32  155 1    
    67   33  156 1    
    68   33  157 1    
    69   33  158 1    
    70   34   35 am   BACKBONE|DICT|INTERRES
    71   34  159 1    
    72   35   36 2    
    73   35   37 1    
    74   37   38 1    
    75   37   39 1    
    76   37  160 1    
    77   38  161 1    
    78   38  162 1    
    79   38  163 1    
    80   39   40 am   BACKBONE|DICT|INTERRES
    81   39  164 1    
    82   40   41 2    
    83   40   42 1    
    84   42   43 1    
    85   42   44 1    
    86   42  165 1    
    87   43  166 1    
    88   43  167 1    
    89   43  168 1    
    90   44   45 am   BACKBONE|DICT|INTERRES
    91   44  169 1    
    92   45   46 2    
    93   45   47 1    
    94   47   48 1    
    95   47   49 1    
    96   47  170 1    
    97   48  171 1    
    98   48  172 1    
    99   48  173 1    
   100   49   50 am   BACKBONE|DICT|INTERRES
   101   49  174 1    
   102   50   51 2    
   103   50   52 1    
   104   52   53 1    
   105   52   54 1    
   106   52  175 1    
   107   53  176 1    
   108   53  177 1    
   109   53  178 1    
   110   54   55 am   BACKBONE|DICT|INTERRES
   111   54  179 1    
   112   55   56 2    
   113   55   57 1    
   114   57   58 1    
   115   57   59 1    
   116   57  180 1    
   117   58  181 1    
   118   58  182 1    
   119   58  183 1    
   120   59   60 am   BACKBONE|DICT|INTERRES
   121   59  184 1    
   122   60   61 2    
   123   60   62 1    
   124   62   63 1    
   125   62   64 1    
   126   62  185 1    
   127   63  186 1    
   128   63  187 1    
   129   63  188 1    
   130   64   65 am   BACKBONE|DICT|INTERRES
   131   64  189 1    
   132   65   66 2    
   133   67   68 2    
   134   67   69 am   BACKBONE|DICT|INTERRES
   135   69   70 1    
   136   69  190 1    
   137   70   71 1    
   138   70   72 1    
   139   70  191 1    
   140   71  192 1    
   141   71  193 1    
   142   71  194 1    
   143   72   73 2    
   144   72   74 am   BACKBONE|DICT|INTERRES
   145   74   75 1    
   146   74  195 1    
   147   75   76 1    
   148   75   77 1    
   149   75  196 1    
   150   76  197 1    
   151   76  198 1    
   152   76  199 1    
   153   77   78 2    
   154   77   79 am   BACKBONE|DICT|INTERRES
   155   79   80 1    
   156   79  200 1    
   157   80   81 1    
   158   80   82 1    
   159   80  201 1    
   160   81  202 1    
   161   81  203 1    
   162   81  204 1    
   163   82   83 2    
   164   82   84 am   BACKBONE|DICT|INTERRES
   165   84   85 1    
   166   84  205 1    
   167   85   86 1    
   168   85   87 1    
   169   85  206 1    
   170   86  207 1    
   171   86  208 1    
   172   86  209 1    
   173   87   88 2    
   174   87   89 am   BACKBONE|DICT|INTERRES
   175   89   90 1    
   176   89  210 1    
   177   90   91 1    
   178   90   92 1    
   179   90  211 1    
   180   91  212 1    
   181   91  213 1    
   182   91  214 1    
   183   92   93 2    
   184   92   94 am   BACKBONE|DICT|INTERRES
   185   94   95 1    
   186   94  215 1    
   187   95   96 1    
   188   95   97 1    
   189   95  216 1    
   190   96  217 1    
   191   96  218 1    
   192   96  219 1    
   193   97   98 2    
   194   97   99 am   BACKBONE|DICT|INTERRES
   195   99  100 1    
   196   99  220 1    
   197  100  101 1    
   198  100  102 1    
   199  100  221 1    
   200  101  222 1    
   201  101  223 1    
   202  101  224 1    
   203  102  103 2    
   204  102  104 am   BACKBONE|DICT|INTERRES
   205  104  105 1    
   206  104  225 1    
   207  105  106 1    
   208  105  107 1    
   209  105  226 1    
   210  106  227 1    
   211  106  228 1    
   212  106  229 1    
   213  107  108 2    
   214  107  109 am   BACKBONE|DICT|INTERRES
   215  109  110 1    
   216  109  230 1    
   217  110  111 1    
   218  110  112 1    
   219  110  231 1    
   220  111  232 1    
   221  111  233 1    
   222  111  234 1    
   223  112  113 2    
   224  112  114 am   BACKBONE|DICT|INTERRES
   225  114  115 1    
   226  114  235 1    
   227  115  116 1    
   228  115  117 1    
   229  115  236 1    
   230  116  237 1    
   231  116  238 1    
   232  116  239 1    
   233  117  118 2    
   234  117  119 am   BACKBONE|DICT|INTERRES
   235  119  120 1    
   236  119  240 1    
   237  120  121 1    
   238  120  124 1    
   239  120  241 1    
   240  121  122 am   BACKBONE|DICT|INTERRES
   241  121  123 2    
   242  122  242 1    
   243  122  243 1    
   244  124  125 1    
   245  124  244 1    
   246  124  245 1    
   247  125  126 1    
   248  126  246 1    
   249  126  247 1    
@<TRIPOS>SUBSTRUCTURE
     1 UNK         1 GROUP             0       ****    0 ROOT    
