@<TRIPOS>MOLECULE
3R540
247   249    1
SMALL
USER_CHARGES


@<TRIPOS>ATOM
      1 CA          0.9029  -11.6579  -52.3469 C.3       0 UNK        -0.1800 
      2 C           1.4148  -11.8725  -50.9298 C.2       0 UNK         0.5000 
      3 O           2.1775  -11.0515  -50.4185 O.2       0 UNK        -0.5000 
      4 N           0.9883  -12.9648  -50.2852 N.am      1 UNK        -0.5000 
      5 CA          1.3586  -13.3512  -48.9186 C.3       1 UNK         0.1400 
      6 C6          1.2881  -14.8869  -48.7124 C.3       23 UNK        -0.0398 
      7 S7          2.5636  -15.7668  -49.6764 S.3       23 UNK        -0.2404 
      8 C8          1.6486  -16.2801  -51.1635 C.3       23 UNK        -0.0205 
      9 C9          0.7579  -17.4853  -50.9061 C.ar      23 UNK        -0.0193 
     10 C10        -0.6202  -17.3310  -50.7326 C.ar      23 UNK        -0.1150 
     11 C11        -1.4405  -18.4464  -50.5339 C.ar      23 UNK        -0.0193 
     12 C12        -0.8678  -19.7205  -50.4800 C.ar      23 UNK        -0.1150 
     13 C13         0.5115  -19.8846  -50.6380 C.ar      23 UNK        -0.0193 
     14 C14         1.3156  -18.7648  -50.8657 C.ar      23 UNK        -0.1150 
     15 C15         1.1323  -21.2718  -50.5668 C.3       23 UNK        -0.0205 
     16 S16         2.3873  -21.4248  -49.2501 S.3       23 UNK        -0.2404 
     17 C17         1.4795  -20.9304  -47.7434 C.3       23 UNK        -0.0398 
     18 CA          0.8249  -22.1324  -47.0210 C.3       11 UNK         0.1400 
     19 N           0.7826  -21.9612  -45.5675 N.am      11 UNK        -0.5000 
     20 C           0.4609  -22.9339  -44.7029 C.2       10 UNK         0.5000 
     21 O           0.2129  -24.0923  -45.0387 O.2       10 UNK        -0.5000 
     22 CA          0.3435  -22.5357  -43.2212 C.3       10 UNK         0.1400 
     23 CB          1.7275  -22.4734  -42.5587 C.3       10 UNK        -0.1800 
     24 N          -0.3573  -21.2636  -43.0369 N.am      10 UNK        -0.5000 
     25 C          -1.6377  -21.0537  -43.3764 C.2       9 UNK         0.5000 
     26 O          -2.3726  -21.9270  -43.8357 O.2       9 UNK        -0.5000 
     27 CA         -2.1811  -19.6233  -43.2196 C.3       9 UNK         0.1400 
     28 CB         -2.5724  -19.3485  -41.7603 C.3       9 UNK        -0.1800 
     29 N          -1.2415  -18.6025  -43.6846 N.am      9 UNK        -0.5000 
     30 C          -0.8115  -18.4796  -44.9495 C.2       8 UNK         0.5000 
     31 O          -1.1823  -19.2029  -45.8731 O.2       8 UNK        -0.5000 
     32 CA          0.2588  -17.4068  -45.2175 C.3       8 UNK         0.1400 
     33 CB         -0.3646  -16.0044  -45.2592 C.3       8 UNK        -0.1800 
     34 N           1.3305  -17.4351  -44.2237 N.am      8 UNK        -0.5000 
     35 C           2.1427  -18.4788  -44.0056 C.2       7 UNK         0.5000 
     36 O           2.1093  -19.5235  -44.6556 O.2       7 UNK        -0.5000 
     37 CA          3.1182  -18.3527  -42.8244 C.3       7 UNK         0.1400 
     38 CB          4.3458  -17.5127  -43.2087 C.3       7 UNK        -0.1800 
     39 N           2.4710  -17.7769  -41.6453 N.am      7 UNK        -0.5000 
     40 C           1.5268  -18.3978  -40.9237 C.2       6 UNK         0.5000 
     41 O           1.1213  -19.5351  -41.1607 O.2       6 UNK        -0.5000 
     42 CA          0.9048  -17.5974  -39.7655 C.3       6 UNK         0.1400 
     43 CB          1.7930  -17.6733  -38.5147 C.3       6 UNK        -0.1800 
     44 N           0.6729  -16.1950  -40.1132 N.am      6 UNK        -0.5000 
     45 C          -0.2139  -15.7806  -41.0290 C.2       5 UNK         0.5000 
     46 O          -0.9488  -16.5366  -41.6624 O.2       5 UNK        -0.5000 
     47 CA         -0.2464  -14.2703  -41.3230 C.3       5 UNK         0.1400 
     48 CB         -1.1452  -13.5402  -40.3141 C.3       5 UNK        -0.1800 
     49 N           1.0824  -13.6506  -41.3322 N.am      5 UNK        -0.5000 
     50 C           2.0617  -13.9805  -42.1831 C.2       4 UNK         0.5000 
     51 O           1.9733  -14.8901  -43.0100 O.2       4 UNK        -0.5000 
     52 CA          3.3643  -13.1688  -42.0851 C.3       4 UNK         0.1400 
     53 CB          4.3674  -13.8919  -41.1738 C.3       4 UNK        -0.1800 
     54 N           3.9656  -12.9978  -43.4095 N.am      4 UNK        -0.5000 
     55 C           3.5475  -12.1912  -44.3957 C.2       3 UNK         0.5000 
     56 O           4.0446  -12.2481  -45.5226 O.2       3 UNK        -0.5000 
     57 CA          2.4550  -11.1361  -44.1251 C.3       3 UNK         0.1400 
     58 CB          3.0627   -9.8359  -43.5692 C.3       3 UNK        -0.1800 
     59 N           1.7759  -10.8604  -45.3832 N.am      3 UNK        -0.5000 
     60 C           0.5182  -10.4287  -45.5256 C.2       2 UNK         0.5000 
     61 O          -0.2149  -10.1310  -44.5819 O.2       2 UNK        -0.5000 
     62 CA         -0.0163  -10.3246  -46.9677 C.3       2 UNK         0.1400 
     63 CB          0.1332   -8.8901  -47.4968 C.3       2 UNK        -0.1800 
     64 N           0.6535  -11.2438  -47.8909 N.am      2 UNK        -0.5000 
     65 C           0.4992  -12.5743  -47.8986 C.2       1 UNK         0.5000 
     66 O          -0.2890  -13.1695  -47.1634 O.2       1 UNK        -0.5000 
     67 C          -0.5703  -22.4477  -47.5949 C.2       11 UNK         0.5000 
     68 O          -0.6976  -23.3719  -48.3952 O.2       11 UNK        -0.5000 
     69 N          -1.6005  -21.7148  -47.1481 N.am      12 UNK        -0.5000 
     70 CA         -2.9936  -21.9348  -47.5357 C.3       12 UNK         0.1400 
     71 CB         -3.8760  -20.8033  -46.9911 C.3       12 UNK        -0.1800 
     72 C          -3.5342  -23.3095  -47.1023 C.2       12 UNK         0.5000 
     73 O          -4.2830  -23.9257  -47.8614 O.2       12 UNK        -0.5000 
     74 N          -3.1273  -23.7811  -45.9164 N.am      13 UNK        -0.5000 
     75 CA         -3.4172  -25.1245  -45.4182 C.3       13 UNK         0.1400 
     76 CB         -3.0256  -25.2305  -43.9368 C.3       13 UNK        -0.1800 
     77 C          -2.7232  -26.2120  -46.2574 C.2       13 UNK         0.5000 
     78 O          -3.3811  -27.1706  -46.6625 O.2       13 UNK        -0.5000 
     79 N          -1.4281  -26.0201  -46.5511 N.am      14 UNK        -0.5000 
     80 CA         -0.6217  -26.9026  -47.4021 C.3       14 UNK         0.1400 
     81 CB          0.8457  -26.4501  -47.3651 C.3       14 UNK        -0.1800 
     82 C          -1.1315  -26.9816  -48.8552 C.2       14 UNK         0.5000 
     83 O          -1.0696  -28.0488  -49.4661 O.2       14 UNK        -0.5000 
     84 N          -1.6684  -25.8643  -49.3618 N.am      15 UNK        -0.5000 
     85 CA         -2.3281  -25.7417  -50.6626 C.3       15 UNK         0.1400 
     86 CB         -2.3808  -24.2551  -51.0503 C.3       15 UNK        -0.1800 
     87 C          -3.7371  -26.3742  -50.7180 C.2       15 UNK         0.5000 
     88 O          -4.3359  -26.3817  -51.7935 O.2       15 UNK        -0.5000 
     89 N          -4.2306  -26.8980  -49.5846 N.am      16 UNK        -0.5000 
     90 CA         -5.5304  -27.5407  -49.3810 C.3       16 UNK         0.1400 
     91 CB         -5.6956  -28.7887  -50.2749 C.3       16 UNK        -0.1800 
     92 C          -6.6889  -26.5340  -49.5034 C.2       16 UNK         0.5000 
     93 O          -7.5150  -26.6381  -50.4118 O.2       16 UNK        -0.5000 
     94 N          -6.7139  -25.5866  -48.5557 N.am      17 UNK        -0.5000 
     95 CA         -7.6858  -24.5011  -48.3945 C.3       17 UNK         0.1400 
     96 CB         -9.1276  -25.0335  -48.2429 C.3       17 UNK        -0.1800 
     97 C          -7.5286  -23.4261  -49.4857 C.2       17 UNK         0.5000 
     98 O          -8.4789  -23.1286  -50.2120 O.2       17 UNK        -0.5000 
     99 N          -6.3149  -22.8599  -49.5327 N.am      18 UNK        -0.5000 
    100 CA        -5.8124  -21.8074  -50.4206 C.3       18 UNK         0.1400 
    101 CB        -6.7415  -20.5774  -50.4548 C.3       18 UNK        -0.1800 
    102 C         -5.4774  -22.3169  -51.8328 C.2       18 UNK         0.5000 
    103 O         -6.0962  -23.2558  -52.3368 O.2       18 UNK        -0.5000 
    104 N         -4.4765  -21.6742  -52.4431 N.am      19 UNK        -0.5000 
    105 CA        -4.0254  -21.9394  -53.8050 C.3       19 UNK         0.1400 
    106 CB        -2.5758  -21.4415  -53.9438 C.3       19 UNK        -0.1800 
    107 C         -4.9365  -21.2487  -54.8348 C.2       19 UNK         0.5000 
    108 O         -5.6683  -20.3146  -54.4976 O.2       19 UNK        -0.5000 
    109 N         -4.8357  -21.6915  -56.0940 N.am      20 UNK        -0.5000 
    110 CA        -5.5426  -21.1052  -57.2374 C.3       20 UNK         0.1400 
    111 CB        -5.4361  -22.0663  -58.4318 C.3       20 UNK        -0.1800 
    112 C         -5.0279  -19.7028  -57.6267 C.2       20 UNK         0.5000 
    113 O         -5.7411  -18.9657  -58.3088 O.2       20 UNK        -0.5000 
    114 N         -3.8081  -19.3625  -57.1933 N.am      21 UNK        -0.5000 
    115 CA        -3.1450  -18.0892  -57.4401 C.3       21 UNK         0.1400 
    116 CB        -2.3326  -18.1740  -58.7469 C.3       21 UNK        -0.1800 
    117 C         -2.2925  -17.7250  -56.2147 C.2       21 UNK         0.5000 
    118 O         -1.0626  -17.7393  -56.2904 O.2       21 UNK        -0.5000 
    119 N         -2.9655  -17.4318  -55.0941 N.am      22 UNK        -0.5000 
    120 CA        -2.3606  -16.8674  -53.8756 C.3       22 UNK         0.1400 
    121 C         -1.7162  -15.4790  -54.1539 C.2       22 UNK         0.5000 
    122 N         -0.4035  -15.3515  -54.0205 N.am      22 UNK        -0.7600 
    123 O         -2.4070  -14.5134  -54.4701 O.2       22 UNK        -0.5000 
    124 C124       -3.3955  -16.7567  -52.7246 C.3       23 UNK        -0.0398 
    125 S125       -3.8050  -18.3714  -51.9816 S.3       23 UNK        -0.2404 
    126 C126       -2.9444  -18.2799  -50.3776 C.3       23 UNK        -0.0205 
    127 H127        0.1929  -12.4305  -52.6430 H         1 UNK         0.0600 
    128 H128        0.4040  -10.6918  -52.4232 H         1 UNK         0.0600 
    129 H129        1.7344  -11.6704  -53.0514 H         1 UNK         0.0600 
    130 H130        0.3242  -13.5715  -50.7418 H         1 UNK         0.3000 
    131 H131        2.3932  -13.0501  -48.7372 H         1 UNK         0.0600 
    132 H132        1.4676  -15.1361  -47.6654 H         1 UNK         0.0800 
    133 H133        0.2958  -15.2730  -48.9473 H         1 UNK         0.0800 
    134 H134        2.3693  -16.5293  -51.9436 H         1 UNK         0.0800 
    135 H135        1.0674  -15.4434  -51.5497 H         1 UNK         0.0800 
    136 H136       -1.0546  -16.3428  -50.7650 H         1 UNK         0.1150 
    137 H137       -1.4967  -20.5843  -50.3171 H         1 UNK         0.1150 
    138 H138        2.3816  -18.8888  -50.9962 H         1 UNK         0.1150 
    139 H139        0.3670  -22.0351  -50.4260 H         1 UNK         0.0800 
    140 H140        1.6038  -21.4929  -51.5251 H         1 UNK         0.0800 
    141 H141        0.7644  -20.1324  -47.9500 H         1 UNK         0.0800 
    142 H142        2.2288  -20.4772  -47.0942 H         1 UNK         0.0800 
    143 H143        1.4486  -23.0117  -47.1963 H         1 UNK         0.0600 
    144 H144        1.0138  -21.0396  -45.2070 H         1 UNK         0.3000 
    145 H145       -0.2372  -23.3106  -42.7165 H         1 UNK         0.0600 
    146 H146        1.6429  -22.2819  -41.4889 H         1 UNK         0.0600 
    147 H147        2.2609  -23.4171  -42.6787 H         1 UNK         0.0600 
    148 H148        2.3477  -21.6878  -42.9905 H         1 UNK         0.0600 
    149 H149        0.1733  -20.5079  -42.6147 H         1 UNK         0.3000 
    150 H150       -3.0823  -19.5441  -43.8306 H         1 UNK         0.0600 
    151 H151       -3.2758  -20.0981  -41.3958 H         1 UNK         0.0600 
    152 H152       -3.0534  -18.3756  -41.6586 H         1 UNK         0.0600 
    153 H153       -1.7042  -19.3631  -41.1007 H         1 UNK         0.0600 
    154 H154       -0.9184  -17.9368  -42.9880 H         1 UNK         0.3000 
    155 H155        0.7049  -17.6120  -46.1930 H         1 UNK         0.0600 
    156 H156       -0.8658  -15.7552  -44.3239 H         1 UNK         0.0600 
    157 H157       -1.1022  -15.9285  -46.0590 H         1 UNK         0.0600 
    158 H158        0.3924  -15.2415  -45.4400 H         1 UNK         0.0600 
    159 H159        1.4578  -16.5941  -43.6667 H         1 UNK         0.3000 
    160 H160        3.4627  -19.3564  -42.5662 H         1 UNK         0.0600 
    161 H161        5.0570  -17.4532  -42.3848 H         1 UNK         0.0600 
    162 H162        4.0718  -16.4961  -43.4911 H         1 UNK         0.0600 
    163 H163        4.8682  -17.9566  -44.0571 H         1 UNK         0.0600 
    164 H164        2.7060  -16.8230  -41.4173 H         1 UNK         0.3000 
    165 H165       -0.0592  -18.0519  -39.5272 H         1 UNK         0.0600 
    166 H166        1.3226  -17.1754  -37.6667 H         1 UNK         0.0600 
    167 H167        1.9694  -18.7099  -38.2245 H         1 UNK         0.0600 
    168 H168        2.7658  -17.2084  -38.6802 H         1 UNK         0.0600 
    169 H169        1.2380  -15.5049  -39.6412 H         1 UNK         0.3000 
    170 H170       -0.6786  -14.1403  -42.3175 H         1 UNK         0.0600 
    171 H171       -2.1469  -13.9721  -40.3002 H         1 UNK         0.0600 
    172 H172       -0.7473  -13.6008  -39.3004 H         1 UNK         0.0600 
    173 H173       -1.2515  -12.4862  -40.5715 H         1 UNK         0.0600 
    174 H174        1.2329  -12.9053  -40.6671 H         1 UNK         0.3000 
    175 H175        3.1531  -12.1910  -41.6496 H         1 UNK         0.0600 
    176 H176        4.6251  -14.8800  -41.5567 H         1 UNK         0.0600 
    177 H177        5.2912  -13.3213  -41.0754 H         1 UNK         0.0600 
    178 H178        3.9616  -14.0246  -40.1700 H         1 UNK         0.0600 
    179 H179        4.6814  -13.6708  -43.6370 H         1 UNK         0.3000 
    180 H180        1.7190  -11.5243  -43.4219 H         1 UNK         0.0600 
    181 H181        3.7733   -9.3955  -44.2697 H         1 UNK         0.0600 
    182 H182        3.5936  -10.0151  -42.6339 H         1 UNK         0.0600 
    183 H183        2.2907   -9.0935  -43.3660 H         1 UNK         0.0600 
    184 H184        2.3086  -11.1179  -46.2045 H         1 UNK         0.3000 
    185 H185       -1.0795  -10.5731  -46.9458 H         1 UNK         0.0600 
    186 H186       -0.3770   -8.1785  -46.8462 H         1 UNK         0.0600 
    187 H187        1.1802   -8.5900  -47.5555 H         1 UNK         0.0600 
    188 H188       -0.3013   -8.7894  -48.4916 H         1 UNK         0.0600 
    189 H189        1.2873  -10.8379  -48.5716 H         1 UNK         0.3000 
    190 H190       -1.4200  -20.9334  -46.5213 H         1 UNK         0.3000 
    191 H191       -3.0296  -21.8977  -48.6250 H         1 UNK         0.0600 
    192 H192       -3.8685  -20.7784  -45.9014 H         1 UNK         0.0600 
    193 H193       -4.9119  -20.9249  -47.3104 H         1 UNK         0.0600 
    194 H194       -3.5366  -19.8310  -47.3482 H         1 UNK         0.0600 
    195 H195       -2.5791  -23.1766  -45.3111 H         1 UNK         0.3000 
    196 H196       -4.4949  -25.2840  -45.4918 H         1 UNK         0.0600 
    197 H197       -3.2543  -26.2213  -43.5426 H         1 UNK         0.0600 
    198 H198       -3.5726  -24.5058  -43.3334 H         1 UNK         0.0600 
    199 H199       -1.9611  -25.0540  -43.7840 H         1 UNK         0.0600 
    200 H200       -0.9505  -25.2155  -46.1547 H         1 UNK         0.3000 
    201 H201       -0.6775  -27.9078  -46.9796 H         1 UNK         0.0600 
    202 H202        1.2356  -26.4588  -46.3471 H         1 UNK         0.0600 
    203 H203        0.9662  -25.4414  -47.7604 H         1 UNK         0.0600 
    204 H204        1.4744  -27.1133  -47.9604 H         1 UNK         0.0600 
    205 H205       -1.5838  -25.0077  -48.8208 H         1 UNK         0.3000 
    206 H206       -1.7163  -26.2608  -51.4030 H         1 UNK         0.0600 
    207 H207       -1.3839  -23.8153  -51.0728 H         1 UNK         0.0600 
    208 H208       -2.8119  -24.1261  -52.0430 H         1 UNK         0.0600 
    209 H209       -2.9867  -23.6803  -50.3503 H         1 UNK         0.0600 
    210 H210       -3.6604  -26.8262  -48.7503 H         1 UNK         0.3000 
    211 H211       -5.5338  -27.8917  -48.3478 H         1 UNK         0.0600 
    212 H212       -5.7490  -28.5359  -51.3338 H         1 UNK         0.0600 
    213 H213       -6.6128  -29.3229  -50.0245 H         1 UNK         0.0600 
    214 H214       -4.8670  -29.4834  -50.1372 H         1 UNK         0.0600 
    215 H215       -5.9265  -25.5456  -47.9215 H         1 UNK         0.3000 
    216 H216       -7.4312  -24.0134  -47.4521 H         1 UNK         0.0600 
    217 H217       -9.8112  -24.2246  -47.9831 H         1 UNK         0.0600 
    218 H218       -9.1916  -25.7794  -47.4508 H         1 UNK         0.0600 
    219 H219       -9.4998  -25.4861  -49.1621 H         1 UNK         0.0600 
    220 H220       -5.6100  -23.2619  -48.9181 H         1 UNK         0.3000 
    221 H221       -4.8745  -21.4835  -49.9700 H         1 UNK         0.0600 
    222 H222       -7.6789  -20.7859  -50.9702 H         1 UNK         0.0600 
    223 H223       -6.9769  -20.2301  -49.4488 H         1 UNK         0.0600 
    224 H224       -6.2699  -19.7482  -50.9817 H         1 UNK         0.0600 
    225 H225       -4.0858  -20.8491  -52.0100 H         1 UNK         0.3000 
    226 H226       -4.0458  -23.0164  -53.9853 H         1 UNK         0.0600 
    227 H227       -1.9287  -21.8915  -53.1904 H         1 UNK         0.0600 
    228 H228       -2.1617  -21.7003  -54.9187 H         1 UNK         0.0600 
    229 H229       -2.5058  -20.3583  -53.8369 H         1 UNK         0.0600 
    230 H230       -4.2159  -22.4626  -56.2980 H         1 UNK         0.3000 
    231 H231       -6.5973  -21.0043  -56.9729 H         1 UNK         0.0600 
    232 H232       -5.8615  -23.0414  -58.1936 H         1 UNK         0.0600 
    233 H233       -4.3996  -22.2159  -58.7370 H         1 UNK         0.0600 
    234 H234       -5.9793  -21.6792  -59.2950 H         1 UNK         0.0600 
    235 H235       -3.2996  -20.0203  -56.6204 H         1 UNK         0.3000 
    236 H236       -3.8895  -17.2978  -57.5520 H         1 UNK         0.0600 
    237 H237       -1.8079  -17.2381  -58.9424 H         1 UNK         0.0600 
    238 H238       -1.5873  -18.9693  -58.7070 H         1 UNK         0.0600 
    239 H239       -2.9809  -18.3667  -59.6019 H         1 UNK         0.0600 
    240 H240       -3.9738  -17.4809  -55.1059 H         1 UNK         0.3000 
    241 H241       -1.5696  -17.5498  -53.5574 H         1 UNK         0.0600 
    242 H242        0.0220  -14.4604  -54.2191 H         1 UNK         0.3800 
    243 H243        0.1790  -16.1517  -53.8321 H         1 UNK         0.3800 
    244 H244       -3.0391  -16.0932  -51.9359 H         1 UNK         0.0800 
    245 H245       -4.3181  -16.2999  -53.0863 H         1 UNK         0.0800 
    246 H246       -3.1767  -17.3369  -49.8804 H         1 UNK         0.0800 
    247 H247       -3.3344  -19.0644  -49.7280 H         1 UNK         0.0800 
@<TRIPOS>BOND
     1    1    2 1    
     2    1  127 1    
     3    1  128 1    
     4    1  129 1    
     5    2    3 2    
     6    2    4 am   BACKBONE|DICT|INTERRES
     7    4    5 1    
     8    4  130 1    
     9    5    6 1    
    10    5   65 1    
    11    5  131 1    
    12    6    7 1    
    13    6  132 1    
    14    6  133 1    
    15    7    8 1    
    16    8    9 1    
    17    8  134 1    
    18    8  135 1    
    19    9   10 ar   
    20    9   14 ar   
    21   10   11 ar   
    22   10  136 1    
    23   11   12 ar   
    24   11  126 1    
    25   12   13 ar   
    26   12  137 1    
    27   13   14 ar   
    28   13   15 1    
    29   14  138 1    
    30   15   16 1    
    31   15  139 1    
    32   15  140 1    
    33   16   17 1    
    34   17   18 1    
    35   17  141 1    
    36   17  142 1    
    37   18   19 1    
    38   18   67 1    
    39   18  143 1    
    40   19   20 am   BACKBONE|DICT|INTERRES
    41   19  144 1    
    42   20   21 2    
    43   20   22 1    
    44   22   23 1    
    45   22   24 1    
    46   22  145 1    
    47   23  146 1    
    48   23  147 1    
    49   23  148 1    
    50   24   25 am   BACKBONE|DICT|INTERRES
    51   24  149 1    
    52   25   26 2    
    53   25   27 1    
    54   27   28 1    
    55   27   29 1    
    56   27  150 1    
    57   28  151 1    
    58   28  152 1    
    59   28  153 1    
    60   29   30 am   BACKBONE|DICT|INTERRES
    61   29  154 1    
    62   30   31 2    
    63   30   32 1    
    64   32   33 1    
    65   32   34 1    
    66   32  155 1    
    67   33  156 1    
    68   33  157 1    
    69   33  158 1    
    70   34   35 am   BACKBONE|DICT|INTERRES
    71   34  159 1    
    72   35   36 2    
    73   35   37 1    
    74   37   38 1    
    75   37   39 1    
    76   37  160 1    
    77   38  161 1    
    78   38  162 1    
    79   38  163 1    
    80   39   40 am   BACKBONE|DICT|INTERRES
    81   39  164 1    
    82   40   41 2    
    83   40   42 1    
    84   42   43 1    
    85   42   44 1    
    86   42  165 1    
    87   43  166 1    
    88   43  167 1    
    89   43  168 1    
    90   44   45 am   BACKBONE|DICT|INTERRES
    91   44  169 1    
    92   45   46 2    
    93   45   47 1    
    94   47   48 1    
    95   47   49 1    
    96   47  170 1    
    97   48  171 1    
    98   48  172 1    
    99   48  173 1    
   100   49   50 am   BACKBONE|DICT|INTERRES
   101   49  174 1    
   102   50   51 2    
   103   50   52 1    
   104   52   53 1    
   105   52   54 1    
   106   52  175 1    
   107   53  176 1    
   108   53  177 1    
   109   53  178 1    
   110   54   55 am   BACKBONE|DICT|INTERRES
   111   54  179 1    
   112   55   56 2    
   113   55   57 1    
   114   57   58 1    
   115   57   59 1    
   116   57  180 1    
   117   58  181 1    
   118   58  182 1    
   119   58  183 1    
   120   59   60 am   BACKBONE|DICT|INTERRES
   121   59  184 1    
   122   60   61 2    
   123   60   62 1    
   124   62   63 1    
   125   62   64 1    
   126   62  185 1    
   127   63  186 1    
   128   63  187 1    
   129   63  188 1    
   130   64   65 am   BACKBONE|DICT|INTERRES
   131   64  189 1    
   132   65   66 2    
   133   67   68 2    
   134   67   69 am   BACKBONE|DICT|INTERRES
   135   69   70 1    
   136   69  190 1    
   137   70   71 1    
   138   70   72 1    
   139   70  191 1    
   140   71  192 1    
   141   71  193 1    
   142   71  194 1    
   143   72   73 2    
   144   72   74 am   BACKBONE|DICT|INTERRES
   145   74   75 1    
   146   74  195 1    
   147   75   76 1    
   148   75   77 1    
   149   75  196 1    
   150   76  197 1    
   151   76  198 1    
   152   76  199 1    
   153   77   78 2    
   154   77   79 am   BACKBONE|DICT|INTERRES
   155   79   80 1    
   156   79  200 1    
   157   80   81 1    
   158   80   82 1    
   159   80  201 1    
   160   81  202 1    
   161   81  203 1    
   162   81  204 1    
   163   82   83 2    
   164   82   84 am   BACKBONE|DICT|INTERRES
   165   84   85 1    
   166   84  205 1    
   167   85   86 1    
   168   85   87 1    
   169   85  206 1    
   170   86  207 1    
   171   86  208 1    
   172   86  209 1    
   173   87   88 2    
   174   87   89 am   BACKBONE|DICT|INTERRES
   175   89   90 1    
   176   89  210 1    
   177   90   91 1    
   178   90   92 1    
   179   90  211 1    
   180   91  212 1    
   181   91  213 1    
   182   91  214 1    
   183   92   93 2    
   184   92   94 am   BACKBONE|DICT|INTERRES
   185   94   95 1    
   186   94  215 1    
   187   95   96 1    
   188   95   97 1    
   189   95  216 1    
   190   96  217 1    
   191   96  218 1    
   192   96  219 1    
   193   97   98 2    
   194   97   99 am   BACKBONE|DICT|INTERRES
   195   99  100 1    
   196   99  220 1    
   197  100  101 1    
   198  100  102 1    
   199  100  221 1    
   200  101  222 1    
   201  101  223 1    
   202  101  224 1    
   203  102  103 2    
   204  102  104 am   BACKBONE|DICT|INTERRES
   205  104  105 1    
   206  104  225 1    
   207  105  106 1    
   208  105  107 1    
   209  105  226 1    
   210  106  227 1    
   211  106  228 1    
   212  106  229 1    
   213  107  108 2    
   214  107  109 am   BACKBONE|DICT|INTERRES
   215  109  110 1    
   216  109  230 1    
   217  110  111 1    
   218  110  112 1    
   219  110  231 1    
   220  111  232 1    
   221  111  233 1    
   222  111  234 1    
   223  112  113 2    
   224  112  114 am   BACKBONE|DICT|INTERRES
   225  114  115 1    
   226  114  235 1    
   227  115  116 1    
   228  115  117 1    
   229  115  236 1    
   230  116  237 1    
   231  116  238 1    
   232  116  239 1    
   233  117  118 2    
   234  117  119 am   BACKBONE|DICT|INTERRES
   235  119  120 1    
   236  119  240 1    
   237  120  121 1    
   238  120  124 1    
   239  120  241 1    
   240  121  122 am   BACKBONE|DICT|INTERRES
   241  121  123 2    
   242  122  242 1    
   243  122  243 1    
   244  124  125 1    
   245  124  244 1    
   246  124  245 1    
   247  125  126 1    
   248  126  246 1    
   249  126  247 1    
@<TRIPOS>SUBSTRUCTURE
     1 UNK         1 GROUP             0       ****    0 ROOT    
