@<TRIPOS>MOLECULE
3R540
247   249    1
SMALL
USER_CHARGES


@<TRIPOS>ATOM
      1 CA         -0.9316  -13.2256  -43.4244 C.3       0 UNK        -0.1800 
      2 C          -1.1529  -13.9755  -44.7294 C.2       0 UNK         0.5000 
      3 O          -0.1907  -14.3352  -45.4018 O.2       0 UNK        -0.5000 
      4 N          -2.4187  -14.2040  -45.1054 N.am      1 UNK        -0.5000 
      5 CA         -2.8265  -14.9351  -46.3163 C.3       1 UNK         0.1400 
      6 C6         -2.3746  -16.4232  -46.2842 C.3       23 UNK        -0.0398 
      7 S7         -3.6072  -17.5379  -47.0256 S.3       23 UNK        -0.2404 
      8 C8         -2.7716  -19.1355  -46.8130 C.3       23 UNK        -0.0205 
      9 C9         -3.7820  -20.2598  -46.6773 C.ar      23 UNK        -0.0193 
     10 C10        -4.3099  -20.8765  -47.8139 C.ar      23 UNK        -0.1150 
     11 C11        -5.2450  -21.9080  -47.6899 C.ar      23 UNK        -0.0193 
     12 C12        -5.6412  -22.3287  -46.4172 C.ar      23 UNK        -0.1150 
     13 C13        -5.1121  -21.7243  -45.2724 C.ar      23 UNK        -0.0193 
     14 C14        -4.1916  -20.6821  -45.4095 C.ar      23 UNK        -0.1150 
     15 C15        -5.5382  -22.1989  -43.8914 C.3       23 UNK        -0.0205 
     16 S16        -4.8516  -23.8389  -43.4984 S.3       23 UNK        -0.2404 
     17 C17        -3.1140  -23.4522  -43.0692 C.3       23 UNK        -0.0398 
     18 CA         -2.1071  -23.3557  -44.2476 C.3       11 UNK         0.1400 
     19 N          -0.7327  -23.2702  -43.7562 N.am      11 UNK        -0.5000 
     20 C           0.3654  -23.0821  -44.4997 C.2       10 UNK         0.5000 
     21 O           0.3446  -22.9773  -45.7285 O.2       10 UNK        -0.5000 
     22 CA          1.6996  -22.9881  -43.7255 C.3       10 UNK         0.1400 
     23 CB          2.8972  -22.6995  -44.6476 C.3       10 UNK        -0.1800 
     24 N           1.6522  -21.9662  -42.6753 N.am      10 UNK        -0.5000 
     25 C           1.0570  -22.0940  -41.4809 C.2       9 UNK         0.5000 
     26 O           0.5321  -23.1390  -41.0933 O.2       9 UNK        -0.5000 
     27 CA          0.9654  -20.8275  -40.6077 C.3       9 UNK         0.1400 
     28 CB          2.2977  -20.5389  -39.8998 C.3       9 UNK        -0.1800 
     29 N           0.5508  -19.6566  -41.3820 N.am      9 UNK        -0.5000 
     30 C          -0.6545  -19.5121  -41.9549 C.2       8 UNK         0.5000 
     31 O          -1.5856  -20.3036  -41.8054 O.2       8 UNK        -0.5000 
     32 CA         -0.8396  -18.2969  -42.8813 C.3       8 UNK         0.1400 
     33 CB         -1.2764  -17.0541  -42.0923 C.3       8 UNK        -0.1800 
     34 N           0.3751  -18.0044  -43.6433 N.am      8 UNK        -0.5000 
     35 C           0.8304  -18.7762  -44.6405 C.2       7 UNK         0.5000 
     36 O           0.2194  -19.7453  -45.0832 O.2       7 UNK        -0.5000 
     37 CA          2.2094  -18.4298  -45.2233 C.3       7 UNK         0.1400 
     38 CB          2.0594  -17.4630  -46.4026 C.3       7 UNK        -0.1800 
     39 N           3.1132  -17.8664  -44.2218 N.am      7 UNK        -0.5000 
     40 C           3.7158  -18.5978  -43.2722 C.2       6 UNK         0.5000 
     41 O           3.5798  -19.8162  -43.1725 O.2       6 UNK        -0.5000 
     42 CA          4.5820  -17.8541  -42.2349 C.3       6 UNK         0.1400 
     43 CB          6.0427  -17.7901  -42.7043 C.3       6 UNK        -0.1800 
     44 N           4.1127  -16.4991  -41.9476 N.am      6 UNK        -0.5000 
     45 C           2.9091  -16.1937  -41.4449 C.2       5 UNK         0.5000 
     46 O           2.0931  -17.0402  -41.0780 O.2       5 UNK        -0.5000 
     47 CA          2.5264  -14.6990  -41.4047 C.3       5 UNK         0.1400 
     48 CB          2.7694  -14.1227  -40.0023 C.3       5 UNK        -0.1800 
     49 N           3.2063  -13.8524  -42.3976 N.am      5 UNK        -0.5000 
     50 C           3.1988  -14.0463  -43.7244 C.2       4 UNK         0.5000 
     51 O           2.6831  -15.0262  -44.2637 O.2       4 UNK        -0.5000 
     52 CA          3.9619  -13.0197  -44.5809 C.3       4 UNK         0.1400 
     53 CB          5.4587  -13.3672  -44.6142 C.3       4 UNK        -0.1800 
     54 N           3.4542  -13.0075  -45.9530 N.am      4 UNK        -0.5000 
     55 C           2.3263  -12.3987  -46.3381 C.2       3 UNK         0.5000 
     56 O           1.6805  -11.6448  -45.6045 O.2       3 UNK        -0.5000 
     57 CA          1.8454  -12.6548  -47.7809 C.3       3 UNK         0.1400 
     58 CB          2.2733  -14.0224  -48.3508 C.3       3 UNK        -0.1800 
     59 N           0.3905  -12.5546  -47.8149 N.am      3 UNK        -0.5000 
     60 C          -0.3423  -12.0258  -48.8016 C.2       2 UNK         0.5000 
     61 O           0.1443  -11.5942  -49.8484 O.2       2 UNK        -0.5000 
     62 CA         -1.8685  -11.9289  -48.5685 C.3       2 UNK         0.1400 
     63 CB         -2.6851  -12.0238  -49.8754 C.3       2 UNK        -0.1800 
     64 N          -2.3689  -12.8611  -47.5494 N.am      2 UNK        -0.5000 
     65 C          -2.4196  -14.2015  -47.6200 C.2       1 UNK         0.5000 
     66 O          -2.1433  -14.8431  -48.6335 O.2       1 UNK        -0.5000 
     67 C          -2.2532  -24.4823  -45.2928 C.2       11 UNK         0.5000 
     68 O          -1.8489  -25.6179  -45.0320 O.2       11 UNK        -0.5000 
     69 N          -2.8018  -24.1155  -46.4593 N.am      12 UNK        -0.5000 
     70 CA         -3.0084  -24.9451  -47.6488 C.3       12 UNK         0.1400 
     71 CB         -3.9821  -26.1044  -47.3536 C.3       12 UNK        -0.1800 
     72 C          -1.7024  -25.4103  -48.3302 C.2       12 UNK         0.5000 
     73 O          -1.7441  -26.3493  -49.1267 O.2       12 UNK        -0.5000 
     74 N          -0.5769  -24.7426  -48.0383 N.am      13 UNK        -0.5000 
     75 CA          0.7465  -25.0771  -48.5654 C.3       13 UNK         0.1400 
     76 CB          1.5044  -25.9012  -47.5082 C.3       13 UNK        -0.1800 
     77 C           1.5516  -23.8380  -49.0025 C.2       13 UNK         0.5000 
     78 O           2.7204  -23.9906  -49.3625 O.2       13 UNK        -0.5000 
     79 N           0.9490  -22.6415  -48.9760 N.am      14 UNK        -0.5000 
     80 CA          1.6147  -21.3785  -49.2844 C.3       14 UNK         0.1400 
     81 CB          2.3884  -20.8992  -48.0440 C.3       14 UNK        -0.1800 
     82 C           0.6004  -20.3164  -49.7316 C.2       14 UNK         0.5000 
     83 O          -0.6015  -20.4700  -49.4953 O.2       14 UNK        -0.5000 
     84 N           1.1299  -19.2505  -50.3520 N.am      15 UNK        -0.5000 
     85 CA          0.4490  -18.0349  -50.8099 C.3       15 UNK         0.1400 
     86 CB          0.1959  -17.0882  -49.6201 C.3       15 UNK        -0.1800 
     87 C          -0.8059  -18.3350  -51.6500 C.2       15 UNK         0.5000 
     88 O          -0.6718  -18.8868  -52.7442 O.2       15 UNK        -0.5000 
     89 N          -1.9939  -18.0053  -51.1223 N.am      16 UNK        -0.5000 
     90 CA         -3.3029  -18.2037  -51.7485 C.3       16 UNK         0.1400 
     91 CB         -4.3992  -17.7101  -50.7944 C.3       16 UNK        -0.1800 
     92 C          -3.5942  -19.6518  -52.1811 C.2       16 UNK         0.5000 
     93 O          -4.3389  -19.8452  -53.1420 O.2       16 UNK        -0.5000 
     94 N          -2.9784  -20.6379  -51.5117 N.am      17 UNK        -0.5000 
     95 CA         -3.0682  -22.0568  -51.8615 C.3       17 UNK         0.1400 
     96 CB         -2.3828  -22.8884  -50.7691 C.3       17 UNK        -0.1800 
     97 C          -2.4526  -22.3890  -53.2333 C.2       17 UNK         0.5000 
     98 O          -2.9071  -23.3307  -53.8819 O.2       17 UNK        -0.5000 
     99 N          -1.4448  -21.6116  -53.6475 N.am      18 UNK        -0.5000 
    100 CA        -0.7775  -21.7356  -54.9398 C.3       18 UNK         0.1400 
    101 CB         0.7410  -21.6211  -54.7308 C.3       18 UNK        -0.1800 
    102 C         -1.2708  -20.6567  -55.9158 C.2       18 UNK         0.5000 
    103 O         -1.5243  -20.9624  -57.0810 O.2       18 UNK        -0.5000 
    104 N         -1.3924  -19.4147  -55.4276 N.am      19 UNK        -0.5000 
    105 CA        -1.7025  -18.2342  -56.2334 C.3       19 UNK         0.1400 
    106 CB        -1.3367  -16.9744  -55.4333 C.3       19 UNK        -0.1800 
    107 C         -3.1651  -18.1607  -56.7053 C.2       19 UNK         0.5000 
    108 O         -3.4156  -17.6244  -57.7857 O.2       19 UNK        -0.5000 
    109 N         -4.0986  -18.6728  -55.8932 N.am      20 UNK        -0.5000 
    110 CA        -5.5417  -18.5717  -56.1260 C.3       20 UNK         0.1400 
    111 CB        -6.1174  -17.5219  -55.1574 C.3       20 UNK        -0.1800 
    112 C         -6.2648  -19.9210  -55.9699 C.2       20 UNK         0.5000 
    113 O         -7.4960  -19.9435  -56.0073 O.2       20 UNK        -0.5000 
    114 N         -5.5135  -21.0124  -55.7503 N.am      21 UNK        -0.5000 
    115 CA        -5.9987  -22.3671  -55.4426 C.3       21 UNK         0.1400 
    116 CB        -6.6622  -22.9975  -56.6845 C.3       21 UNK        -0.1800 
    117 C         -6.9048  -22.4187  -54.1883 C.2       21 UNK         0.5000 
    118 O         -7.8218  -23.2383  -54.1169 O.2       21 UNK        -0.5000 
    119 N         -6.6423  -21.5144  -53.2354 N.am      22 UNK        -0.5000 
    120 CA        -7.4615  -21.2151  -52.0516 C.3       22 UNK         0.1400 
    121 C         -8.8210  -20.5061  -52.3534 C.2       22 UNK         0.5000 
    122 N         -9.0749  -20.0201  -53.5630 N.am      22 UNK        -0.7600 
    123 O         -9.6603  -20.3635  -51.4688 O.2       22 UNK        -0.5000 
    124 C124       -7.6037  -22.4297  -51.0873 C.3       23 UNK        -0.0398 
    125 S125       -7.4617  -21.9293  -49.3369 S.3       23 UNK        -0.2404 
    126 C126       -5.8139  -22.5752  -48.9303 C.3       23 UNK        -0.0205 
    127 H127       -0.2276  -12.4074  -43.5766 H         1 UNK         0.0600 
    128 H128       -0.5168  -13.8970  -42.6743 H         1 UNK         0.0600 
    129 H129       -1.8601  -12.8085  -43.0345 H         1 UNK         0.0600 
    130 H130       -3.1752  -13.8792  -44.5186 H         1 UNK         0.3000 
    131 H131       -3.9171  -14.9080  -46.2965 H         1 UNK         0.0600 
    132 H132       -1.4009  -16.5656  -46.7570 H         1 UNK         0.0800 
    133 H133       -2.2465  -16.7484  -45.2513 H         1 UNK         0.0800 
    134 H134       -2.1077  -19.3161  -47.6587 H         1 UNK         0.0800 
    135 H135       -2.1390  -19.1084  -45.9269 H         1 UNK         0.0800 
    136 H136       -3.9977  -20.5448  -48.7938 H         1 UNK         0.1150 
    137 H137       -6.3579  -23.1320  -46.3168 H         1 UNK         0.1150 
    138 H138       -3.7836  -20.2055  -44.5287 H         1 UNK         0.1150 
    139 H139       -5.2497  -21.4822  -43.1209 H         1 UNK         0.0800 
    140 H140       -6.6270  -22.2583  -43.8591 H         1 UNK         0.0800 
    141 H141       -2.7874  -24.2343  -42.3819 H         1 UNK         0.0800 
    142 H142       -3.0921  -22.5277  -42.4907 H         1 UNK         0.0800 
    143 H143       -2.2849  -22.4083  -44.7550 H         1 UNK         0.0600 
    144 H144       -0.6031  -23.3522  -42.7542 H         1 UNK         0.3000 
    145 H145        1.8691  -23.9613  -43.2607 H         1 UNK         0.0600 
    146 H146        3.8324  -22.6882  -44.0878 H         1 UNK         0.0600 
    147 H147        2.7938  -21.7343  -45.1426 H         1 UNK         0.0600 
    148 H148        2.9911  -23.4595  -45.4242 H         1 UNK         0.0600 
    149 H149        2.0906  -21.0796  -42.9043 H         1 UNK         0.3000 
    150 H150        0.2087  -21.0049  -39.8406 H         1 UNK         0.0600 
    151 H151        2.5866  -21.3748  -39.2616 H         1 UNK         0.0600 
    152 H152        2.2245  -19.6547  -39.2661 H         1 UNK         0.0600 
    153 H153        3.1084  -20.3753  -40.6088 H         1 UNK         0.0600 
    154 H154        1.2352  -18.9190  -41.5041 H         1 UNK         0.3000 
    155 H155       -1.6372  -18.5417  -43.5854 H         1 UNK         0.0600 
    156 H156       -2.1864  -17.2546  -41.5256 H         1 UNK         0.0600 
    157 H157       -1.4905  -16.2217  -42.7608 H         1 UNK         0.0600 
    158 H158       -0.5149  -16.7308  -41.3832 H         1 UNK         0.0600 
    159 H159        0.9449  -17.2321  -43.3287 H         1 UNK         0.3000 
    160 H160        2.6583  -19.3499  -45.5992 H         1 UNK         0.0600 
    161 H161        1.4770  -17.9320  -47.1946 H         1 UNK         0.0600 
    162 H162        3.0266  -17.1873  -46.8224 H         1 UNK         0.0600 
    163 H163        1.5399  -16.5496  -46.1111 H         1 UNK         0.0600 
    164 H164        3.2015  -16.8533  -44.2152 H         1 UNK         0.3000 
    165 H165        4.5448  -18.4236  -41.3042 H         1 UNK         0.0600 
    166 H166        6.6827  -17.3419  -41.9441 H         1 UNK         0.0600 
    167 H167        6.4316  -18.7889  -42.9072 H         1 UNK         0.0600 
    168 H168        6.1459  -17.2051  -43.6193 H         1 UNK         0.0600 
    169 H169        4.7155  -15.7408  -42.2294 H         1 UNK         0.3000 
    170 H170        1.4569  -14.6445  -41.6122 H         1 UNK         0.0600 
    171 H171        3.8306  -14.1130  -39.7505 H         1 UNK         0.0600 
    172 H172        2.3949  -13.1019  -39.9241 H         1 UNK         0.0600 
    173 H173        2.2567  -14.7136  -39.2419 H         1 UNK         0.0600 
    174 H174        3.6809  -13.0395  -42.0318 H         1 UNK         0.3000 
    175 H175        3.8383  -12.0280  -44.1406 H         1 UNK         0.0600 
    176 H176        5.6333  -14.3602  -45.0311 H         1 UNK         0.0600 
    177 H177        6.0164  -12.6488  -45.2154 H         1 UNK         0.0600 
    178 H178        5.8887  -13.3519  -43.6120 H         1 UNK         0.0600 
    179 H179        3.8991  -13.6443  -46.5967 H         1 UNK         0.3000 
    180 H180        2.2812  -11.8658  -48.3969 H         1 UNK         0.0600 
    181 H181        1.8610  -14.1780  -49.3479 H         1 UNK         0.0600 
    182 H182        1.9241  -14.8386  -47.7189 H         1 UNK         0.0600 
    183 H183        3.3568  -14.1025  -48.4397 H         1 UNK         0.0600 
    184 H184       -0.0683  -12.8904  -46.9753 H         1 UNK         0.3000 
    185 H185       -2.0364  -10.9318  -48.1591 H         1 UNK         0.0600 
    186 H186       -2.4897  -12.9523  -50.4121 H         1 UNK         0.0600 
    187 H187       -3.7555  -11.9677  -49.6778 H         1 UNK         0.0600 
    188 H188       -2.4378  -11.2032  -50.5497 H         1 UNK         0.0600 
    189 H189       -2.6170  -12.4389  -46.6656 H         1 UNK         0.3000 
    190 H190       -3.1061  -23.1558  -46.5537 H         1 UNK         0.3000 
    191 H191       -3.4998  -24.2994  -48.3744 H         1 UNK         0.0600 
    192 H192       -3.5362  -26.8530  -46.6985 H         1 UNK         0.0600 
    193 H193       -4.2781  -26.6113  -48.2727 H         1 UNK         0.0600 
    194 H194       -4.8933  -25.7412  -46.8778 H         1 UNK         0.0600 
    195 H195       -0.5932  -24.0188  -47.3271 H         1 UNK         0.3000 
    196 H196        0.6468  -25.6884  -49.4643 H         1 UNK         0.0600 
    197 H197        0.9566  -26.8073  -47.2489 H         1 UNK         0.0600 
    198 H198        1.6574  -25.3305  -46.5919 H         1 UNK         0.0600 
    199 H199        2.4848  -26.2101  -47.8725 H         1 UNK         0.0600 
    200 H200       -0.0245  -22.5577  -48.7179 H         1 UNK         0.3000 
    201 H201        2.3125  -21.5321  -50.1104 H         1 UNK         0.0600 
    202 H202        3.1655  -21.6088  -47.7602 H         1 UNK         0.0600 
    203 H203        1.7164  -20.7847  -47.1933 H         1 UNK         0.0600 
    204 H204        2.8755  -19.9393  -48.2179 H         1 UNK         0.0600 
    205 H205        2.1252  -19.2598  -50.5235 H         1 UNK         0.3000 
    206 H206        1.1406  -17.5292  -51.4852 H         1 UNK         0.0600 
    207 H207        1.1376  -16.7895  -49.1624 H         1 UNK         0.0600 
    208 H208       -0.2925  -16.1697  -49.9464 H         1 UNK         0.0600 
    209 H209       -0.4232  -17.5478  -48.8488 H         1 UNK         0.0600 
    210 H210       -2.0008  -17.5687  -50.2111 H         1 UNK         0.3000 
    211 H211       -3.3306  -17.5860  -52.6476 H         1 UNK         0.0600 
    212 H212       -4.2453  -16.6664  -50.5188 H         1 UNK         0.0600 
    213 H213       -4.4265  -18.2982  -49.8766 H         1 UNK         0.0600 
    214 H214       -5.3838  -17.7823  -51.2587 H         1 UNK         0.0600 
    215 H215       -2.3367  -20.3953  -50.7642 H         1 UNK         0.3000 
    216 H216       -4.1249  -22.3273  -51.8967 H         1 UNK         0.0600 
    217 H217       -2.7092  -22.5894  -49.7743 H         1 UNK         0.0600 
    218 H218       -1.2984  -22.7813  -50.8060 H         1 UNK         0.0600 
    219 H219       -2.6094  -23.9479  -50.8921 H         1 UNK         0.0600 
    220 H220       -1.1633  -20.8281  -53.0688 H         1 UNK         0.3000 
    221 H221       -0.9820  -22.7113  -55.3857 H         1 UNK         0.0600 
    222 H222        1.0182  -20.6677  -54.2789 H         1 UNK         0.0600 
    223 H223        1.1079  -22.4163  -54.0817 H         1 UNK         0.0600 
    224 H224        1.2734  -21.7035  -55.6793 H         1 UNK         0.0600 
    225 H225       -1.1404  -19.2415  -54.4570 H         1 UNK         0.3000 
    226 H226       -1.0719  -18.2598  -57.1248 H         1 UNK         0.0600 
    227 H227       -0.2836  -16.9784  -55.1512 H         1 UNK         0.0600 
    228 H228       -1.5123  -16.0725  -56.0211 H         1 UNK         0.0600 
    229 H229       -1.9266  -16.8912  -54.5204 H         1 UNK         0.0600 
    230 H230       -3.8216  -19.0863  -55.0102 H         1 UNK         0.3000 
    231 H231       -5.7448  -18.2421  -57.1466 H         1 UNK         0.0600 
    232 H232       -7.1838  -17.3687  -55.3271 H         1 UNK         0.0600 
    233 H233       -5.6290  -16.5562  -55.2880 H         1 UNK         0.0600 
    234 H234       -5.9905  -17.8232  -54.1169 H         1 UNK         0.0600 
    235 H235       -4.5115  -20.8933  -55.7361 H         1 UNK         0.3000 
    236 H236       -5.1192  -22.9646  -55.2060 H         1 UNK         0.0600 
    237 H237       -7.5919  -22.4925  -56.9480 H         1 UNK         0.0600 
    238 H238       -6.0001  -22.9544  -57.5492 H         1 UNK         0.0600 
    239 H239       -6.8988  -24.0480  -56.5114 H         1 UNK         0.0600 
    240 H240       -5.8553  -20.8859  -53.3790 H         1 UNK         0.3000 
    241 H241       -6.8752  -20.4504  -51.5406 H         1 UNK         0.0600 
    242 H242       -8.4173  -20.1156  -54.3309 H         1 UNK         0.3800 
    243 H243       -9.9558  -19.5597  -53.7271 H         1 UNK         0.3800 
    244 H244       -6.8386  -23.1786  -51.2955 H         1 UNK         0.0800 
    245 H245       -8.5536  -22.9457  -51.2370 H         1 UNK         0.0800 
    246 H246       -5.1458  -22.4116  -49.7742 H         1 UNK         0.0800 
    247 H247       -5.8754  -23.6545  -48.7836 H         1 UNK         0.0800 
@<TRIPOS>BOND
     1    1    2 1    
     2    1  127 1    
     3    1  128 1    
     4    1  129 1    
     5    2    3 2    
     6    2    4 am   BACKBONE|DICT|INTERRES
     7    4    5 1    
     8    4  130 1    
     9    5    6 1    
    10    5   65 1    
    11    5  131 1    
    12    6    7 1    
    13    6  132 1    
    14    6  133 1    
    15    7    8 1    
    16    8    9 1    
    17    8  134 1    
    18    8  135 1    
    19    9   10 ar   
    20    9   14 ar   
    21   10   11 ar   
    22   10  136 1    
    23   11   12 ar   
    24   11  126 1    
    25   12   13 ar   
    26   12  137 1    
    27   13   14 ar   
    28   13   15 1    
    29   14  138 1    
    30   15   16 1    
    31   15  139 1    
    32   15  140 1    
    33   16   17 1    
    34   17   18 1    
    35   17  141 1    
    36   17  142 1    
    37   18   19 1    
    38   18   67 1    
    39   18  143 1    
    40   19   20 am   BACKBONE|DICT|INTERRES
    41   19  144 1    
    42   20   21 2    
    43   20   22 1    
    44   22   23 1    
    45   22   24 1    
    46   22  145 1    
    47   23  146 1    
    48   23  147 1    
    49   23  148 1    
    50   24   25 am   BACKBONE|DICT|INTERRES
    51   24  149 1    
    52   25   26 2    
    53   25   27 1    
    54   27   28 1    
    55   27   29 1    
    56   27  150 1    
    57   28  151 1    
    58   28  152 1    
    59   28  153 1    
    60   29   30 am   BACKBONE|DICT|INTERRES
    61   29  154 1    
    62   30   31 2    
    63   30   32 1    
    64   32   33 1    
    65   32   34 1    
    66   32  155 1    
    67   33  156 1    
    68   33  157 1    
    69   33  158 1    
    70   34   35 am   BACKBONE|DICT|INTERRES
    71   34  159 1    
    72   35   36 2    
    73   35   37 1    
    74   37   38 1    
    75   37   39 1    
    76   37  160 1    
    77   38  161 1    
    78   38  162 1    
    79   38  163 1    
    80   39   40 am   BACKBONE|DICT|INTERRES
    81   39  164 1    
    82   40   41 2    
    83   40   42 1    
    84   42   43 1    
    85   42   44 1    
    86   42  165 1    
    87   43  166 1    
    88   43  167 1    
    89   43  168 1    
    90   44   45 am   BACKBONE|DICT|INTERRES
    91   44  169 1    
    92   45   46 2    
    93   45   47 1    
    94   47   48 1    
    95   47   49 1    
    96   47  170 1    
    97   48  171 1    
    98   48  172 1    
    99   48  173 1    
   100   49   50 am   BACKBONE|DICT|INTERRES
   101   49  174 1    
   102   50   51 2    
   103   50   52 1    
   104   52   53 1    
   105   52   54 1    
   106   52  175 1    
   107   53  176 1    
   108   53  177 1    
   109   53  178 1    
   110   54   55 am   BACKBONE|DICT|INTERRES
   111   54  179 1    
   112   55   56 2    
   113   55   57 1    
   114   57   58 1    
   115   57   59 1    
   116   57  180 1    
   117   58  181 1    
   118   58  182 1    
   119   58  183 1    
   120   59   60 am   BACKBONE|DICT|INTERRES
   121   59  184 1    
   122   60   61 2    
   123   60   62 1    
   124   62   63 1    
   125   62   64 1    
   126   62  185 1    
   127   63  186 1    
   128   63  187 1    
   129   63  188 1    
   130   64   65 am   BACKBONE|DICT|INTERRES
   131   64  189 1    
   132   65   66 2    
   133   67   68 2    
   134   67   69 am   BACKBONE|DICT|INTERRES
   135   69   70 1    
   136   69  190 1    
   137   70   71 1    
   138   70   72 1    
   139   70  191 1    
   140   71  192 1    
   141   71  193 1    
   142   71  194 1    
   143   72   73 2    
   144   72   74 am   BACKBONE|DICT|INTERRES
   145   74   75 1    
   146   74  195 1    
   147   75   76 1    
   148   75   77 1    
   149   75  196 1    
   150   76  197 1    
   151   76  198 1    
   152   76  199 1    
   153   77   78 2    
   154   77   79 am   BACKBONE|DICT|INTERRES
   155   79   80 1    
   156   79  200 1    
   157   80   81 1    
   158   80   82 1    
   159   80  201 1    
   160   81  202 1    
   161   81  203 1    
   162   81  204 1    
   163   82   83 2    
   164   82   84 am   BACKBONE|DICT|INTERRES
   165   84   85 1    
   166   84  205 1    
   167   85   86 1    
   168   85   87 1    
   169   85  206 1    
   170   86  207 1    
   171   86  208 1    
   172   86  209 1    
   173   87   88 2    
   174   87   89 am   BACKBONE|DICT|INTERRES
   175   89   90 1    
   176   89  210 1    
   177   90   91 1    
   178   90   92 1    
   179   90  211 1    
   180   91  212 1    
   181   91  213 1    
   182   91  214 1    
   183   92   93 2    
   184   92   94 am   BACKBONE|DICT|INTERRES
   185   94   95 1    
   186   94  215 1    
   187   95   96 1    
   188   95   97 1    
   189   95  216 1    
   190   96  217 1    
   191   96  218 1    
   192   96  219 1    
   193   97   98 2    
   194   97   99 am   BACKBONE|DICT|INTERRES
   195   99  100 1    
   196   99  220 1    
   197  100  101 1    
   198  100  102 1    
   199  100  221 1    
   200  101  222 1    
   201  101  223 1    
   202  101  224 1    
   203  102  103 2    
   204  102  104 am   BACKBONE|DICT|INTERRES
   205  104  105 1    
   206  104  225 1    
   207  105  106 1    
   208  105  107 1    
   209  105  226 1    
   210  106  227 1    
   211  106  228 1    
   212  106  229 1    
   213  107  108 2    
   214  107  109 am   BACKBONE|DICT|INTERRES
   215  109  110 1    
   216  109  230 1    
   217  110  111 1    
   218  110  112 1    
   219  110  231 1    
   220  111  232 1    
   221  111  233 1    
   222  111  234 1    
   223  112  113 2    
   224  112  114 am   BACKBONE|DICT|INTERRES
   225  114  115 1    
   226  114  235 1    
   227  115  116 1    
   228  115  117 1    
   229  115  236 1    
   230  116  237 1    
   231  116  238 1    
   232  116  239 1    
   233  117  118 2    
   234  117  119 am   BACKBONE|DICT|INTERRES
   235  119  120 1    
   236  119  240 1    
   237  120  121 1    
   238  120  124 1    
   239  120  241 1    
   240  121  122 am   BACKBONE|DICT|INTERRES
   241  121  123 2    
   242  122  242 1    
   243  122  243 1    
   244  124  125 1    
   245  124  244 1    
   246  124  245 1    
   247  125  126 1    
   248  126  246 1    
   249  126  247 1    
@<TRIPOS>SUBSTRUCTURE
     1 UNK         1 GROUP             0       ****    0 ROOT    
