@<TRIPOS>MOLECULE
3R540
247   249    1
SMALL
USER_CHARGES


@<TRIPOS>ATOM
      1 CA          4.3080  -18.9184  -46.5610 C.3       0 UNK        -0.1800 
      2 C           4.1523  -17.4733  -46.1145 C.2       0 UNK         0.5000 
      3 O           3.7430  -17.2240  -44.9796 O.2       0 UNK        -0.5000 
      4 N           4.5094  -16.5162  -46.9816 N.am      1 UNK        -0.5000 
      5 CA          4.4199  -15.0621  -46.7653 C.3       1 UNK         0.1400 
      6 C6          4.3756  -14.2726  -48.1002 C.3       23 UNK        -0.0398 
      7 S7          2.9677  -14.7730  -49.1492 S.3       23 UNK        -0.2404 
      8 C8          3.8150  -15.5548  -50.5558 C.3       23 UNK        -0.0205 
      9 C9          2.8864  -16.5192  -51.2742 C.ar      23 UNK        -0.0193 
     10 C10         2.0644  -16.0781  -52.3144 C.ar      23 UNK        -0.1150 
     11 C11         1.1971  -16.9676  -52.9560 C.ar      23 UNK        -0.0193 
     12 C12         1.1560  -18.3039  -52.5456 C.ar      23 UNK        -0.1150 
     13 C13         1.9802  -18.7644  -51.5143 C.ar      23 UNK        -0.0193 
     14 C14         2.8503  -17.8616  -50.8901 C.ar      23 UNK        -0.1150 
     15 C15         1.9205  -20.2429  -51.1234 C.3       23 UNK        -0.0205 
     16 S16         2.4248  -20.6093  -49.4065 S.3       23 UNK        -0.2404 
     17 C17         1.1282  -19.7323  -48.4724 C.3       23 UNK        -0.0398 
     18 CA          0.2966  -20.6807  -47.5804 C.3       11 UNK         0.1400 
     19 N          -0.3873  -19.9479  -46.5146 N.am      11 UNK        -0.5000 
     20 C          -1.0897  -20.5066  -45.5202 C.2       10 UNK         0.5000 
     21 O          -1.1970  -21.7197  -45.3499 O.2       10 UNK        -0.5000 
     22 CA         -1.8470  -19.5436  -44.5928 C.3       10 UNK         0.1400 
     23 CB         -0.9184  -18.9884  -43.5020 C.3       10 UNK        -0.1800 
     24 N          -2.4689  -18.4505  -45.3435 N.am      10 UNK        -0.5000 
     25 C          -3.4982  -18.6188  -46.1882 C.2       9 UNK         0.5000 
     26 O          -4.0784  -19.6923  -46.3517 O.2       9 UNK        -0.5000 
     27 CA         -3.9111  -17.4025  -47.0360 C.3       9 UNK         0.1400 
     28 CB         -4.9076  -16.5110  -46.2823 C.3       9 UNK        -0.1800 
     29 N          -2.7584  -16.6104  -47.4685 N.am      9 UNK        -0.5000 
     30 C          -1.8762  -17.0342  -48.3862 C.2       8 UNK         0.5000 
     31 O          -1.9595  -18.1223  -48.9508 O.2       8 UNK        -0.5000 
     32 CA         -0.6753  -16.1235  -48.6976 C.3       8 UNK         0.1400 
     33 CB         -1.0319  -15.1390  -49.8176 C.3       8 UNK        -0.1800 
     34 N          -0.1873  -15.3766  -47.5411 N.am      8 UNK        -0.5000 
     35 C           0.2609  -15.9156  -46.4007 C.2       7 UNK         0.5000 
     36 O           0.3064  -17.1287  -46.1925 O.2       7 UNK        -0.5000 
     37 CA          0.7038  -14.9370  -45.2952 C.3       7 UNK         0.1400 
     38 CB          0.9611  -13.4976  -45.7973 C.3       7 UNK        -0.1800 
     39 N          -0.2207  -14.8911  -44.1616 N.am      7 UNK        -0.5000 
     40 C          -1.5467  -14.6768  -44.1847 C.2       6 UNK         0.5000 
     41 O          -2.2175  -14.6290  -45.2166 O.2       6 UNK        -0.5000 
     42 CA         -2.2476  -14.4530  -42.8266 C.3       6 UNK         0.1400 
     43 CB         -3.0460  -15.6942  -42.4025 C.3       6 UNK        -0.1800 
     44 N          -1.3239  -14.1014  -41.7462 N.am      6 UNK        -0.5000 
     45 C          -0.6733  -12.9346  -41.6310 C.2       5 UNK         0.5000 
     46 O          -0.8644  -11.9685  -42.3698 O.2       5 UNK        -0.5000 
     47 CA          0.3956  -12.8462  -40.5216 C.3       5 UNK         0.1400 
     48 CB         -0.1764  -12.1486  -39.2781 C.3       5 UNK        -0.1800 
     49 N           0.9475  -14.1492  -40.1285 N.am      5 UNK        -0.5000 
     50 C           1.6693  -14.9485  -40.9251 C.2       4 UNK         0.5000 
     51 O           1.9524  -14.6793  -42.0957 O.2       4 UNK        -0.5000 
     52 CA          2.0896  -16.2987  -40.3346 C.3       4 UNK         0.1400 
     53 CB          0.9262  -17.3052  -40.4011 C.3       4 UNK        -0.1800 
     54 N           3.2240  -16.8073  -41.0950 N.am      4 UNK        -0.5000 
     55 C           4.1350  -17.6768  -40.6469 C.2       3 UNK         0.5000 
     56 O           4.1076  -18.1759  -39.5210 O.2       3 UNK        -0.5000 
     57 CA          5.2709  -18.0582  -41.6143 C.3       3 UNK         0.1400 
     58 CB          4.9243  -19.3589  -42.3563 C.3       3 UNK        -0.1800 
     59 N           5.5753  -17.0210  -42.6025 N.am      3 UNK        -0.5000 
     60 C           6.2116  -15.8685  -42.3351 C.2       2 UNK         0.5000 
     61 O           6.5676  -15.5383  -41.2036 O.2       2 UNK        -0.5000 
     62 CA          6.5201  -14.9334  -43.5201 C.3       2 UNK         0.1400 
     63 CB          7.9820  -15.1394  -43.9683 C.3       2 UNK        -0.1800 
     64 N           5.5890  -15.1692  -44.6234 N.am      2 UNK        -0.5000 
     65 C           5.5112  -14.5393  -45.7988 C.2       1 UNK         0.5000 
     66 O           6.2445  -13.6058  -46.1286 O.2       1 UNK        -0.5000 
     67 C          -0.6824  -21.5410  -48.4080 C.2       11 UNK         0.5000 
     68 O          -0.4377  -22.7332  -48.5881 O.2       11 UNK        -0.5000 
     69 N          -1.7954  -20.9375  -48.8488 N.am      12 UNK        -0.5000 
     70 CA         -2.8714  -21.6002  -49.5846 C.3       12 UNK         0.1400 
     71 CB         -3.9031  -20.5543  -50.0311 C.3       12 UNK        -0.1800 
     72 C          -3.5415  -22.7237  -48.7740 C.2       12 UNK         0.5000 
     73 O          -3.7848  -23.7999  -49.3202 O.2       12 UNK        -0.5000 
     74 N          -3.7877  -22.4763  -47.4792 N.am      13 UNK        -0.5000 
     75 CA         -4.3136  -23.4655  -46.5386 C.3       13 UNK         0.1400 
     76 CB         -4.6729  -22.7842  -45.2103 C.3       13 UNK        -0.1800 
     77 C          -3.3489  -24.6447  -46.3150 C.2       13 UNK         0.5000 
     78 O          -3.7837  -25.7950  -46.3706 O.2       13 UNK        -0.5000 
     79 N          -2.0564  -24.3481  -46.1146 N.am      14 UNK        -0.5000 
     80 CA         -0.9852  -25.3365  -45.9537 C.3       14 UNK         0.1400 
     81 CB          0.3133  -24.6258  -45.5433 C.3       14 UNK        -0.1800 
     82 C          -0.7597  -26.1955  -47.2125 C.2       14 UNK         0.5000 
     83 O          -0.4966  -27.3927  -47.0941 O.2       14 UNK        -0.5000 
     84 N          -0.9055  -25.5790  -48.3925 N.am      15 UNK        -0.5000 
     85 CA         -0.8613  -26.2350  -49.7004 C.3       15 UNK         0.1400 
     86 CB         -0.6522  -25.1618  -50.7819 C.3       15 UNK        -0.1800 
     87 C          -2.1179  -27.0732  -50.0177 C.2       15 UNK         0.5000 
     88 O          -2.1008  -27.8184  -50.9982 O.2       15 UNK        -0.5000 
     89 N          -3.1804  -26.9244  -49.2097 N.am      16 UNK        -0.5000 
     90 CA         -4.5188  -27.5009  -49.3768 C.3       16 UNK         0.1400 
     91 CB         -4.4847  -29.0372  -49.2398 C.3       16 UNK        -0.1800 
     92 C          -5.2015  -27.0141  -50.6728 C.2       16 UNK         0.5000 
     93 O          -5.8629  -27.7911  -51.3639 O.2       16 UNK        -0.5000 
     94 N          -5.0122  -25.7255  -50.9756 N.am      17 UNK        -0.5000 
     95 CA         -5.4780  -25.0431  -52.1777 C.3       17 UNK         0.1400 
     96 CB         -4.2967  -24.8912  -53.1542 C.3       17 UNK        -0.1800 
     97 C          -6.1074  -23.6929  -51.7962 C.2       17 UNK         0.5000 
     98 O          -5.9284  -22.7083  -52.5102 O.2       17 UNK        -0.5000 
     99 N          -6.8379  -23.6656  -50.6711 N.am      18 UNK        -0.5000 
    100 CA        -7.4414  -22.4746  -50.0585 C.3       18 UNK         0.1400 
    101 CB        -8.1051  -22.8842  -48.7351 C.3       18 UNK        -0.1800 
    102 C         -8.4412  -21.7105  -50.9528 C.2       18 UNK         0.5000 
    103 O         -8.6686  -20.5218  -50.7278 O.2       18 UNK        -0.5000 
    104 N         -9.0106  -22.3979  -51.9511 N.am      19 UNK        -0.5000 
    105 CA        -9.8935  -21.8279  -52.9693 C.3       19 UNK         0.1400 
    106 CB       -10.7321  -22.9653  -53.5750 C.3       19 UNK        -0.1800 
    107 C         -9.1445  -21.0596  -54.0808 C.2       19 UNK         0.5000 
    108 O         -9.7959  -20.3751  -54.8716 O.2       19 UNK        -0.5000 
    109 N         -7.8139  -21.1925  -54.1471 N.am      20 UNK        -0.5000 
    110 CA        -6.9472  -20.5755  -55.1458 C.3       20 UNK         0.1400 
    111 CB        -6.7415  -21.5591  -56.3172 C.3       20 UNK        -0.1800 
    112 C         -5.6453  -20.1158  -54.4631 C.2       20 UNK         0.5000 
    113 O         -5.7133  -19.5310  -53.3793 O.2       20 UNK        -0.5000 
    114 N         -4.4934  -20.3584  -55.1116 N.am      21 UNK        -0.5000 
    115 CA        -3.1265  -20.0935  -54.6359 C.3       21 UNK         0.1400 
    116 CB        -2.7233  -21.1494  -53.5865 C.3       21 UNK        -0.1800 
    117 C         -2.9128  -18.6402  -54.1566 C.2       21 UNK         0.5000 
    118 O         -2.3254  -18.4176  -53.1001 O.2       21 UNK        -0.5000 
    119 N         -3.4479  -17.6979  -54.9456 N.am      22 UNK        -0.5000 
    120 CA        -3.5430  -16.2469  -54.7023 C.3       22 UNK         0.1400 
    121 C         -4.3712  -15.8041  -53.4535 C.2       22 UNK         0.5000 
    122 N         -5.1073  -16.6864  -52.7875 N.am      22 UNK        -0.7600 
    123 O         -4.3985  -14.6237  -53.1151 O.2       22 UNK        -0.5000 
    124 C124       -2.2017  -15.4784  -54.9114 C.3       23 UNK        -0.0398 
    125 S125       -1.0481  -15.4504  -53.4950 S.3       23 UNK        -0.2404 
    126 C126        0.3128  -16.4922  -54.0995 C.3       23 UNK        -0.0205 
    127 H127        4.4703  -18.9933  -47.6363 H         1 UNK         0.0600 
    128 H128        3.4135  -19.4881  -46.3096 H         1 UNK         0.0600 
    129 H129        5.1556  -19.3771  -46.0522 H         1 UNK         0.0600 
    130 H130        4.8730  -16.7903  -47.8819 H         1 UNK         0.3000 
    131 H131        3.4757  -14.8720  -46.2578 H         1 UNK         0.0600 
    132 H132        4.2661  -13.2044  -47.9050 H         1 UNK         0.0800 
    133 H133        5.3127  -14.3845  -48.6480 H         1 UNK         0.0800 
    134 H134        4.1682  -14.7831  -51.2414 H         1 UNK         0.0800 
    135 H135        4.7004  -16.0903  -50.2104 H         1 UNK         0.0800 
    136 H136        2.0903  -15.0411  -52.6186 H         1 UNK         0.1150 
    137 H137        0.4798  -18.9905  -53.0359 H         1 UNK         0.1150 
    138 H138        3.5022  -18.1938  -50.0958 H         1 UNK         0.1150 
    139 H139        0.9100  -20.6275  -51.2733 H         1 UNK         0.0800 
    140 H140        2.5678  -20.8022  -51.7997 H         1 UNK         0.0800 
    141 H141        1.6289  -18.9822  -47.8596 H         1 UNK         0.0800 
    142 H142        0.4861  -19.1701  -49.1511 H         1 UNK         0.0800 
    143 H143        0.9861  -21.3646  -47.0803 H         1 UNK         0.0600 
    144 H144       -0.3106  -18.9350  -46.5353 H         1 UNK         0.3000 
    145 H145       -2.6373  -20.1145  -44.1007 H         1 UNK         0.0600 
    146 H146       -0.3781  -19.7936  -43.0024 H         1 UNK         0.0600 
    147 H147       -0.1761  -18.2983  -43.9025 H         1 UNK         0.0600 
    148 H148       -1.4870  -18.4676  -42.7350 H         1 UNK         0.0600 
    149 H149       -2.0036  -17.5546  -45.3197 H         1 UNK         0.3000 
    150 H150       -4.4152  -17.7812  -47.9280 H         1 UNK         0.0600 
    151 H151       -5.7842  -17.0815  -45.9727 H         1 UNK         0.0600 
    152 H152       -5.2576  -15.6931  -46.9123 H         1 UNK         0.0600 
    153 H153       -4.4665  -16.0764  -45.3870 H         1 UNK         0.0600 
    154 H154       -2.5939  -15.7328  -46.9868 H         1 UNK         0.3000 
    155 H155        0.1401  -16.7577  -49.0510 H         1 UNK         0.0600 
    156 H156       -0.1477  -14.6140  -50.1797 H         1 UNK         0.0600 
    157 H157       -1.7599  -14.3966  -49.4892 H         1 UNK         0.0600 
    158 H158       -1.4663  -15.6680  -50.6658 H         1 UNK         0.0600 
    159 H159       -0.2108  -14.3706  -47.6158 H         1 UNK         0.3000 
    160 H160        1.6423  -15.3300  -44.9030 H         1 UNK         0.0600 
    161 H161        0.0390  -12.9936  -46.0890 H         1 UNK         0.0600 
    162 H162        1.6325  -13.4800  -46.6557 H         1 UNK         0.0600 
    163 H163        1.4264  -12.8967  -45.0156 H         1 UNK         0.0600 
    164 H164        0.2382  -14.9129  -43.2591 H         1 UNK         0.3000 
    165 H165       -2.9495  -13.6276  -42.9625 H         1 UNK         0.0600 
    166 H166       -2.3888  -16.5172  -42.1283 H         1 UNK         0.0600 
    167 H167       -3.6781  -15.4756  -41.5417 H         1 UNK         0.0600 
    168 H168       -3.6998  -16.0438  -43.2010 H         1 UNK         0.0600 
    169 H169       -1.1168  -14.8261  -41.0756 H         1 UNK         0.3000 
    170 H170        1.2160  -12.2382  -40.9088 H         1 UNK         0.0600 
    171 H171       -0.5709  -11.1631  -39.5293 H         1 UNK         0.0600 
    172 H172       -0.9890  -12.7234  -38.8319 H         1 UNK         0.0600 
    173 H173        0.5914  -12.0046  -38.5177 H         1 UNK         0.0600 
    174 H174        0.7520  -14.4483  -39.1836 H         1 UNK         0.3000 
    175 H175        2.3878  -16.1432  -39.2956 H         1 UNK         0.0600 
    176 H176        0.6060  -17.4769  -41.4292 H         1 UNK         0.0600 
    177 H177        1.2099  -18.2680  -39.9759 H         1 UNK         0.0600 
    178 H178        0.0612  -16.9487  -39.8408 H         1 UNK         0.0600 
    179 H179        3.3252  -16.4066  -42.0190 H         1 UNK         0.3000 
    180 H180        6.1676  -18.2354  -41.0166 H         1 UNK         0.0600 
    181 H181        4.0374  -19.2417  -42.9807 H         1 UNK         0.0600 
    182 H182        4.7257  -20.1691  -41.6534 H         1 UNK         0.0600 
    183 H183        5.7458  -19.6797  -42.9971 H         1 UNK         0.0600 
    184 H184        5.2918  -17.2318  -43.5494 H         1 UNK         0.3000 
    185 H185        6.3902  -13.9057  -43.1761 H         1 UNK         0.0600 
    186 H186        8.2920  -14.3928  -44.6985 H         1 UNK         0.0600 
    187 H187        8.6670  -15.0552  -43.1234 H         1 UNK         0.0600 
    188 H188        8.1287  -16.1247  -44.4122 H         1 UNK         0.0600 
    189 H189        4.8916  -15.8925  -44.4700 H         1 UNK         0.3000 
    190 H190       -1.9020  -19.9346  -48.7080 H         1 UNK         0.3000 
    191 H191       -2.4321  -22.0489  -50.4776 H         1 UNK         0.0600 
    192 H192       -4.6622  -21.0035  -50.6704 H         1 UNK         0.0600 
    193 H193       -3.4337  -19.7587  -50.6108 H         1 UNK         0.0600 
    194 H194       -4.4097  -20.0943  -49.1822 H         1 UNK         0.0600 
    195 H195       -3.5983  -21.5509  -47.1089 H         1 UNK         0.3000 
    196 H196       -5.2326  -23.8713  -46.9658 H         1 UNK         0.0600 
    197 H197       -5.0843  -23.5033  -44.5010 H         1 UNK         0.0600 
    198 H198       -5.4231  -22.0071  -45.3577 H         1 UNK         0.0600 
    199 H199       -3.8024  -22.3233  -44.7436 H         1 UNK         0.0600 
    200 H200       -1.7814  -23.3711  -46.0440 H         1 UNK         0.3000 
    201 H201       -1.2741  -26.0093  -45.1436 H         1 UNK         0.0600 
    202 H202        0.1875  -24.0880  -44.6035 H         1 UNK         0.0600 
    203 H203        0.6348  -23.9077  -46.2984 H         1 UNK         0.0600 
    204 H204        1.1242  -25.3414  -45.4027 H         1 UNK         0.0600 
    205 H205       -1.0390  -24.5711  -48.3990 H         1 UNK         0.3000 
    206 H206       -0.0040  -26.9109  -49.7184 H         1 UNK         0.0600 
    207 H207        0.2654  -24.5995  -50.6081 H         1 UNK         0.0600 
    208 H208       -0.5750  -25.6104  -51.7730 H         1 UNK         0.0600 
    209 H209       -1.4799  -24.4522  -50.8070 H         1 UNK         0.0600 
    210 H210       -3.0866  -26.2847  -48.4307 H         1 UNK         0.3000 
    211 H211       -5.1202  -27.1122  -48.5539 H         1 UNK         0.0600 
    212 H212       -3.9542  -29.5091  -50.0672 H         1 UNK         0.0600 
    213 H213       -5.4943  -29.4491  -49.2232 H         1 UNK         0.0600 
    214 H214       -3.9968  -29.3382  -48.3127 H         1 UNK         0.0600 
    215 H215       -4.4824  -25.1407  -50.3289 H         1 UNK         0.3000 
    216 H216       -6.2613  -25.6250  -52.6669 H         1 UNK         0.0600 
    217 H217       -4.6103  -24.4149  -54.0840 H         1 UNK         0.0600 
    218 H218       -3.8730  -25.8617  -53.4127 H         1 UNK         0.0600 
    219 H219       -3.5001  -24.2838  -52.7226 H         1 UNK         0.0600 
    220 H220       -6.9301  -24.5275  -50.1539 H         1 UNK         0.3000 
    221 H221       -6.6332  -21.7821  -49.8230 H         1 UNK         0.0600 
    222 H222       -8.9063  -23.6068  -48.8947 H         1 UNK         0.0600 
    223 H223       -7.3820  -23.3280  -48.0511 H         1 UNK         0.0600 
    224 H224       -8.5378  -22.0198  -48.2296 H         1 UNK         0.0600 
    225 H225       -8.7665  -23.3712  -52.0571 H         1 UNK         0.3000 
    226 H226      -10.5745  -21.1228  -52.4882 H         1 UNK         0.0600 
    227 H227      -11.3126  -23.4792  -52.8086 H         1 UNK         0.0600 
    228 H228      -11.4389  -22.5819  -54.3121 H         1 UNK         0.0600 
    229 H229      -10.1052  -23.7044  -54.0753 H         1 UNK         0.0600 
    230 H230       -7.3231  -21.7167  -53.4270 H         1 UNK         0.3000 
    231 H231       -7.4187  -19.6704  -55.5336 H         1 UNK         0.0600 
    232 H232       -6.1673  -21.1056  -57.1257 H         1 UNK         0.0600 
    233 H233       -7.6979  -21.8630  -56.7433 H         1 UNK         0.0600 
    234 H234       -6.2222  -22.4634  -55.9963 H         1 UNK         0.0600 
    235 H235       -4.5548  -20.8254  -56.0053 H         1 UNK         0.3000 
    236 H236       -2.4669  -20.2218  -55.4953 H         1 UNK         0.0600 
    237 H237       -2.7669  -22.1541  -54.0062 H         1 UNK         0.0600 
    238 H238       -1.7053  -20.9911  -53.2283 H         1 UNK         0.0600 
    239 H239       -3.3869  -21.1250  -52.7240 H         1 UNK         0.0600 
    240 H240       -3.9296  -18.0179  -55.7732 H         1 UNK         0.3000 
    241 H241       -4.1793  -15.9179  -55.5245 H         1 UNK         0.0600 
    242 H242       -5.1231  -17.6684  -53.0453 H         1 UNK         0.3800 
    243 H243       -5.6494  -16.3750  -51.9986 H         1 UNK         0.3800 
    244 H244       -1.6891  -15.8612  -55.7945 H         1 UNK         0.0800 
    245 H245       -2.4267  -14.4370  -55.1461 H         1 UNK         0.0800 
    246 H246        0.9091  -15.9291  -54.8186 H         1 UNK         0.0800 
    247 H247       -0.0974  -17.3478  -54.6378 H         1 UNK         0.0800 
@<TRIPOS>BOND
     1    1    2 1    
     2    1  127 1    
     3    1  128 1    
     4    1  129 1    
     5    2    3 2    
     6    2    4 am   BACKBONE|DICT|INTERRES
     7    4    5 1    
     8    4  130 1    
     9    5    6 1    
    10    5   65 1    
    11    5  131 1    
    12    6    7 1    
    13    6  132 1    
    14    6  133 1    
    15    7    8 1    
    16    8    9 1    
    17    8  134 1    
    18    8  135 1    
    19    9   10 ar   
    20    9   14 ar   
    21   10   11 ar   
    22   10  136 1    
    23   11   12 ar   
    24   11  126 1    
    25   12   13 ar   
    26   12  137 1    
    27   13   14 ar   
    28   13   15 1    
    29   14  138 1    
    30   15   16 1    
    31   15  139 1    
    32   15  140 1    
    33   16   17 1    
    34   17   18 1    
    35   17  141 1    
    36   17  142 1    
    37   18   19 1    
    38   18   67 1    
    39   18  143 1    
    40   19   20 am   BACKBONE|DICT|INTERRES
    41   19  144 1    
    42   20   21 2    
    43   20   22 1    
    44   22   23 1    
    45   22   24 1    
    46   22  145 1    
    47   23  146 1    
    48   23  147 1    
    49   23  148 1    
    50   24   25 am   BACKBONE|DICT|INTERRES
    51   24  149 1    
    52   25   26 2    
    53   25   27 1    
    54   27   28 1    
    55   27   29 1    
    56   27  150 1    
    57   28  151 1    
    58   28  152 1    
    59   28  153 1    
    60   29   30 am   BACKBONE|DICT|INTERRES
    61   29  154 1    
    62   30   31 2    
    63   30   32 1    
    64   32   33 1    
    65   32   34 1    
    66   32  155 1    
    67   33  156 1    
    68   33  157 1    
    69   33  158 1    
    70   34   35 am   BACKBONE|DICT|INTERRES
    71   34  159 1    
    72   35   36 2    
    73   35   37 1    
    74   37   38 1    
    75   37   39 1    
    76   37  160 1    
    77   38  161 1    
    78   38  162 1    
    79   38  163 1    
    80   39   40 am   BACKBONE|DICT|INTERRES
    81   39  164 1    
    82   40   41 2    
    83   40   42 1    
    84   42   43 1    
    85   42   44 1    
    86   42  165 1    
    87   43  166 1    
    88   43  167 1    
    89   43  168 1    
    90   44   45 am   BACKBONE|DICT|INTERRES
    91   44  169 1    
    92   45   46 2    
    93   45   47 1    
    94   47   48 1    
    95   47   49 1    
    96   47  170 1    
    97   48  171 1    
    98   48  172 1    
    99   48  173 1    
   100   49   50 am   BACKBONE|DICT|INTERRES
   101   49  174 1    
   102   50   51 2    
   103   50   52 1    
   104   52   53 1    
   105   52   54 1    
   106   52  175 1    
   107   53  176 1    
   108   53  177 1    
   109   53  178 1    
   110   54   55 am   BACKBONE|DICT|INTERRES
   111   54  179 1    
   112   55   56 2    
   113   55   57 1    
   114   57   58 1    
   115   57   59 1    
   116   57  180 1    
   117   58  181 1    
   118   58  182 1    
   119   58  183 1    
   120   59   60 am   BACKBONE|DICT|INTERRES
   121   59  184 1    
   122   60   61 2    
   123   60   62 1    
   124   62   63 1    
   125   62   64 1    
   126   62  185 1    
   127   63  186 1    
   128   63  187 1    
   129   63  188 1    
   130   64   65 am   BACKBONE|DICT|INTERRES
   131   64  189 1    
   132   65   66 2    
   133   67   68 2    
   134   67   69 am   BACKBONE|DICT|INTERRES
   135   69   70 1    
   136   69  190 1    
   137   70   71 1    
   138   70   72 1    
   139   70  191 1    
   140   71  192 1    
   141   71  193 1    
   142   71  194 1    
   143   72   73 2    
   144   72   74 am   BACKBONE|DICT|INTERRES
   145   74   75 1    
   146   74  195 1    
   147   75   76 1    
   148   75   77 1    
   149   75  196 1    
   150   76  197 1    
   151   76  198 1    
   152   76  199 1    
   153   77   78 2    
   154   77   79 am   BACKBONE|DICT|INTERRES
   155   79   80 1    
   156   79  200 1    
   157   80   81 1    
   158   80   82 1    
   159   80  201 1    
   160   81  202 1    
   161   81  203 1    
   162   81  204 1    
   163   82   83 2    
   164   82   84 am   BACKBONE|DICT|INTERRES
   165   84   85 1    
   166   84  205 1    
   167   85   86 1    
   168   85   87 1    
   169   85  206 1    
   170   86  207 1    
   171   86  208 1    
   172   86  209 1    
   173   87   88 2    
   174   87   89 am   BACKBONE|DICT|INTERRES
   175   89   90 1    
   176   89  210 1    
   177   90   91 1    
   178   90   92 1    
   179   90  211 1    
   180   91  212 1    
   181   91  213 1    
   182   91  214 1    
   183   92   93 2    
   184   92   94 am   BACKBONE|DICT|INTERRES
   185   94   95 1    
   186   94  215 1    
   187   95   96 1    
   188   95   97 1    
   189   95  216 1    
   190   96  217 1    
   191   96  218 1    
   192   96  219 1    
   193   97   98 2    
   194   97   99 am   BACKBONE|DICT|INTERRES
   195   99  100 1    
   196   99  220 1    
   197  100  101 1    
   198  100  102 1    
   199  100  221 1    
   200  101  222 1    
   201  101  223 1    
   202  101  224 1    
   203  102  103 2    
   204  102  104 am   BACKBONE|DICT|INTERRES
   205  104  105 1    
   206  104  225 1    
   207  105  106 1    
   208  105  107 1    
   209  105  226 1    
   210  106  227 1    
   211  106  228 1    
   212  106  229 1    
   213  107  108 2    
   214  107  109 am   BACKBONE|DICT|INTERRES
   215  109  110 1    
   216  109  230 1    
   217  110  111 1    
   218  110  112 1    
   219  110  231 1    
   220  111  232 1    
   221  111  233 1    
   222  111  234 1    
   223  112  113 2    
   224  112  114 am   BACKBONE|DICT|INTERRES
   225  114  115 1    
   226  114  235 1    
   227  115  116 1    
   228  115  117 1    
   229  115  236 1    
   230  116  237 1    
   231  116  238 1    
   232  116  239 1    
   233  117  118 2    
   234  117  119 am   BACKBONE|DICT|INTERRES
   235  119  120 1    
   236  119  240 1    
   237  120  121 1    
   238  120  124 1    
   239  120  241 1    
   240  121  122 am   BACKBONE|DICT|INTERRES
   241  121  123 2    
   242  122  242 1    
   243  122  243 1    
   244  124  125 1    
   245  124  244 1    
   246  124  245 1    
   247  125  126 1    
   248  126  246 1    
   249  126  247 1    
@<TRIPOS>SUBSTRUCTURE
     1 UNK         1 GROUP             0       ****    0 ROOT    
