@<TRIPOS>MOLECULE
3R540
247   249    1
SMALL
USER_CHARGES


@<TRIPOS>ATOM
      1 CA         -1.5112  -10.3956  -47.6352 C.3       0 UNK        -0.1800 
      2 C          -0.6589  -11.5982  -48.0150 C.2       0 UNK         0.5000 
      3 O          -0.4805  -12.4989  -47.1954 O.2       0 UNK        -0.5000 
      4 N          -0.1375  -11.6087  -49.2504 N.am      1 UNK        -0.5000 
      5 CA          0.7424  -12.6402  -49.8184 C.3       1 UNK         0.1400 
      6 C6          0.0484  -14.0214  -49.9825 C.3       23 UNK        -0.0398 
      7 S7         -1.4501  -13.9839  -51.0209 S.3       23 UNK        -0.2404 
      8 C8         -2.1467  -15.6332  -50.6681 C.3       23 UNK        -0.0205 
      9 C9         -1.1203  -16.7390  -50.8759 C.ar      23 UNK        -0.0193 
     10 C10        -0.7374  -17.1065  -52.1676 C.ar      23 UNK        -0.1150 
     11 C11         0.2664  -18.0567  -52.3676 C.ar      23 UNK        -0.0193 
     12 C12         0.8738  -18.6514  -51.2563 C.ar      23 UNK        -0.1150 
     13 C13         0.4794  -18.3244  -49.9529 C.ar      23 UNK        -0.0193 
     14 C14        -0.5198  -17.3584  -49.7753 C.ar      23 UNK        -0.1150 
     15 C15         1.1944  -19.0098  -48.7828 C.3       23 UNK        -0.0205 
     16 S16         0.4764  -18.7638  -47.1170 S.3       23 UNK        -0.2404 
     17 C17        -1.0420  -19.7738  -47.1893 C.3       23 UNK        -0.0398 
     18 CA         -0.8159  -21.2401  -46.7437 C.3       11 UNK         0.1400 
     19 N          -0.2652  -21.3450  -45.3860 N.am      11 UNK        -0.5000 
     20 C           0.1710  -22.4749  -44.8077 C.2       10 UNK         0.5000 
     21 O           0.1226  -23.5817  -45.3456 O.2       10 UNK        -0.5000 
     22 CA          0.6906  -22.3556  -43.3670 C.3       10 UNK         0.1400 
     23 CB          2.1847  -22.0029  -43.3545 C.3       10 UNK        -0.1800 
     24 N          -0.0521  -21.3545  -42.6041 N.am      10 UNK        -0.5000 
     25 C          -1.3080  -21.5084  -42.1626 C.2       9 UNK         0.5000 
     26 O          -1.9700  -22.5286  -42.3554 O.2       9 UNK        -0.5000 
     27 CA         -1.9289  -20.3143  -41.4077 C.3       9 UNK         0.1400 
     28 CB         -3.0666  -20.7279  -40.4518 C.3       9 UNK        -0.1800 
     29 N          -0.9299  -19.4904  -40.7208 N.am      9 UNK        -0.5000 
     30 C          -0.1158  -19.8465  -39.7148 C.2       8 UNK         0.5000 
     31 O          -0.1516  -20.9442  -39.1577 O.2       8 UNK        -0.5000 
     32 CA          0.9421  -18.8150  -39.2676 C.3       8 UNK         0.1400 
     33 CB          2.3482  -19.2891  -39.6685 C.3       8 UNK        -0.1800 
     34 N           0.7217  -17.4754  -39.8185 N.am      8 UNK        -0.5000 
     35 C          -0.2383  -16.6316  -39.4154 C.2       7 UNK         0.5000 
     36 O          -0.9965  -16.8595  -38.4723 O.2       7 UNK        -0.5000 
     37 CA         -0.4054  -15.3340  -40.2274 C.3       7 UNK         0.1400 
     38 CB          0.5310  -14.2414  -39.6901 C.3       7 UNK        -0.1800 
     39 N          -0.1757  -15.5201  -41.6639 N.am      7 UNK        -0.5000 
     40 C          -0.9410  -16.2706  -42.4714 C.2       6 UNK         0.5000 
     41 O          -1.9438  -16.8743  -42.0914 O.2       6 UNK        -0.5000 
     42 CA         -0.4806  -16.4253  -43.9328 C.3       6 UNK         0.1400 
     43 CB         -0.8380  -15.1869  -44.7670 C.3       6 UNK        -0.1800 
     44 N           0.9521  -16.6889  -44.0351 N.am      6 UNK        -0.5000 
     45 C           1.5588  -17.7929  -43.5803 C.2       5 UNK         0.5000 
     46 O           0.9642  -18.7408  -43.0666 O.2       5 UNK        -0.5000 
     47 CA          3.0923  -17.8246  -43.6788 C.3       5 UNK         0.1400 
     48 CB          3.5452  -18.3054  -45.0655 C.3       5 UNK        -0.1800 
     49 N           3.6827  -16.5165  -43.3937 N.am      5 UNK        -0.5000 
     50 C           3.7151  -15.9501  -42.1795 C.2       4 UNK         0.5000 
     51 O           3.2718  -16.4852  -41.1637 O.2       4 UNK        -0.5000 
     52 CA          4.3093  -14.5318  -42.0950 C.3       4 UNK         0.1400 
     53 CB          5.8441  -14.5854  -42.0711 C.3       4 UNK        -0.1800 
     54 N           3.8690  -13.6682  -43.1921 N.am      4 UNK        -0.5000 
     55 C           2.6060  -13.2534  -43.3611 C.2       3 UNK         0.5000 
     56 O           1.6870  -13.5369  -42.5952 O.2       3 UNK        -0.5000 
     57 CA          2.3045  -12.4166  -44.6171 C.3       3 UNK         0.1400 
     58 CB          2.5688  -10.9273  -44.3518 C.3       3 UNK        -0.1800 
     59 N           3.0301  -12.8292  -45.8213 N.am      3 UNK        -0.5000 
     60 C           3.0245  -14.0598  -46.3497 C.2       2 UNK         0.5000 
     61 O           2.5197  -15.0416  -45.8042 O.2       2 UNK        -0.5000 
     62 CA          3.6161  -14.1930  -47.7631 C.3       2 UNK         0.1400 
     63 CB          4.1832  -15.5996  -48.0244 C.3       2 UNK        -0.1800 
     64 N           2.5536  -13.9278  -48.7272 N.am      2 UNK        -0.5000 
     65 C           2.0739  -12.7129  -49.0290 C.2       1 UNK         0.5000 
     66 O           2.6365  -11.6665  -48.6943 O.2       1 UNK        -0.5000 
     67 C          -2.1047  -22.0686  -46.9417 C.2       11 UNK         0.5000 
     68 O          -2.3972  -22.4596  -48.0712 O.2       11 UNK        -0.5000 
     69 N          -2.8283  -22.3756  -45.8548 N.am      12 UNK        -0.5000 
     70 CA         -3.9909  -23.2673  -45.8587 C.3       12 UNK         0.1400 
     71 CB         -4.6480  -23.2540  -44.4713 C.3       12 UNK        -0.1800 
     72 C          -3.6503  -24.7104  -46.2836 C.2       12 UNK         0.5000 
     73 O          -4.4978  -25.3774  -46.8768 O.2       12 UNK        -0.5000 
     74 N          -2.4176  -25.1497  -45.9965 N.am      13 UNK        -0.5000 
     75 CA         -1.8913  -26.4585  -46.3724 C.3       13 UNK         0.1400 
     76 CB         -1.1783  -27.0811  -45.1610 C.3       13 UNK        -0.1800 
     77 C          -0.9310  -26.3412  -47.5659 C.2       13 UNK         0.5000 
     78 O          -1.0883  -27.0704  -48.5448 O.2       13 UNK        -0.5000 
     79 N           0.0445  -25.4268  -47.4686 N.am      14 UNK        -0.5000 
     80 CA          1.1520  -25.2817  -48.4173 C.3       14 UNK         0.1400 
     81 CB          2.2375  -24.3991  -47.7809 C.3       14 UNK        -0.1800 
     82 C           0.7396  -24.7094  -49.7848 C.2       14 UNK         0.5000 
     83 O           1.3882  -25.0123  -50.7868 O.2       14 UNK        -0.5000 
     84 N          -0.3172  -23.8908  -49.7968 N.am      15 UNK        -0.5000 
     85 CA         -0.8383  -23.1953  -50.9735 C.3       15 UNK         0.1400 
     86 CB         -0.5963  -21.6889  -50.7787 C.3       15 UNK        -0.1800 
     87 C          -2.3219  -23.5202  -51.2264 C.2       15 UNK         0.5000 
     88 O          -2.9439  -22.8782  -52.0750 O.2       15 UNK        -0.5000 
     89 N          -2.8678  -24.4900  -50.4738 N.am      16 UNK        -0.5000 
     90 CA         -4.2588  -24.9593  -50.4854 C.3       16 UNK         0.1400 
     91 CB         -4.5311  -25.7823  -51.7596 C.3       16 UNK        -0.1800 
     92 C          -5.2933  -23.8334  -50.2581 C.2       16 UNK         0.5000 
     93 O          -6.3766  -23.8624  -50.8432 O.2       16 UNK        -0.5000 
     94 N          -4.9182  -22.8535  -49.4219 N.am      17 UNK        -0.5000 
     95 CA         -5.6491  -21.6275  -49.0841 C.3       17 UNK         0.1400 
     96 CB         -7.0289  -21.9359  -48.4649 C.3       17 UNK        -0.1800 
     97 C          -5.7184  -20.5989  -50.2334 C.2       17 UNK         0.5000 
     98 O          -6.5143  -19.6616  -50.1524 O.2       17 UNK        -0.5000 
     99 N          -4.8514  -20.7545  -51.2460 N.am      18 UNK        -0.5000 
    100 CA        -4.6567  -19.8602  -52.3882 C.3       18 UNK         0.1400 
    101 CB        -4.0441  -18.5248  -51.9136 C.3       18 UNK        -0.1800 
    102 C         -5.9259  -19.7164  -53.2560 C.2       18 UNK         0.5000 
    103 O         -6.5988  -20.7200  -53.5028 O.2       18 UNK        -0.5000 
    104 N         -6.2151  -18.4934  -53.7243 N.am      19 UNK        -0.5000 
    105 CA        -7.3505  -18.1010  -54.5644 C.3       19 UNK         0.1400 
    106 CB        -8.6734  -18.1987  -53.7720 C.3       19 UNK        -0.1800 
    107 C         -7.3725  -18.8672  -55.9025 C.2       19 UNK         0.5000 
    108 O         -6.6749  -18.4716  -56.8368 O.2       19 UNK        -0.5000 
    109 N         -8.1605  -19.9481  -55.9696 N.am      20 UNK        -0.5000 
    110 CA        -8.2457  -20.8541  -57.1152 C.3       20 UNK         0.1400 
    111 CB        -9.5082  -21.7180  -56.9706 C.3       20 UNK        -0.1800 
    112 C         -6.9976  -21.7450  -57.2820 C.2       20 UNK         0.5000 
    113 O         -6.7455  -22.2162  -58.3920 O.2       20 UNK        -0.5000 
    114 N         -6.2527  -21.9686  -56.1901 N.am      21 UNK        -0.5000 
    115 CA        -4.9932  -22.7067  -56.1708 C.3       21 UNK         0.1400 
    116 CB        -4.8798  -23.4651  -54.8343 C.3       21 UNK        -0.1800 
    117 C         -3.8234  -21.7414  -56.4494 C.2       21 UNK         0.5000 
    118 O         -3.6618  -21.3040  -57.5895 O.2       21 UNK        -0.5000 
    119 N         -3.0210  -21.4400  -55.4204 N.am      22 UNK        -0.5000 
    120 CA        -1.8919  -20.4963  -55.4593 C.3       22 UNK         0.1400 
    121 C         -2.3168  -19.0539  -55.8570 C.2       22 UNK         0.5000 
    122 N         -1.5954  -18.4098  -56.7641 N.am      22 UNK        -0.7600 
    123 O         -3.2721  -18.5037  -55.3164 O.2       22 UNK        -0.5000 
    124 C124       -1.1490  -20.4979  -54.1002 C.3       23 UNK        -0.0398 
    125 S125        0.6357  -20.1493  -54.2189 S.3       23 UNK        -0.2404 
    126 C126        0.7316  -18.3798  -53.7844 C.3       23 UNK        -0.0205 
    127 H127       -1.5892   -9.6783  -48.4526 H         1 UNK         0.0600 
    128 H128       -1.0768   -9.8858  -46.7752 H         1 UNK         0.0600 
    129 H129       -2.5176  -10.7189  -47.3691 H         1 UNK         0.0600 
    130 H130       -0.3137  -10.8213  -49.8579 H         1 UNK         0.3000 
    131 H131        1.0132  -12.2897  -50.8154 H         1 UNK         0.0600 
    132 H132        0.7317  -14.7270  -50.4580 H         1 UNK         0.0800 
    133 H133       -0.2142  -14.4407  -49.0095 H         1 UNK         0.0800 
    134 H134       -3.0050  -15.8018  -51.3192 H         1 UNK         0.0800 
    135 H135       -2.5289  -15.6494  -49.6462 H         1 UNK         0.0800 
    136 H136       -1.1985  -16.6206  -53.0163 H         1 UNK         0.1150 
    137 H137        1.6635  -19.3733  -51.4108 H         1 UNK         0.1150 
    138 H138       -0.8200  -17.0588  -48.7822 H         1 UNK         0.1150 
    139 H139        1.2637  -20.0811  -48.9747 H         1 UNK         0.0800 
    140 H140        2.2201  -18.6400  -48.7566 H         1 UNK         0.0800 
    141 H141       -1.4444  -19.7280  -48.2026 H         1 UNK         0.0800 
    142 H142       -1.7874  -19.2965  -46.5509 H         1 UNK         0.0800 
    143 H143       -0.0717  -21.6756  -47.4132 H         1 UNK         0.0600 
    144 H144       -0.1739  -20.4800  -44.8718 H         1 UNK         0.3000 
    145 H145        0.5635  -23.3261  -42.8827 H         1 UNK         0.0600 
    146 H146        2.5700  -21.9576  -42.3357 H         1 UNK         0.0600 
    147 H147        2.7672  -22.7529  -43.8911 H         1 UNK         0.0600 
    148 H148        2.3754  -21.0395  -43.8265 H         1 UNK         0.0600 
    149 H149        0.3946  -20.4489  -42.4829 H         1 UNK         0.3000 
    150 H150       -2.3653  -19.6740  -42.1752 H         1 UNK         0.0600 
    151 H151       -3.8834  -21.2004  -40.9986 H         1 UNK         0.0600 
    152 H152       -3.4812  -19.8619  -39.9359 H         1 UNK         0.0600 
    153 H153       -2.7266  -21.4381  -39.6977 H         1 UNK         0.0600 
    154 H154       -0.8080  -18.5637  -41.1089 H         1 UNK         0.3000 
    155 H155        0.8997  -18.7535  -38.1783 H         1 UNK         0.0600 
    156 H156        2.4518  -19.3678  -40.7510 H         1 UNK         0.0600 
    157 H157        2.5682  -20.2704  -39.2460 H         1 UNK         0.0600 
    158 H158        3.1140  -18.6026  -39.3073 H         1 UNK         0.0600 
    159 H159        1.3483  -17.1836  -40.5604 H         1 UNK         0.3000 
    160 H160       -1.4344  -14.9933  -40.0961 H         1 UNK         0.0600 
    161 H161        1.5795  -14.5008  -39.8419 H         1 UNK         0.0600 
    162 H162        0.3809  -14.0867  -38.6209 H         1 UNK         0.0600 
    163 H163        0.3468  -13.2875  -40.1843 H         1 UNK         0.0600 
    164 H164        0.6082  -15.0094  -42.0625 H         1 UNK         0.3000 
    165 H165       -1.0056  -17.2822  -44.3605 H         1 UNK         0.0600 
    166 H166       -0.5398  -15.3127  -45.8084 H         1 UNK         0.0600 
    167 H167       -1.9131  -15.0046  -44.7550 H         1 UNK         0.0600 
    168 H168       -0.3491  -14.2900  -44.3879 H         1 UNK         0.0600 
    169 H169        1.5169  -15.9887  -44.5094 H         1 UNK         0.3000 
    170 H170        3.4595  -18.5368  -42.9370 H         1 UNK         0.0600 
    171 H171        3.1388  -19.2917  -45.2911 H         1 UNK         0.0600 
    172 H172        3.2120  -17.6321  -45.8549 H         1 UNK         0.0600 
    173 H173        4.6310  -18.3795  -45.1233 H         1 UNK         0.0600 
    174 H174        3.9831  -15.9743  -44.1911 H         1 UNK         0.3000 
    175 H175        3.9705  -14.0865  -41.1570 H         1 UNK         0.0600 
    176 H176        6.2493  -14.9945  -42.9974 H         1 UNK         0.0600 
    177 H177        6.2708  -13.5925  -41.9275 H         1 UNK         0.0600 
    178 H178        6.1994  -15.2122  -41.2521 H         1 UNK         0.0600 
    179 H179        4.5617  -13.3970  -43.8742 H         1 UNK         0.3000 
    180 H180        1.2411  -12.5332  -44.8344 H         1 UNK         0.0600 
    181 H181        3.6278  -10.7307  -44.1805 H         1 UNK         0.0600 
    182 H182        2.0234  -10.5839  -43.4717 H         1 UNK         0.0600 
    183 H183        2.2439  -10.3141  -45.1928 H         1 UNK         0.0600 
    184 H184        3.4195  -12.0816  -46.3793 H         1 UNK         0.3000 
    185 H185        4.4229  -13.4671  -47.8849 H         1 UNK         0.0600 
    186 H186        4.9452  -15.8566  -47.2876 H         1 UNK         0.0600 
    187 H187        3.4083  -16.3660  -47.9774 H         1 UNK         0.0600 
    188 H188        4.6485  -15.6583  -49.0083 H         1 UNK         0.0600 
    189 H189        2.0305  -14.7393  -49.0194 H         1 UNK         0.3000 
    190 H190       -2.5137  -22.0486  -44.9527 H         1 UNK         0.3000 
    191 H191       -4.7127  -22.8736  -46.5742 H         1 UNK         0.0600 
    192 H192       -4.9165  -22.2419  -44.1683 H         1 UNK         0.0600 
    193 H193       -5.5632  -23.8475  -44.4692 H         1 UNK         0.0600 
    194 H194       -3.9879  -23.6700  -43.7097 H         1 UNK         0.0600 
    195 H195       -1.7696  -24.5185  -45.5409 H         1 UNK         0.3000 
    196 H196       -2.7030  -27.1296  -46.6614 H         1 UNK         0.0600 
    197 H197       -0.7565  -28.0549  -45.4133 H         1 UNK         0.0600 
    198 H198       -1.8724  -27.2323  -44.3342 H         1 UNK         0.0600 
    199 H199       -0.3633  -26.4523  -44.8000 H         1 UNK         0.0600 
    200 H200        0.0944  -24.8431  -46.6358 H         1 UNK         0.3000 
    201 H201        1.5780  -26.2721  -48.5910 H         1 UNK         0.0600 
    202 H202        2.5844  -24.8187  -46.8364 H         1 UNK         0.0600 
    203 H203        1.8724  -23.3903  -47.5843 H         1 UNK         0.0600 
    204 H204        3.1053  -24.3119  -48.4360 H         1 UNK         0.0600 
    205 H205       -0.7988  -23.6990  -48.9277 H         1 UNK         0.3000 
    206 H206       -0.3136  -23.5083  -51.8781 H         1 UNK         0.0600 
    207 H207        0.4489  -21.4498  -50.9692 H         1 UNK         0.0600 
    208 H208       -1.1998  -21.0724  -51.4397 H         1 UNK         0.0600 
    209 H209       -0.8278  -21.3648  -49.7684 H         1 UNK         0.0600 
    210 H210       -2.2579  -24.9643  -49.8239 H         1 UNK         0.3000 
    211 H211       -4.3597  -25.6335  -49.6340 H         1 UNK         0.0600 
    212 H212       -4.4675  -25.1662  -52.6547 H         1 UNK         0.0600 
    213 H213       -5.5259  -26.2286  -51.7368 H         1 UNK         0.0600 
    214 H214       -3.8140  -26.5966  -51.8626 H         1 UNK         0.0600 
    215 H215       -3.9829  -22.9074  -49.0260 H         1 UNK         0.3000 
    216 H216       -5.0529  -21.1450  -48.3086 H         1 UNK         0.0600 
    217 H217       -7.4679  -21.0393  -48.0262 H         1 UNK         0.0600 
    218 H218       -6.9522  -22.6794  -47.6717 H         1 UNK         0.0600 
    219 H219       -7.7335  -22.3089  -49.2084 H         1 UNK         0.0600 
    220 H220       -4.2796  -21.5921  -51.2608 H         1 UNK         0.3000 
    221 H221       -3.9212  -20.3514  -53.0217 H         1 UNK         0.0600 
    222 H222       -4.7498  -17.9335  -51.3292 H         1 UNK         0.0600 
    223 H223       -3.1699  -18.7065  -51.2886 H         1 UNK         0.0600 
    224 H224       -3.7110  -17.9145  -52.7528 H         1 UNK         0.0600 
    225 H225       -5.5583  -17.7535  -53.5207 H         1 UNK         0.3000 
    226 H226       -7.1997  -17.0502  -54.8160 H         1 UNK         0.0600 
    227 H227       -8.6584  -17.5295  -52.9117 H         1 UNK         0.0600 
    228 H228       -9.5231  -17.9074  -54.3909 H         1 UNK         0.0600 
    229 H229       -8.8650  -19.2047  -53.3980 H         1 UNK         0.0600 
    230 H230       -8.6660  -20.2200  -55.1385 H         1 UNK         0.3000 
    231 H231       -8.3452  -20.2535  -58.0218 H         1 UNK         0.0600 
    232 H232       -9.4728  -22.3342  -56.0713 H         1 UNK         0.0600 
    233 H233       -9.6229  -22.3882  -57.8236 H         1 UNK         0.0600 
    234 H234      -10.4055  -21.1008  -56.9209 H         1 UNK         0.0600 
    235 H235       -6.5231  -21.5227  -55.3182 H         1 UNK         0.3000 
    236 H236       -4.9892  -23.4521  -56.9687 H         1 UNK         0.0600 
    237 H237       -5.6823  -24.1962  -54.7359 H         1 UNK         0.0600 
    238 H238       -3.9386  -24.0130  -54.7707 H         1 UNK         0.0600 
    239 H239       -4.9402  -22.8011  -53.9717 H         1 UNK         0.0600 
    240 H240       -3.2147  -21.8670  -54.5256 H         1 UNK         0.3000 
    241 H241       -1.2127  -20.8774  -56.2245 H         1 UNK         0.0600 
    242 H242       -0.8043  -18.8418  -57.2156 H         1 UNK         0.3800 
    243 H243       -1.8608  -17.4721  -57.0209 H         1 UNK         0.3800 
    244 H244       -1.2084  -21.4956  -53.6659 H         1 UNK         0.0800 
    245 H245       -1.6214  -19.8295  -53.3792 H         1 UNK         0.0800 
    246 H246        0.1636  -17.8064  -54.5180 H         1 UNK         0.0800 
    247 H247        1.7679  -18.0557  -53.8872 H         1 UNK         0.0800 
@<TRIPOS>BOND
     1    1    2 1    
     2    1  127 1    
     3    1  128 1    
     4    1  129 1    
     5    2    3 2    
     6    2    4 am   BACKBONE|DICT|INTERRES
     7    4    5 1    
     8    4  130 1    
     9    5    6 1    
    10    5   65 1    
    11    5  131 1    
    12    6    7 1    
    13    6  132 1    
    14    6  133 1    
    15    7    8 1    
    16    8    9 1    
    17    8  134 1    
    18    8  135 1    
    19    9   10 ar   
    20    9   14 ar   
    21   10   11 ar   
    22   10  136 1    
    23   11   12 ar   
    24   11  126 1    
    25   12   13 ar   
    26   12  137 1    
    27   13   14 ar   
    28   13   15 1    
    29   14  138 1    
    30   15   16 1    
    31   15  139 1    
    32   15  140 1    
    33   16   17 1    
    34   17   18 1    
    35   17  141 1    
    36   17  142 1    
    37   18   19 1    
    38   18   67 1    
    39   18  143 1    
    40   19   20 am   BACKBONE|DICT|INTERRES
    41   19  144 1    
    42   20   21 2    
    43   20   22 1    
    44   22   23 1    
    45   22   24 1    
    46   22  145 1    
    47   23  146 1    
    48   23  147 1    
    49   23  148 1    
    50   24   25 am   BACKBONE|DICT|INTERRES
    51   24  149 1    
    52   25   26 2    
    53   25   27 1    
    54   27   28 1    
    55   27   29 1    
    56   27  150 1    
    57   28  151 1    
    58   28  152 1    
    59   28  153 1    
    60   29   30 am   BACKBONE|DICT|INTERRES
    61   29  154 1    
    62   30   31 2    
    63   30   32 1    
    64   32   33 1    
    65   32   34 1    
    66   32  155 1    
    67   33  156 1    
    68   33  157 1    
    69   33  158 1    
    70   34   35 am   BACKBONE|DICT|INTERRES
    71   34  159 1    
    72   35   36 2    
    73   35   37 1    
    74   37   38 1    
    75   37   39 1    
    76   37  160 1    
    77   38  161 1    
    78   38  162 1    
    79   38  163 1    
    80   39   40 am   BACKBONE|DICT|INTERRES
    81   39  164 1    
    82   40   41 2    
    83   40   42 1    
    84   42   43 1    
    85   42   44 1    
    86   42  165 1    
    87   43  166 1    
    88   43  167 1    
    89   43  168 1    
    90   44   45 am   BACKBONE|DICT|INTERRES
    91   44  169 1    
    92   45   46 2    
    93   45   47 1    
    94   47   48 1    
    95   47   49 1    
    96   47  170 1    
    97   48  171 1    
    98   48  172 1    
    99   48  173 1    
   100   49   50 am   BACKBONE|DICT|INTERRES
   101   49  174 1    
   102   50   51 2    
   103   50   52 1    
   104   52   53 1    
   105   52   54 1    
   106   52  175 1    
   107   53  176 1    
   108   53  177 1    
   109   53  178 1    
   110   54   55 am   BACKBONE|DICT|INTERRES
   111   54  179 1    
   112   55   56 2    
   113   55   57 1    
   114   57   58 1    
   115   57   59 1    
   116   57  180 1    
   117   58  181 1    
   118   58  182 1    
   119   58  183 1    
   120   59   60 am   BACKBONE|DICT|INTERRES
   121   59  184 1    
   122   60   61 2    
   123   60   62 1    
   124   62   63 1    
   125   62   64 1    
   126   62  185 1    
   127   63  186 1    
   128   63  187 1    
   129   63  188 1    
   130   64   65 am   BACKBONE|DICT|INTERRES
   131   64  189 1    
   132   65   66 2    
   133   67   68 2    
   134   67   69 am   BACKBONE|DICT|INTERRES
   135   69   70 1    
   136   69  190 1    
   137   70   71 1    
   138   70   72 1    
   139   70  191 1    
   140   71  192 1    
   141   71  193 1    
   142   71  194 1    
   143   72   73 2    
   144   72   74 am   BACKBONE|DICT|INTERRES
   145   74   75 1    
   146   74  195 1    
   147   75   76 1    
   148   75   77 1    
   149   75  196 1    
   150   76  197 1    
   151   76  198 1    
   152   76  199 1    
   153   77   78 2    
   154   77   79 am   BACKBONE|DICT|INTERRES
   155   79   80 1    
   156   79  200 1    
   157   80   81 1    
   158   80   82 1    
   159   80  201 1    
   160   81  202 1    
   161   81  203 1    
   162   81  204 1    
   163   82   83 2    
   164   82   84 am   BACKBONE|DICT|INTERRES
   165   84   85 1    
   166   84  205 1    
   167   85   86 1    
   168   85   87 1    
   169   85  206 1    
   170   86  207 1    
   171   86  208 1    
   172   86  209 1    
   173   87   88 2    
   174   87   89 am   BACKBONE|DICT|INTERRES
   175   89   90 1    
   176   89  210 1    
   177   90   91 1    
   178   90   92 1    
   179   90  211 1    
   180   91  212 1    
   181   91  213 1    
   182   91  214 1    
   183   92   93 2    
   184   92   94 am   BACKBONE|DICT|INTERRES
   185   94   95 1    
   186   94  215 1    
   187   95   96 1    
   188   95   97 1    
   189   95  216 1    
   190   96  217 1    
   191   96  218 1    
   192   96  219 1    
   193   97   98 2    
   194   97   99 am   BACKBONE|DICT|INTERRES
   195   99  100 1    
   196   99  220 1    
   197  100  101 1    
   198  100  102 1    
   199  100  221 1    
   200  101  222 1    
   201  101  223 1    
   202  101  224 1    
   203  102  103 2    
   204  102  104 am   BACKBONE|DICT|INTERRES
   205  104  105 1    
   206  104  225 1    
   207  105  106 1    
   208  105  107 1    
   209  105  226 1    
   210  106  227 1    
   211  106  228 1    
   212  106  229 1    
   213  107  108 2    
   214  107  109 am   BACKBONE|DICT|INTERRES
   215  109  110 1    
   216  109  230 1    
   217  110  111 1    
   218  110  112 1    
   219  110  231 1    
   220  111  232 1    
   221  111  233 1    
   222  111  234 1    
   223  112  113 2    
   224  112  114 am   BACKBONE|DICT|INTERRES
   225  114  115 1    
   226  114  235 1    
   227  115  116 1    
   228  115  117 1    
   229  115  236 1    
   230  116  237 1    
   231  116  238 1    
   232  116  239 1    
   233  117  118 2    
   234  117  119 am   BACKBONE|DICT|INTERRES
   235  119  120 1    
   236  119  240 1    
   237  120  121 1    
   238  120  124 1    
   239  120  241 1    
   240  121  122 am   BACKBONE|DICT|INTERRES
   241  121  123 2    
   242  122  242 1    
   243  122  243 1    
   244  124  125 1    
   245  124  244 1    
   246  124  245 1    
   247  125  126 1    
   248  126  246 1    
   249  126  247 1    
@<TRIPOS>SUBSTRUCTURE
     1 UNK         1 GROUP             0       ****    0 ROOT    
