@<TRIPOS>MOLECULE
3R540
247   249    1
SMALL
USER_CHARGES


@<TRIPOS>ATOM
      1 CA          0.0298   -9.9375  -51.9710 C.3       0 UNK        -0.1800 
      2 C           0.2696  -11.0221  -50.9305 C.2       0 UNK         0.5000 
      3 O          -0.5764  -11.8980  -50.7560 O.2       0 UNK        -0.5000 
      4 N           1.4134  -10.9579  -50.2325 N.am      1 UNK        -0.5000 
      5 CA          1.8642  -11.9016  -49.1950 C.3       1 UNK         0.1400 
      6 C6          1.9348  -13.3692  -49.7104 C.3       23 UNK        -0.0398 
      7 S7          3.2933  -14.3472  -48.9788 S.3       23 UNK        -0.2404 
      8 C8          2.3865  -15.5477  -47.9520 C.3       23 UNK        -0.0205 
      9 C9          1.8512  -16.7204  -48.7612 C.ar      23 UNK        -0.0193 
     10 C10         0.5695  -16.6760  -49.3217 C.ar      23 UNK        -0.1150 
     11 C11         0.0654  -17.7713  -50.0288 C.ar      23 UNK        -0.0193 
     12 C12         0.8550  -18.9116  -50.1830 C.ar      23 UNK        -0.1150 
     13 C13         2.1256  -18.9801  -49.6061 C.ar      23 UNK        -0.0193 
     14 C14         2.6230  -17.8779  -48.9051 C.ar      23 UNK        -0.1150 
     15 C15         2.9425  -20.2590  -49.7183 C.3       23 UNK        -0.0205 
     16 S16         2.6851  -21.3582  -48.2863 S.3       23 UNK        -0.2404 
     17 C17         0.8870  -21.6542  -48.3822 C.3       23 UNK        -0.0398 
     18 CA          0.4115  -22.8130  -47.4793 C.3       11 UNK         0.1400 
     19 N           0.5437  -22.5159  -46.0509 N.am      11 UNK        -0.5000 
     20 C           0.3330  -23.3987  -45.0649 C.2       10 UNK         0.5000 
     21 O           0.0444  -24.5808  -45.2556 O.2       10 UNK        -0.5000 
     22 CA          0.4036  -22.8610  -43.6240 C.3       10 UNK         0.1400 
     23 CB          1.8593  -22.6797  -43.1685 C.3       10 UNK        -0.1800 
     24 N          -0.3308  -21.6056  -43.4588 N.am      10 UNK        -0.5000 
     25 C          -1.6589  -21.4861  -43.6022 C.2       9 UNK         0.5000 
     26 O          -2.4072  -22.4322  -43.8500 O.2       9 UNK        -0.5000 
     27 CA         -2.2496  -20.0686  -43.4862 C.3       9 UNK         0.1400 
     28 CB         -2.4172  -19.6663  -42.0136 C.3       9 UNK        -0.1800 
     29 N          -1.4550  -19.0567  -44.1824 N.am      9 UNK        -0.5000 
     30 C          -1.2140  -19.0519  -45.5015 C.2       8 UNK         0.5000 
     31 O          -1.6585  -19.8917  -46.2806 O.2       8 UNK        -0.5000 
     32 CA         -0.2611  -17.9658  -46.0278 C.3       8 UNK         0.1400 
     33 CB         -0.9758  -16.6071  -46.1058 C.3       8 UNK        -0.1800 
     34 N           0.9538  -17.8489  -45.2191 N.am      8 UNK        -0.5000 
     35 C           1.8130  -18.8532  -44.9877 C.2       7 UNK         0.5000 
     36 O           1.6933  -19.9819  -45.4576 O.2       7 UNK        -0.5000 
     37 CA          2.9594  -18.5749  -44.0048 C.3       7 UNK         0.1400 
     38 CB          4.1224  -17.8513  -44.6991 C.3       7 UNK        -0.1800 
     39 N           2.4937  -17.8029  -42.8538 N.am      7 UNK        -0.5000 
     40 C           1.6990  -18.2976  -41.8933 C.2       6 UNK         0.5000 
     41 O           1.3327  -19.4726  -41.8462 O.2       6 UNK        -0.5000 
     42 CA          1.1970  -17.3009  -40.8317 C.3       6 UNK         0.1400 
     43 CB          2.2460  -17.1104  -39.7261 C.3       6 UNK        -0.1800 
     44 N           0.8517  -15.9982  -41.4043 N.am      6 UNK        -0.5000 
     45 C          -0.1745  -15.7917  -42.2417 C.2       5 UNK         0.5000 
     46 O          -0.9684  -16.6718  -42.5724 O.2       5 UNK        -0.5000 
     47 CA         -0.3172  -14.3785  -42.8414 C.3       5 UNK         0.1400 
     48 CB         -1.2164  -13.5062  -41.9535 C.3       5 UNK        -0.1800 
     49 N           0.9558  -13.6868  -43.0638 N.am      5 UNK        -0.5000 
     50 C           1.9534  -14.1275  -43.8430 C.2       4 UNK         0.5000 
     51 O           1.9267  -15.2100  -44.4306 O.2       4 UNK        -0.5000 
     52 CA          3.1690  -13.1939  -43.9744 C.3       4 UNK         0.1400 
     53 CB          4.2064  -13.6980  -44.9923 C.3       4 UNK        -0.1800 
     54 N           2.7139  -11.8695  -44.3855 N.am      4 UNK        -0.5000 
     55 C           2.7592  -10.7576  -43.6402 C.2       3 UNK         0.5000 
     56 O           3.2128  -10.7236  -42.4960 O.2       3 UNK        -0.5000 
     57 CA          2.2000   -9.4618  -44.2654 C.3       3 UNK         0.1400 
     58 CB          3.3480   -8.5602  -44.7450 C.3       3 UNK        -0.1800 
     59 N           1.2911   -9.7019  -45.3875 N.am      3 UNK        -0.5000 
     60 C           0.0584  -10.2165  -45.2809 C.2       2 UNK         0.5000 
     61 O          -0.4838  -10.4703  -44.2051 O.2       2 UNK        -0.5000 
     62 CA         -0.6818  -10.5268  -46.5977 C.3       2 UNK         0.1400 
     63 CB         -1.6572   -9.3925  -46.9464 C.3       2 UNK        -0.1800 
     64 N           0.1969  -10.7676  -47.7490 N.am      2 UNK        -0.5000 
     65 C           1.0884  -11.7651  -47.8583 C.2       1 UNK         0.5000 
     66 O           1.3338  -12.5327  -46.9289 O.2       1 UNK        -0.5000 
     67 C          -1.0297  -23.2153  -47.8453 C.2       11 UNK         0.5000 
     68 O          -1.2068  -24.2116  -48.5431 O.2       11 UNK        -0.5000 
     69 N          -2.0283  -22.4723  -47.3452 N.am      12 UNK        -0.5000 
     70 CA         -3.4513  -22.7474  -47.5512 C.3       12 UNK         0.1400 
     71 CB         -4.2988  -21.6228  -46.9380 C.3       12 UNK        -0.1800 
     72 C          -3.8872  -24.1087  -46.9849 C.2       12 UNK         0.5000 
     73 O          -4.6684  -24.8064  -47.6309 O.2       12 UNK        -0.5000 
     74 N          -3.3608  -24.4763  -45.8092 N.am      13 UNK        -0.5000 
     75 CA         -3.5798  -25.7805  -45.1864 C.3       13 UNK         0.1400 
     76 CB         -3.0684  -25.7523  -43.7381 C.3       13 UNK        -0.1800 
     77 C          -2.9258  -26.9276  -45.9789 C.2       13 UNK         0.5000 
     78 O          -3.5524  -27.9723  -46.1582 O.2       13 UNK        -0.5000 
     79 N          -1.6890  -26.7098  -46.4467 N.am      14 UNK        -0.5000 
     80 CA         -0.9101  -27.6806  -47.2150 C.3       14 UNK         0.1400 
     81 CB          0.5563  -27.2248  -47.2743 C.3       14 UNK        -0.1800 
     82 C          -1.4640  -27.9179  -48.6320 C.2       14 UNK         0.5000 
     83 O          -1.5888  -29.0695  -49.0505 O.2       14 UNK        -0.5000 
     84 N          -1.7769  -26.8297  -49.3467 N.am      15 UNK        -0.5000 
     85 CA         -2.2471  -26.8546  -50.7331 C.3       15 UNK         0.1400 
     86 CB         -1.9102  -25.5102  -51.3970 C.3       15 UNK        -0.1800 
     87 C          -3.7516  -27.1498  -50.8702 C.2       15 UNK         0.5000 
     88 O          -4.1868  -27.4824  -51.9726 O.2       15 UNK        -0.5000 
     89 N          -4.5070  -27.0146  -49.7690 N.am      16 UNK        -0.5000 
     90 CA         -5.9700  -27.0547  -49.6808 C.3       16 UNK         0.1400 
     91 CB         -6.5365  -28.4231  -50.1159 C.3       16 UNK        -0.1800 
     92 C          -6.5816  -25.8602  -50.4390 C.2       16 UNK         0.5000 
     93 O          -7.1789  -26.0298  -51.5031 O.2       16 UNK        -0.5000 
     94 N          -6.3718  -24.6689  -49.8641 N.am      17 UNK        -0.5000 
     95 CA         -6.6488  -23.3379  -50.4056 C.3       17 UNK         0.1400 
     96 CB         -8.1331  -23.1562  -50.8000 C.3       17 UNK        -0.1800 
     97 C          -5.6304  -22.9903  -51.5068 C.2       17 UNK         0.5000 
     98 O          -4.4431  -22.8937  -51.1979 O.2       17 UNK        -0.5000 
     99 N          -6.0937  -22.7782  -52.7446 N.am      18 UNK        -0.5000 
    100 CA        -5.2684  -22.4371  -53.9039 C.3       18 UNK         0.1400 
    101 CB        -6.2069  -22.0335  -55.0544 C.3       18 UNK        -0.1800 
    102 C         -4.3708  -23.6249  -54.3261 C.2       18 UNK         0.5000 
    103 O         -4.9047  -24.7252  -54.4686 O.2       18 UNK        -0.5000 
    104 N         -3.0564  -23.4772  -54.5647 N.am      19 UNK        -0.5000 
    105 CA        -2.1741  -22.3042  -54.4969 C.3       19 UNK         0.1400 
    106 CB        -1.9196  -21.8704  -53.0353 C.3       19 UNK        -0.1800 
    107 C         -2.5836  -21.1596  -55.4490 C.2       19 UNK         0.5000 
    108 O         -3.1194  -21.4304  -56.5249 O.2       19 UNK        -0.5000 
    109 N         -2.2995  -19.9148  -55.0503 N.am      20 UNK        -0.5000 
    110 CA        -2.6332  -18.6918  -55.7771 C.3       20 UNK         0.1400 
    111 CB        -1.3440  -17.8679  -55.9766 C.3       20 UNK        -0.1800 
    112 C         -3.7442  -17.9496  -55.0103 C.2       20 UNK         0.5000 
    113 O         -4.8435  -18.4899  -54.8732 O.2       20 UNK        -0.5000 
    114 N         -3.4409  -16.7490  -54.4930 N.am      21 UNK        -0.5000 
    115 CA        -4.3540  -15.8496  -53.7723 C.3       21 UNK         0.1400 
    116 CB        -3.6003  -14.5536  -53.4340 C.3       21 UNK        -0.1800 
    117 C         -4.9911  -16.4453  -52.4987 C.2       21 UNK         0.5000 
    118 O         -6.0333  -15.9597  -52.0574 O.2       21 UNK        -0.5000 
    119 N         -4.3671  -17.4941  -51.9516 N.am      22 UNK        -0.5000 
    120 CA        -4.8982  -18.3327  -50.8675 C.3       22 UNK         0.1400 
    121 C         -6.0995  -19.2338  -51.2841 C.2       22 UNK         0.5000 
    122 N         -6.4254  -19.3762  -52.5638 N.am      22 UNK        -0.7600 
    123 O         -6.7571  -19.8098  -50.4227 O.2       22 UNK        -0.5000 
    124 C124       -3.7763  -19.1811  -50.2196 C.3       23 UNK        -0.0398 
    125 S125       -2.5600  -18.1707  -49.3104 S.3       23 UNK        -0.2404 
    126 C126       -1.3434  -17.7458  -50.5965 C.3       23 UNK        -0.0205 
    127 H127        0.8557   -9.2272  -52.0154 H         1 UNK         0.0600 
    128 H128       -0.0870  -10.3849  -52.9581 H         1 UNK         0.0600 
    129 H129       -0.8807   -9.3864  -51.7357 H         1 UNK         0.0600 
    130 H130        2.0568  -10.2023  -50.4267 H         1 UNK         0.3000 
    131 H131        2.8820  -11.5820  -48.9664 H         1 UNK         0.0600 
    132 H132        0.9770  -13.8703  -49.5790 H         1 UNK         0.0800 
    133 H133        2.1155  -13.3755  -50.7860 H         1 UNK         0.0800 
    134 H134        3.0575  -15.9172  -47.1762 H         1 UNK         0.0800 
    135 H135        1.5769  -15.0472  -47.4236 H         1 UNK         0.0800 
    136 H136       -0.0539  -15.8051  -49.1827 H         1 UNK         0.1150 
    137 H137        0.4638  -19.7632  -50.7212 H         1 UNK         0.1150 
    138 H138        3.6031  -17.9298  -48.4522 H         1 UNK         0.1150 
    139 H139        2.6900  -20.7928  -50.6358 H         1 UNK         0.0800 
    140 H140        4.0031  -20.0143  -49.7905 H         1 UNK         0.0800 
    141 H141        0.6436  -21.8622  -49.4259 H         1 UNK         0.0800 
    142 H142        0.3641  -20.7341  -48.1146 H         1 UNK         0.0800 
    143 H143        1.0435  -23.6792  -47.6870 H         1 UNK         0.0600 
    144 H144        0.8234  -21.5657  -45.8128 H         1 UNK         0.3000 
    145 H145       -0.0610  -23.6039  -42.9721 H         1 UNK         0.0600 
    146 H146        1.9092  -22.3552  -42.1290 H         1 UNK         0.0600 
    147 H147        2.4101  -23.6179  -43.2444 H         1 UNK         0.0600 
    148 H148        2.3854  -21.9417  -43.7737 H         1 UNK         0.0600 
    149 H149        0.2156  -20.7809  -43.2413 H         1 UNK         0.3000 
    150 H150       -3.2387  -20.0848  -43.9481 H         1 UNK         0.0600 
    151 H151       -3.0169  -20.3998  -41.4732 H         1 UNK         0.0600 
    152 H152       -2.9212  -18.7038  -41.9236 H         1 UNK         0.0600 
    153 H153       -1.4555  -19.5877  -41.5055 H         1 UNK         0.0600 
    154 H154       -1.0822  -18.3007  -43.6148 H         1 UNK         0.3000 
    155 H155        0.0460  -18.2562  -47.0334 H         1 UNK         0.0600 
    156 H156       -0.2968  -15.8088  -46.3991 H         1 UNK         0.0600 
    157 H157       -1.4235  -16.3288  -45.1534 H         1 UNK         0.0600 
    158 H158       -1.7798  -16.6365  -46.8410 H         1 UNK         0.0600 
    159 H159        1.1575  -16.9373  -44.8198 H         1 UNK         0.3000 
    160 H160        3.3324  -19.5356  -43.6431 H         1 UNK         0.0600 
    161 H161        3.8149  -16.8925  -45.1125 H         1 UNK         0.0600 
    162 H162        4.5117  -18.4496  -45.5239 H         1 UNK         0.0600 
    163 H163        4.9463  -17.6720  -44.0083 H         1 UNK         0.0600 
    164 H164        2.6851  -16.8116  -42.8672 H         1 UNK         0.3000 
    165 H165        0.2971  -17.7230  -40.3790 H         1 UNK         0.0600 
    166 H166        3.1644  -16.6664  -40.1120 H         1 UNK         0.0600 
    167 H167        1.8688  -16.4659  -38.9318 H         1 UNK         0.0600 
    168 H168        2.5094  -18.0659  -39.2703 H         1 UNK         0.0600 
    169 H169        1.4541  -15.2207  -41.1783 H         1 UNK         0.3000 
    170 H170       -0.8014  -14.4815  -43.8137 H         1 UNK         0.0600 
    171 H171       -2.1841  -13.9824  -41.7897 H         1 UNK         0.0600 
    172 H172       -0.7669  -13.3292  -40.9757 H         1 UNK         0.0600 
    173 H173       -1.4069  -12.5377  -42.4164 H         1 UNK         0.0600 
    174 H174        1.0524  -12.7769  -42.6365 H         1 UNK         0.3000 
    175 H175        3.6505  -13.1555  -42.9955 H         1 UNK         0.0600 
    176 H176        5.0528  -13.0148  -45.0613 H         1 UNK         0.0600 
    177 H177        4.6005  -14.6721  -44.7030 H         1 UNK         0.0600 
    178 H178        3.7750  -13.7943  -45.9885 H         1 UNK         0.0600 
    179 H179        2.2555  -11.8393  -45.2913 H         1 UNK         0.3000 
    180 H180        1.6501   -8.9312  -43.4853 H         1 UNK         0.0600 
    181 H181        3.9295   -9.0357  -45.5359 H         1 UNK         0.0600 
    182 H182        4.0326   -8.3303  -43.9274 H         1 UNK         0.0600 
    183 H183        2.9716   -7.6113  -45.1276 H         1 UNK         0.0600 
    184 H184        1.6525   -9.5206  -46.3122 H         1 UNK         0.3000 
    185 H185       -1.2614  -11.4374  -46.4324 H         1 UNK         0.0600 
    186 H186       -2.2569   -9.6427  -47.8219 H         1 UNK         0.0600 
    187 H187       -2.3489   -9.2043  -46.1241 H         1 UNK         0.0600 
    188 H188       -1.1313   -8.4597  -47.1535 H         1 UNK         0.0600 
    189 H189        0.0618  -10.1706  -48.5514 H         1 UNK         0.3000 
    190 H190       -1.8055  -21.6321  -46.8139 H         1 UNK         0.3000 
    191 H191       -3.6285  -22.7613  -48.6280 H         1 UNK         0.0600 
    192 H192       -4.0222  -20.6497  -47.3410 H         1 UNK         0.0600 
    193 H193       -5.3584  -21.7735  -47.1478 H         1 UNK         0.0600 
    194 H194       -4.1801  -21.5758  -45.8552 H         1 UNK         0.0600 
    195 H195       -2.7693  -23.8213  -45.3078 H         1 UNK         0.3000 
    196 H196       -4.6558  -25.9654  -45.1603 H         1 UNK         0.0600 
    197 H197       -3.2327  -26.7119  -43.2465 H         1 UNK         0.0600 
    198 H198       -3.5877  -24.9932  -43.1529 H         1 UNK         0.0600 
    199 H199       -2.0007  -25.5363  -43.6904 H         1 UNK         0.0600 
    200 H200       -1.2283  -25.8335  -46.2216 H         1 UNK         0.3000 
    201 H201       -0.9425  -28.6339  -46.6832 H         1 UNK         0.0600 
    202 H202        0.9833  -27.1430  -46.2746 H         1 UNK         0.0600 
    203 H203        0.6574  -26.2536  -47.7598 H         1 UNK         0.0600 
    204 H204        1.1659  -27.9371  -47.8316 H         1 UNK         0.0600 
    205 H205       -1.6189  -25.9068  -48.9426 H         1 UNK         0.3000 
    206 H206       -1.7094  -27.6379  -51.2716 H         1 UNK         0.0600 
    207 H207       -0.8415  -25.3006  -51.3504 H         1 UNK         0.0600 
    208 H208       -2.1985  -25.5076  -52.4487 H         1 UNK         0.0600 
    209 H209       -2.4349  -24.6853  -50.9140 H         1 UNK         0.0600 
    210 H210       -4.0388  -26.7036  -48.9281 H         1 UNK         0.3000 
    211 H211       -6.2182  -26.9269  -48.6259 H         1 UNK         0.0600 
    212 H212       -6.3816  -28.6201  -51.1766 H         1 UNK         0.0600 
    213 H213       -7.6107  -28.4686  -49.9340 H         1 UNK         0.0600 
    214 H214       -6.0763  -29.2354  -49.5534 H         1 UNK         0.0600 
    215 H215       -5.8076  -24.6710  -49.0153 H         1 UNK         0.3000 
    216 H216       -6.4508  -22.6400  -49.5905 H         1 UNK         0.0600 
    217 H217       -8.7887  -23.3923  -49.9619 H         1 UNK         0.0600 
    218 H218       -8.4299  -23.7856  -51.6386 H         1 UNK         0.0600 
    219 H219       -8.3339  -22.1214  -51.0802 H         1 UNK         0.0600 
    220 H220       -7.0748  -22.9328  -52.9210 H         1 UNK         0.3000 
    221 H221       -4.6730  -21.5672  -53.6384 H         1 UNK         0.0600 
    222 H222       -6.8780  -22.8474  -55.3313 H         1 UNK         0.0600 
    223 H223       -6.8182  -21.1724  -54.7861 H         1 UNK         0.0600 
    224 H224       -5.6456  -21.7592  -55.9468 H         1 UNK         0.0600 
    225 H225       -2.5788  -24.3068  -54.8842 H         1 UNK         0.3000 
    226 H226       -1.2173  -22.6578  -54.8835 H         1 UNK         0.0600 
    227 H227       -1.6981  -22.7308  -52.4042 H         1 UNK         0.0600 
    228 H228       -1.0597  -21.2035  -52.9648 H         1 UNK         0.0600 
    229 H229       -2.7691  -21.3542  -52.5948 H         1 UNK         0.0600 
    230 H230       -1.8598  -19.7910  -54.1506 H         1 UNK         0.3000 
    231 H231       -3.0373  -18.9242  -56.7644 H         1 UNK         0.0600 
    232 H232       -1.5436  -16.9433  -56.5201 H         1 UNK         0.0600 
    233 H233       -0.6170  -18.4287  -56.5646 H         1 UNK         0.0600 
    234 H234       -0.8672  -17.6100  -55.0300 H         1 UNK         0.0600 
    235 H235       -2.5097  -16.3918  -54.6506 H         1 UNK         0.3000 
    236 H236       -5.1719  -15.6031  -54.4523 H         1 UNK         0.0600 
    237 H237       -2.7491  -14.7432  -52.7786 H         1 UNK         0.0600 
    238 H238       -3.2294  -14.0645  -54.3349 H         1 UNK         0.0600 
    239 H239       -4.2523  -13.8416  -52.9261 H         1 UNK         0.0600 
    240 H240       -3.5238  -17.8176  -52.3958 H         1 UNK         0.3000 
    241 H241       -5.2916  -17.6623  -50.1008 H         1 UNK         0.0600 
    242 H242       -5.8875  -18.9333  -53.3026 H         1 UNK         0.3800 
    243 H243       -7.2228  -19.9408  -52.8022 H         1 UNK         0.3800 
    244 H244       -3.2708  -19.7987  -50.9610 H         1 UNK         0.0800 
    245 H245       -4.1994  -19.8815  -49.4992 H         1 UNK         0.0800 
    246 H246       -1.4152  -18.4390  -51.4351 H         1 UNK         0.0800 
    247 H247       -1.5698  -16.7550  -50.9931 H         1 UNK         0.0800 
@<TRIPOS>BOND
     1    1    2 1    
     2    1  127 1    
     3    1  128 1    
     4    1  129 1    
     5    2    3 2    
     6    2    4 am   BACKBONE|DICT|INTERRES
     7    4    5 1    
     8    4  130 1    
     9    5    6 1    
    10    5   65 1    
    11    5  131 1    
    12    6    7 1    
    13    6  132 1    
    14    6  133 1    
    15    7    8 1    
    16    8    9 1    
    17    8  134 1    
    18    8  135 1    
    19    9   10 ar   
    20    9   14 ar   
    21   10   11 ar   
    22   10  136 1    
    23   11   12 ar   
    24   11  126 1    
    25   12   13 ar   
    26   12  137 1    
    27   13   14 ar   
    28   13   15 1    
    29   14  138 1    
    30   15   16 1    
    31   15  139 1    
    32   15  140 1    
    33   16   17 1    
    34   17   18 1    
    35   17  141 1    
    36   17  142 1    
    37   18   19 1    
    38   18   67 1    
    39   18  143 1    
    40   19   20 am   BACKBONE|DICT|INTERRES
    41   19  144 1    
    42   20   21 2    
    43   20   22 1    
    44   22   23 1    
    45   22   24 1    
    46   22  145 1    
    47   23  146 1    
    48   23  147 1    
    49   23  148 1    
    50   24   25 am   BACKBONE|DICT|INTERRES
    51   24  149 1    
    52   25   26 2    
    53   25   27 1    
    54   27   28 1    
    55   27   29 1    
    56   27  150 1    
    57   28  151 1    
    58   28  152 1    
    59   28  153 1    
    60   29   30 am   BACKBONE|DICT|INTERRES
    61   29  154 1    
    62   30   31 2    
    63   30   32 1    
    64   32   33 1    
    65   32   34 1    
    66   32  155 1    
    67   33  156 1    
    68   33  157 1    
    69   33  158 1    
    70   34   35 am   BACKBONE|DICT|INTERRES
    71   34  159 1    
    72   35   36 2    
    73   35   37 1    
    74   37   38 1    
    75   37   39 1    
    76   37  160 1    
    77   38  161 1    
    78   38  162 1    
    79   38  163 1    
    80   39   40 am   BACKBONE|DICT|INTERRES
    81   39  164 1    
    82   40   41 2    
    83   40   42 1    
    84   42   43 1    
    85   42   44 1    
    86   42  165 1    
    87   43  166 1    
    88   43  167 1    
    89   43  168 1    
    90   44   45 am   BACKBONE|DICT|INTERRES
    91   44  169 1    
    92   45   46 2    
    93   45   47 1    
    94   47   48 1    
    95   47   49 1    
    96   47  170 1    
    97   48  171 1    
    98   48  172 1    
    99   48  173 1    
   100   49   50 am   BACKBONE|DICT|INTERRES
   101   49  174 1    
   102   50   51 2    
   103   50   52 1    
   104   52   53 1    
   105   52   54 1    
   106   52  175 1    
   107   53  176 1    
   108   53  177 1    
   109   53  178 1    
   110   54   55 am   BACKBONE|DICT|INTERRES
   111   54  179 1    
   112   55   56 2    
   113   55   57 1    
   114   57   58 1    
   115   57   59 1    
   116   57  180 1    
   117   58  181 1    
   118   58  182 1    
   119   58  183 1    
   120   59   60 am   BACKBONE|DICT|INTERRES
   121   59  184 1    
   122   60   61 2    
   123   60   62 1    
   124   62   63 1    
   125   62   64 1    
   126   62  185 1    
   127   63  186 1    
   128   63  187 1    
   129   63  188 1    
   130   64   65 am   BACKBONE|DICT|INTERRES
   131   64  189 1    
   132   65   66 2    
   133   67   68 2    
   134   67   69 am   BACKBONE|DICT|INTERRES
   135   69   70 1    
   136   69  190 1    
   137   70   71 1    
   138   70   72 1    
   139   70  191 1    
   140   71  192 1    
   141   71  193 1    
   142   71  194 1    
   143   72   73 2    
   144   72   74 am   BACKBONE|DICT|INTERRES
   145   74   75 1    
   146   74  195 1    
   147   75   76 1    
   148   75   77 1    
   149   75  196 1    
   150   76  197 1    
   151   76  198 1    
   152   76  199 1    
   153   77   78 2    
   154   77   79 am   BACKBONE|DICT|INTERRES
   155   79   80 1    
   156   79  200 1    
   157   80   81 1    
   158   80   82 1    
   159   80  201 1    
   160   81  202 1    
   161   81  203 1    
   162   81  204 1    
   163   82   83 2    
   164   82   84 am   BACKBONE|DICT|INTERRES
   165   84   85 1    
   166   84  205 1    
   167   85   86 1    
   168   85   87 1    
   169   85  206 1    
   170   86  207 1    
   171   86  208 1    
   172   86  209 1    
   173   87   88 2    
   174   87   89 am   BACKBONE|DICT|INTERRES
   175   89   90 1    
   176   89  210 1    
   177   90   91 1    
   178   90   92 1    
   179   90  211 1    
   180   91  212 1    
   181   91  213 1    
   182   91  214 1    
   183   92   93 2    
   184   92   94 am   BACKBONE|DICT|INTERRES
   185   94   95 1    
   186   94  215 1    
   187   95   96 1    
   188   95   97 1    
   189   95  216 1    
   190   96  217 1    
   191   96  218 1    
   192   96  219 1    
   193   97   98 2    
   194   97   99 am   BACKBONE|DICT|INTERRES
   195   99  100 1    
   196   99  220 1    
   197  100  101 1    
   198  100  102 1    
   199  100  221 1    
   200  101  222 1    
   201  101  223 1    
   202  101  224 1    
   203  102  103 2    
   204  102  104 am   BACKBONE|DICT|INTERRES
   205  104  105 1    
   206  104  225 1    
   207  105  106 1    
   208  105  107 1    
   209  105  226 1    
   210  106  227 1    
   211  106  228 1    
   212  106  229 1    
   213  107  108 2    
   214  107  109 am   BACKBONE|DICT|INTERRES
   215  109  110 1    
   216  109  230 1    
   217  110  111 1    
   218  110  112 1    
   219  110  231 1    
   220  111  232 1    
   221  111  233 1    
   222  111  234 1    
   223  112  113 2    
   224  112  114 am   BACKBONE|DICT|INTERRES
   225  114  115 1    
   226  114  235 1    
   227  115  116 1    
   228  115  117 1    
   229  115  236 1    
   230  116  237 1    
   231  116  238 1    
   232  116  239 1    
   233  117  118 2    
   234  117  119 am   BACKBONE|DICT|INTERRES
   235  119  120 1    
   236  119  240 1    
   237  120  121 1    
   238  120  124 1    
   239  120  241 1    
   240  121  122 am   BACKBONE|DICT|INTERRES
   241  121  123 2    
   242  122  242 1    
   243  122  243 1    
   244  124  125 1    
   245  124  244 1    
   246  124  245 1    
   247  125  126 1    
   248  126  246 1    
   249  126  247 1    
@<TRIPOS>SUBSTRUCTURE
     1 UNK         1 GROUP             0       ****    0 ROOT    
