@<TRIPOS>MOLECULE
3R540
247   249    1
SMALL
USER_CHARGES


@<TRIPOS>ATOM
      1 CA         -3.9438  -12.8401  -45.9901 C.3       0 UNK        -0.1800 
      2 C          -2.4759  -12.7967  -45.5936 C.2       0 UNK         0.5000 
      3 O          -2.1494  -12.3130  -44.5110 O.2       0 UNK        -0.5000 
      4 N          -1.5911  -13.3169  -46.4537 N.am      1 UNK        -0.5000 
      5 CA         -0.1348  -13.3755  -46.2611 C.3       1 UNK         0.1400 
      6 C6          0.5934  -13.9157  -47.5209 C.3       23 UNK        -0.0398 
      7 S7         -0.0277  -15.5459  -48.0634 S.3       23 UNK        -0.2404 
      8 C8          1.0015  -15.8995  -49.5204 C.3       23 UNK        -0.0205 
      9 C9          0.8432  -17.3640  -49.8910 C.ar      23 UNK        -0.0193 
     10 C10        -0.1881  -17.7729  -50.7407 C.ar      23 UNK        -0.1150 
     11 C11        -0.4186  -19.1328  -50.9681 C.ar      23 UNK        -0.0193 
     12 C12         0.3901  -20.0837  -50.3385 C.ar      23 UNK        -0.1150 
     13 C13         1.4351  -19.6860  -49.5001 C.ar      23 UNK        -0.0193 
     14 C14         1.6740  -18.3225  -49.3063 C.ar      23 UNK        -0.1150 
     15 C15         2.2508  -20.7338  -48.7498 C.3       23 UNK        -0.0205 
     16 S16         2.3461  -20.4387  -46.9457 S.3       23 UNK        -0.2404 
     17 C17         0.6086  -20.0980  -46.4859 C.3       23 UNK        -0.0398 
     18 CA         -0.1222  -21.3442  -45.9431 C.3       11 UNK         0.1400 
     19 N           0.4653  -21.8351  -44.6922 N.am      11 UNK        -0.5000 
     20 C           0.1945  -23.0290  -44.1439 C.2       10 UNK         0.5000 
     21 O          -0.5784  -23.8426  -44.6495 O.2       10 UNK        -0.5000 
     22 CA          0.8505  -23.3589  -42.7882 C.3       10 UNK         0.1400 
     23 CB          2.1218  -24.1939  -43.0009 C.3       10 UNK        -0.1800 
     24 N           1.1866  -22.1803  -41.9874 N.am      10 UNK        -0.5000 
     25 C           0.3141  -21.2680  -41.5345 C.2       9 UNK         0.5000 
     26 O          -0.9010  -21.3389  -41.7135 O.2       9 UNK        -0.5000 
     27 CA          0.9079  -20.0424  -40.8108 C.3       9 UNK         0.1400 
     28 CB          0.9160  -20.2670  -39.2917 C.3       9 UNK        -0.1800 
     29 N           2.2632  -19.6956  -41.2551 N.am      9 UNK        -0.5000 
     30 C           2.5905  -19.3532  -42.5084 C.2       8 UNK         0.5000 
     31 O           1.7809  -19.3129  -43.4372 O.2       8 UNK        -0.5000 
     32 CA          4.0829  -19.0884  -42.7769 C.3       8 UNK         0.1400 
     33 CB          4.8036  -20.4108  -43.0836 C.3       8 UNK        -0.1800 
     34 N           4.2811  -18.1770  -43.9025 N.am      8 UNK        -0.5000 
     35 C           3.9521  -16.8808  -43.8950 C.2       7 UNK         0.5000 
     36 O           3.5236  -16.2878  -42.9005 O.2       7 UNK        -0.5000 
     37 CA          4.1260  -16.1363  -45.2284 C.3       7 UNK         0.1400 
     38 CB          3.0791  -16.6059  -46.2474 C.3       7 UNK        -0.1800 
     39 N           3.9459  -14.7093  -45.0025 N.am      7 UNK        -0.5000 
     40 C           4.8482  -13.7487  -45.2284 C.2       6 UNK         0.5000 
     41 O           5.9176  -13.9258  -45.8126 O.2       6 UNK        -0.5000 
     42 CA          4.4995  -12.3549  -44.6733 C.3       6 UNK         0.1400 
     43 CB          3.7505  -11.5220  -45.7250 C.3       6 UNK        -0.1800 
     44 N           3.6698  -12.4632  -43.4741 N.am      6 UNK        -0.5000 
     45 C           4.1226  -12.7640  -42.2495 C.2       5 UNK         0.5000 
     46 O           5.3197  -12.8256  -41.9637 O.2       5 UNK        -0.5000 
     47 CA          3.0518  -13.0757  -41.1814 C.3       5 UNK         0.1400 
     48 CB          3.5222  -12.7741  -39.7433 C.3       5 UNK        -0.1800 
     49 N           1.7573  -12.4472  -41.4654 N.am      5 UNK        -0.5000 
     50 C           1.4638  -11.1379  -41.4836 C.2       4 UNK         0.5000 
     51 O           2.2638  -10.2485  -41.1913 O.2       4 UNK        -0.5000 
     52 CA          0.0416  -10.7473  -41.9357 C.3       4 UNK         0.1400 
     53 CB          0.0882  -10.1163  -43.3367 C.3       4 UNK        -0.1800 
     54 N          -0.8933  -11.8738  -41.9650 N.am      4 UNK        -0.5000 
     55 C          -1.4071  -12.4836  -40.8883 C.2       3 UNK         0.5000 
     56 O          -1.1970  -12.1231  -39.7300 O.2       3 UNK        -0.5000 
     57 CA         -2.2693  -13.7295  -41.1560 C.3       3 UNK         0.1400 
     58 CB         -3.7237  -13.3350  -41.4558 C.3       3 UNK        -0.1800 
     59 N          -1.7453  -14.5340  -42.2620 N.am      3 UNK        -0.5000 
     60 C          -0.6607  -15.3191  -42.1882 C.2       2 UNK         0.5000 
     61 O           0.0122  -15.4611  -41.1679 O.2       2 UNK        -0.5000 
     62 CA         -0.2507  -16.0505  -43.4796 C.3       2 UNK         0.1400 
     63 CB         -1.0504  -17.3530  -43.6369 C.3       2 UNK        -0.1800 
     64 N          -0.4451  -15.2271  -44.6729 N.am      2 UNK        -0.5000 
     65 C           0.2801  -14.1441  -44.9854 C.2       1 UNK         0.5000 
     66 O           1.2175  -13.7286  -44.3027 O.2       1 UNK        -0.5000 
     67 C          -1.6391  -21.0762  -45.8272 C.2       11 UNK         0.5000 
     68 O          -2.3266  -21.0921  -46.8477 O.2       11 UNK        -0.5000 
     69 N          -2.1570  -20.8881  -44.6027 N.am      12 UNK        -0.5000 
     70 CA         -3.5942  -20.7834  -44.3339 C.3       12 UNK         0.1400 
     71 CB         -3.8083  -20.2156  -42.9227 C.3       12 UNK        -0.1800 
     72 C          -4.3375  -22.1275  -44.4951 C.2       12 UNK         0.5000 
     73 O          -5.5608  -22.1240  -44.6336 O.2       12 UNK        -0.5000 
     74 N          -3.5947  -23.2434  -44.4830 N.am      13 UNK        -0.5000 
     75 CA         -4.0972  -24.6065  -44.6478 C.3       13 UNK         0.1400 
     76 CB         -3.4941  -25.4852  -43.5370 C.3       13 UNK        -0.1800 
     77 C          -3.7919  -25.1735  -46.0507 C.2       13 UNK         0.5000 
     78 O          -3.8992  -26.3863  -46.2429 O.2       13 UNK        -0.5000 
     79 N          -3.4135  -24.3110  -47.0079 N.am      14 UNK        -0.5000 
     80 CA         -3.1662  -24.6718  -48.4065 C.3       14 UNK         0.1400 
     81 CB         -2.5905  -23.4567  -49.1523 C.3       14 UNK        -0.1800 
     82 C          -4.4368  -25.1844  -49.1141 C.2       14 UNK         0.5000 
     83 O          -5.5401  -24.7174  -48.8174 O.2       14 UNK        -0.5000 
     84 N          -4.2512  -26.1299  -50.0434 N.am      15 UNK        -0.5000 
     85 CA         -5.3129  -26.7188  -50.8601 C.3       15 UNK         0.1400 
     86 CB         -4.7398  -27.9287  -51.6147 C.3       15 UNK        -0.1800 
     87 C          -5.9005  -25.7080  -51.8596 C.2       15 UNK         0.5000 
     88 O          -5.1828  -24.8188  -52.3224 O.2       15 UNK        -0.5000 
     89 N          -7.1752  -25.8985  -52.2247 N.am      16 UNK        -0.5000 
     90 CA         -7.9107  -25.0523  -53.1712 C.3       16 UNK         0.1400 
     91 CB         -9.3646  -25.5385  -53.2652 C.3       16 UNK        -0.1800 
     92 C          -7.2703  -24.9907  -54.5713 C.2       16 UNK         0.5000 
     93 O          -7.2636  -23.9283  -55.1923 O.2       16 UNK        -0.5000 
     94 N          -6.7032  -26.1203  -55.0179 N.am      17 UNK        -0.5000 
     95 CA         -5.9774  -26.2463  -56.2828 C.3       17 UNK         0.1400 
     96 CB         -5.7043  -27.7326  -56.5585 C.3       17 UNK        -0.1800 
     97 C          -4.6638  -25.4413  -56.3131 C.2       17 UNK         0.5000 
     98 O          -4.2728  -24.9674  -57.3801 O.2       17 UNK        -0.5000 
     99 N          -4.0180  -25.2878  -55.1482 N.am      18 UNK        -0.5000 
    100 CA        -2.8393  -24.4428  -54.9724 C.3       18 UNK         0.1400 
    101 CB        -2.0329  -24.9095  -53.7494 C.3       18 UNK        -0.1800 
    102 C         -3.2520  -22.9703  -54.8382 C.2       18 UNK         0.5000 
    103 O         -2.7133  -22.1226  -55.5500 O.2       18 UNK        -0.5000 
    104 N         -4.2351  -22.7017  -53.9651 N.am      19 UNK        -0.5000 
    105 CA        -4.7749  -21.3723  -53.6657 C.3       19 UNK         0.1400 
    106 CB        -5.8522  -21.4919  -52.5794 C.3       19 UNK        -0.1800 
    107 C         -5.3228  -20.6270  -54.8961 C.2       19 UNK         0.5000 
    108 O         -5.2098  -19.4035  -54.9603 O.2       19 UNK        -0.5000 
    109 N         -5.8491  -21.3741  -55.8755 N.am      20 UNK        -0.5000 
    110 CA        -6.2637  -20.8714  -57.1857 C.3       20 UNK         0.1400 
    111 CB        -6.9221  -22.0161  -57.9711 C.3       20 UNK        -0.1800 
    112 C         -5.1200  -20.2428  -58.0119 C.2       20 UNK         0.5000 
    113 O         -5.3978  -19.3946  -58.8611 O.2       20 UNK        -0.5000 
    114 N         -3.8703  -20.6567  -57.7579 N.am      21 UNK        -0.5000 
    115 CA        -2.6733  -20.1213  -58.3991 C.3       21 UNK         0.1400 
    116 CB        -1.6882  -21.2646  -58.6948 C.3       21 UNK        -0.1800 
    117 C         -2.0169  -19.0340  -57.5324 C.2       21 UNK         0.5000 
    118 O         -1.7619  -17.9408  -58.0402 O.2       21 UNK        -0.5000 
    119 N         -1.7378  -19.3441  -56.2572 N.am      22 UNK        -0.5000 
    120 CA        -1.0305  -18.4354  -55.3331 C.3       22 UNK         0.1400 
    121 C         -1.8965  -17.3173  -54.6849 C.2       22 UNK         0.5000 
    122 N         -3.2205  -17.3699  -54.7314 N.am      22 UNK        -0.7600 
    123 O         -1.3504  -16.3625  -54.1391 O.2       22 UNK        -0.5000 
    124 C124       -0.1599  -19.1846  -54.2883 C.3       23 UNK        -0.0398 
    125 S125       -1.0253  -20.4736  -53.3294 S.3       23 UNK        -0.2404 
    126 C126       -1.5778  -19.5784  -51.8452 C.3       23 UNK        -0.0205 
    127 H127       -4.5156  -13.3967  -45.2476 H         1 UNK         0.0600 
    128 H128       -4.0882  -13.3167  -46.9599 H         1 UNK         0.0600 
    129 H129       -4.3462  -11.8286  -46.0434 H         1 UNK         0.0600 
    130 H130       -1.9236  -13.7188  -47.3192 H         1 UNK         0.3000 
    131 H131        0.1974  -12.3458  -46.1147 H         1 UNK         0.0600 
    132 H132        0.4640  -13.2128  -48.3449 H         1 UNK         0.0800 
    133 H133        1.6696  -13.9787  -47.3492 H         1 UNK         0.0800 
    134 H134        0.7015  -15.2576  -50.3500 H         1 UNK         0.0800 
    135 H135        2.0472  -15.6739  -49.3077 H         1 UNK         0.0800 
    136 H136       -0.8352  -17.0332  -51.1916 H         1 UNK         0.1150 
    137 H137        0.1884  -21.1349  -50.4902 H         1 UNK         0.1150 
    138 H138        2.4657  -18.0101  -48.6428 H         1 UNK         0.1150 
    139 H139        1.8342  -21.7293  -48.9102 H         1 UNK         0.0800 
    140 H140        3.2617  -20.7535  -49.1584 H         1 UNK         0.0800 
    141 H141        0.0695  -19.6806  -47.3356 H         1 UNK         0.0800 
    142 H142        0.6151  -19.3050  -45.7395 H         1 UNK         0.0800 
    143 H143       -0.0126  -22.1374  -46.6862 H         1 UNK         0.0600 
    144 H144        1.0837  -21.1919  -44.2112 H         1 UNK         0.3000 
    145 H145        0.1364  -23.9560  -42.2173 H         1 UNK         0.0600 
    146 H146        2.5506  -24.5107  -42.0500 H         1 UNK         0.0600 
    147 H147        1.9054  -25.0962  -43.5747 H         1 UNK         0.0600 
    148 H148        2.8840  -23.6339  -43.5446 H         1 UNK         0.0600 
    149 H149        2.1657  -22.0321  -41.7950 H         1 UNK         0.3000 
    150 H150        0.2605  -19.1902  -41.0252 H         1 UNK         0.0600 
    151 H151        1.5727  -21.0910  -39.0096 H         1 UNK         0.0600 
    152 H152       -0.0843  -20.5044  -38.9268 H         1 UNK         0.0600 
    153 H153        1.2492  -19.3741  -38.7624 H         1 UNK         0.0600 
    154 H154        2.9852  -19.7207  -40.5495 H         1 UNK         0.3000 
    155 H155        4.5276  -18.6391  -41.8864 H         1 UNK         0.0600 
    156 H156        4.3891  -20.8987  -43.9674 H         1 UNK         0.0600 
    157 H157        4.7155  -21.1102  -42.2513 H         1 UNK         0.0600 
    158 H158        5.8676  -20.2495  -43.2576 H         1 UNK         0.0600 
    159 H159        4.5812  -18.5999  -44.7683 H         1 UNK         0.3000 
    160 H160        5.1265  -16.3456  -45.6122 H         1 UNK         0.0600 
    161 H161        2.0624  -16.4844  -45.8724 H         1 UNK         0.0600 
    162 H162        3.2153  -17.6603  -46.4820 H         1 UNK         0.0600 
    163 H163        3.1652  -16.0513  -47.1808 H         1 UNK         0.0600 
    164 H164        3.1151  -14.4646  -44.4740 H         1 UNK         0.3000 
    165 H165        5.4305  -11.8424  -44.4224 H         1 UNK         0.0600 
    166 H166        4.3505  -11.4036  -46.6280 H         1 UNK         0.0600 
    167 H167        2.8090  -11.9894  -46.0146 H         1 UNK         0.0600 
    168 H168        3.5264  -10.5235  -45.3492 H         1 UNK         0.0600 
    169 H169        2.6683  -12.5118  -43.6259 H         1 UNK         0.3000 
    170 H170        2.8746  -14.1502  -41.2452 H         1 UNK         0.0600 
    171 H171        4.3883  -13.3829  -39.4815 H         1 UNK         0.0600 
    172 H172        3.8098  -11.7301  -39.6188 H         1 UNK         0.0600 
    173 H173        2.7395  -12.9971  -39.0181 H         1 UNK         0.0600 
    174 H174        1.0258  -13.0844  -41.7494 H         1 UNK         0.3000 
    175 H175       -0.3363  -10.0023  -41.2326 H         1 UNK         0.0600 
    176 H176       -0.9015   -9.7883  -43.6551 H         1 UNK         0.0600 
    177 H177        0.7410   -9.2427  -43.3535 H         1 UNK         0.0600 
    178 H178        0.4624  -10.8207  -44.0805 H         1 UNK         0.0600 
    179 H179       -1.1890  -12.1893  -42.8857 H         1 UNK         0.3000 
    180 H180       -2.2639  -14.3409  -40.2510 H         1 UNK         0.0600 
    181 H181       -3.8015  -12.7250  -42.3563 H         1 UNK         0.0600 
    182 H182       -4.1480  -12.7589  -40.6325 H         1 UNK         0.0600 
    183 H183       -4.3509  -14.2161  -41.5924 H         1 UNK         0.0600 
    184 H184       -2.2078  -14.4310  -43.1533 H         1 UNK         0.3000 
    185 H185        0.8086  -16.3047  -43.4048 H         1 UNK         0.0600 
    186 H186       -0.8865  -18.0178  -42.7887 H         1 UNK         0.0600 
    187 H187       -2.1224  -17.1647  -43.7062 H         1 UNK         0.0600 
    188 H188       -0.7495  -17.8940  -44.5325 H         1 UNK         0.0600 
    189 H189       -1.1866  -15.4994  -45.3016 H         1 UNK         0.3000 
    190 H190       -1.5477  -20.9189  -43.7938 H         1 UNK         0.3000 
    191 H191       -4.0253  -20.0799  -45.0495 H         1 UNK         0.0600 
    192 H192       -3.2762  -19.2745  -42.7860 H         1 UNK         0.0600 
    193 H193       -4.8656  -20.0205  -42.7392 H         1 UNK         0.0600 
    194 H194       -3.4686  -20.9097  -42.1537 H         1 UNK         0.0600 
    195 H195       -2.5878  -23.1612  -44.4033 H         1 UNK         0.3000 
    196 H196       -5.1826  -24.6237  -44.5324 H         1 UNK         0.0600 
    197 H197       -3.9086  -26.4936  -43.5633 H         1 UNK         0.0600 
    198 H198       -3.7086  -25.0749  -42.5501 H         1 UNK         0.0600 
    199 H199       -2.4117  -25.5728  -43.6353 H         1 UNK         0.0600 
    200 H200       -3.3655  -23.3277  -46.7812 H         1 UNK         0.3000 
    201 H201       -2.4184  -25.4676  -48.4155 H         1 UNK         0.0600 
    202 H202       -2.3917  -23.6944  -50.1984 H         1 UNK         0.0600 
    203 H203       -3.2801  -22.6117  -49.1350 H         1 UNK         0.0600 
    204 H204       -1.6492  -23.1303  -48.7097 H         1 UNK         0.0600 
    205 H205       -3.3115  -26.4346  -50.2493 H         1 UNK         0.3000 
    206 H206       -6.1087  -27.0599  -50.1946 H         1 UNK         0.0600 
    207 H207       -4.3455  -28.6740  -50.9236 H         1 UNK         0.0600 
    208 H208       -5.5082  -28.4195  -52.2134 H         1 UNK         0.0600 
    209 H209       -3.9339  -27.6377  -52.2901 H         1 UNK         0.0600 
    210 H210       -7.6930  -26.6609  -51.8116 H         1 UNK         0.3000 
    211 H211       -7.9203  -24.0391  -52.7671 H         1 UNK         0.0600 
    212 H212       -9.4242  -26.5650  -53.6291 H         1 UNK         0.0600 
    213 H213       -9.9415  -24.9138  -53.9486 H         1 UNK         0.0600 
    214 H214       -9.8585  -25.4965  -52.2943 H         1 UNK         0.0600 
    215 H215       -6.7574  -26.9453  -54.4392 H         1 UNK         0.3000 
    216 H216       -6.6181  -25.8615  -57.0794 H         1 UNK         0.0600 
    217 H217       -5.1833  -27.8642  -57.5078 H         1 UNK         0.0600 
    218 H218       -6.6332  -28.3002  -56.6181 H         1 UNK         0.0600 
    219 H219       -5.0856  -28.1798  -55.7795 H         1 UNK         0.0600 
    220 H220       -4.4412  -25.6522  -54.3062 H         1 UNK         0.3000 
    221 H221       -2.1970  -24.5355  -55.8510 H         1 UNK         0.0600 
    222 H222       -2.6056  -24.8368  -52.8249 H         1 UNK         0.0600 
    223 H223       -1.7112  -25.9448  -53.8625 H         1 UNK         0.0600 
    224 H224       -1.1360  -24.3014  -53.6238 H         1 UNK         0.0600 
    225 H225       -4.6129  -23.4704  -53.4150 H         1 UNK         0.3000 
    226 H226       -3.9577  -20.7735  -53.2632 H         1 UNK         0.0600 
    227 H227       -6.2132  -20.5077  -52.2783 H         1 UNK         0.0600 
    228 H228       -6.7107  -22.0619  -52.9325 H         1 UNK         0.0600 
    229 H229       -5.4637  -21.9842  -51.6874 H         1 UNK         0.0600 
    230 H230       -5.9742  -22.3667  -55.7101 H         1 UNK         0.3000 
    231 H231       -7.0119  -20.0937  -57.0204 H         1 UNK         0.0600 
    232 H232       -6.2340  -22.8502  -58.1156 H         1 UNK         0.0600 
    233 H233       -7.2466  -21.6811  -58.9572 H         1 UNK         0.0600 
    234 H234       -7.8030  -22.3945  -57.4523 H         1 UNK         0.0600 
    235 H235       -3.7117  -21.3224  -57.0078 H         1 UNK         0.3000 
    236 H236       -2.9374  -19.6683  -59.3572 H         1 UNK         0.0600 
    237 H237       -2.1422  -22.0159  -59.3412 H         1 UNK         0.0600 
    238 H238       -0.8006  -20.8894  -59.2057 H         1 UNK         0.0600 
    239 H239       -1.3539  -21.7659  -57.7865 H         1 UNK         0.0600 
    240 H240       -1.9855  -20.2601  -55.8955 H         1 UNK         0.3000 
    241 H241       -0.3120  -17.8804  -55.9399 H         1 UNK         0.0600 
    242 H242       -3.7172  -18.1717  -55.1054 H         1 UNK         0.3800 
    243 H243       -3.7507  -16.6219  -54.3154 H         1 UNK         0.3800 
    244 H244        0.3308  -18.4847  -53.6102 H         1 UNK         0.0800 
    245 H245        0.6549  -19.6848  -54.8127 H         1 UNK         0.0800 
    246 H246       -2.2231  -20.2377  -51.2628 H         1 UNK         0.0800 
    247 H247       -2.1981  -18.7311  -52.1391 H         1 UNK         0.0800 
@<TRIPOS>BOND
     1    1    2 1    
     2    1  127 1    
     3    1  128 1    
     4    1  129 1    
     5    2    3 2    
     6    2    4 am   BACKBONE|DICT|INTERRES
     7    4    5 1    
     8    4  130 1    
     9    5    6 1    
    10    5   65 1    
    11    5  131 1    
    12    6    7 1    
    13    6  132 1    
    14    6  133 1    
    15    7    8 1    
    16    8    9 1    
    17    8  134 1    
    18    8  135 1    
    19    9   10 ar   
    20    9   14 ar   
    21   10   11 ar   
    22   10  136 1    
    23   11   12 ar   
    24   11  126 1    
    25   12   13 ar   
    26   12  137 1    
    27   13   14 ar   
    28   13   15 1    
    29   14  138 1    
    30   15   16 1    
    31   15  139 1    
    32   15  140 1    
    33   16   17 1    
    34   17   18 1    
    35   17  141 1    
    36   17  142 1    
    37   18   19 1    
    38   18   67 1    
    39   18  143 1    
    40   19   20 am   BACKBONE|DICT|INTERRES
    41   19  144 1    
    42   20   21 2    
    43   20   22 1    
    44   22   23 1    
    45   22   24 1    
    46   22  145 1    
    47   23  146 1    
    48   23  147 1    
    49   23  148 1    
    50   24   25 am   BACKBONE|DICT|INTERRES
    51   24  149 1    
    52   25   26 2    
    53   25   27 1    
    54   27   28 1    
    55   27   29 1    
    56   27  150 1    
    57   28  151 1    
    58   28  152 1    
    59   28  153 1    
    60   29   30 am   BACKBONE|DICT|INTERRES
    61   29  154 1    
    62   30   31 2    
    63   30   32 1    
    64   32   33 1    
    65   32   34 1    
    66   32  155 1    
    67   33  156 1    
    68   33  157 1    
    69   33  158 1    
    70   34   35 am   BACKBONE|DICT|INTERRES
    71   34  159 1    
    72   35   36 2    
    73   35   37 1    
    74   37   38 1    
    75   37   39 1    
    76   37  160 1    
    77   38  161 1    
    78   38  162 1    
    79   38  163 1    
    80   39   40 am   BACKBONE|DICT|INTERRES
    81   39  164 1    
    82   40   41 2    
    83   40   42 1    
    84   42   43 1    
    85   42   44 1    
    86   42  165 1    
    87   43  166 1    
    88   43  167 1    
    89   43  168 1    
    90   44   45 am   BACKBONE|DICT|INTERRES
    91   44  169 1    
    92   45   46 2    
    93   45   47 1    
    94   47   48 1    
    95   47   49 1    
    96   47  170 1    
    97   48  171 1    
    98   48  172 1    
    99   48  173 1    
   100   49   50 am   BACKBONE|DICT|INTERRES
   101   49  174 1    
   102   50   51 2    
   103   50   52 1    
   104   52   53 1    
   105   52   54 1    
   106   52  175 1    
   107   53  176 1    
   108   53  177 1    
   109   53  178 1    
   110   54   55 am   BACKBONE|DICT|INTERRES
   111   54  179 1    
   112   55   56 2    
   113   55   57 1    
   114   57   58 1    
   115   57   59 1    
   116   57  180 1    
   117   58  181 1    
   118   58  182 1    
   119   58  183 1    
   120   59   60 am   BACKBONE|DICT|INTERRES
   121   59  184 1    
   122   60   61 2    
   123   60   62 1    
   124   62   63 1    
   125   62   64 1    
   126   62  185 1    
   127   63  186 1    
   128   63  187 1    
   129   63  188 1    
   130   64   65 am   BACKBONE|DICT|INTERRES
   131   64  189 1    
   132   65   66 2    
   133   67   68 2    
   134   67   69 am   BACKBONE|DICT|INTERRES
   135   69   70 1    
   136   69  190 1    
   137   70   71 1    
   138   70   72 1    
   139   70  191 1    
   140   71  192 1    
   141   71  193 1    
   142   71  194 1    
   143   72   73 2    
   144   72   74 am   BACKBONE|DICT|INTERRES
   145   74   75 1    
   146   74  195 1    
   147   75   76 1    
   148   75   77 1    
   149   75  196 1    
   150   76  197 1    
   151   76  198 1    
   152   76  199 1    
   153   77   78 2    
   154   77   79 am   BACKBONE|DICT|INTERRES
   155   79   80 1    
   156   79  200 1    
   157   80   81 1    
   158   80   82 1    
   159   80  201 1    
   160   81  202 1    
   161   81  203 1    
   162   81  204 1    
   163   82   83 2    
   164   82   84 am   BACKBONE|DICT|INTERRES
   165   84   85 1    
   166   84  205 1    
   167   85   86 1    
   168   85   87 1    
   169   85  206 1    
   170   86  207 1    
   171   86  208 1    
   172   86  209 1    
   173   87   88 2    
   174   87   89 am   BACKBONE|DICT|INTERRES
   175   89   90 1    
   176   89  210 1    
   177   90   91 1    
   178   90   92 1    
   179   90  211 1    
   180   91  212 1    
   181   91  213 1    
   182   91  214 1    
   183   92   93 2    
   184   92   94 am   BACKBONE|DICT|INTERRES
   185   94   95 1    
   186   94  215 1    
   187   95   96 1    
   188   95   97 1    
   189   95  216 1    
   190   96  217 1    
   191   96  218 1    
   192   96  219 1    
   193   97   98 2    
   194   97   99 am   BACKBONE|DICT|INTERRES
   195   99  100 1    
   196   99  220 1    
   197  100  101 1    
   198  100  102 1    
   199  100  221 1    
   200  101  222 1    
   201  101  223 1    
   202  101  224 1    
   203  102  103 2    
   204  102  104 am   BACKBONE|DICT|INTERRES
   205  104  105 1    
   206  104  225 1    
   207  105  106 1    
   208  105  107 1    
   209  105  226 1    
   210  106  227 1    
   211  106  228 1    
   212  106  229 1    
   213  107  108 2    
   214  107  109 am   BACKBONE|DICT|INTERRES
   215  109  110 1    
   216  109  230 1    
   217  110  111 1    
   218  110  112 1    
   219  110  231 1    
   220  111  232 1    
   221  111  233 1    
   222  111  234 1    
   223  112  113 2    
   224  112  114 am   BACKBONE|DICT|INTERRES
   225  114  115 1    
   226  114  235 1    
   227  115  116 1    
   228  115  117 1    
   229  115  236 1    
   230  116  237 1    
   231  116  238 1    
   232  116  239 1    
   233  117  118 2    
   234  117  119 am   BACKBONE|DICT|INTERRES
   235  119  120 1    
   236  119  240 1    
   237  120  121 1    
   238  120  124 1    
   239  120  241 1    
   240  121  122 am   BACKBONE|DICT|INTERRES
   241  121  123 2    
   242  122  242 1    
   243  122  243 1    
   244  124  125 1    
   245  124  244 1    
   246  124  245 1    
   247  125  126 1    
   248  126  246 1    
   249  126  247 1    
@<TRIPOS>SUBSTRUCTURE
     1 UNK         1 GROUP             0       ****    0 ROOT    
