@<TRIPOS>MOLECULE
3R540
247   249    1
SMALL
USER_CHARGES


@<TRIPOS>ATOM
      1 CA         -5.2800  -19.4410  -45.5153 C.3       0 UNK        -0.1800 
      2 C          -4.1485  -18.4270  -45.5644 C.2       0 UNK         0.5000 
      3 O          -4.2158  -17.4024  -44.8892 O.2       0 UNK        -0.5000 
      4 N          -3.1045  -18.7089  -46.3525 N.am      1 UNK        -0.5000 
      5 CA         -1.9142  -17.8616  -46.5171 C.3       1 UNK         0.1400 
      6 C6         -0.9993  -18.3846  -47.6492 C.3       23 UNK        -0.0398 
      7 S7          0.1142  -17.1068  -48.3197 S.3       23 UNK        -0.2404 
      8 C8          0.1794  -17.5181  -50.0992 C.3       23 UNK        -0.0205 
      9 C9          0.8004  -18.8731  -50.4502 C.ar      23 UNK        -0.0193 
     10 C10         0.4607  -19.4626  -51.6715 C.ar      23 UNK        -0.1150 
     11 C11         0.9698  -20.7134  -52.0267 C.ar      23 UNK        -0.0193 
     12 C12         1.8270  -21.3805  -51.1492 C.ar      23 UNK        -0.1150 
     13 C13         2.1909  -20.8121  -49.9256 C.ar      23 UNK        -0.0193 
     14 C14         1.6961  -19.5406  -49.6022 C.ar      23 UNK        -0.1150 
     15 C15         3.1055  -21.6291  -49.0037 C.3       23 UNK        -0.0205 
     16 S16         3.3060  -21.0506  -47.2781 S.3       23 UNK        -0.2404 
     17 C17         1.5982  -21.1056  -46.6379 C.3       23 UNK        -0.0398 
     18 CA          1.2013  -22.4180  -45.9221 C.3       11 UNK         0.1400 
     19 N           2.1210  -22.7564  -44.8299 N.am      11 UNK        -0.5000 
     20 C           2.3821  -23.9979  -44.3960 C.2       10 UNK         0.5000 
     21 O           1.8052  -24.9952  -44.8311 O.2       10 UNK        -0.5000 
     22 CA          3.4380  -24.1677  -43.2852 C.3       10 UNK         0.1400 
     23 CB          4.7999  -24.5282  -43.8977 C.3       10 UNK        -0.1800 
     24 N           3.5995  -22.9836  -42.4436 N.am      10 UNK        -0.5000 
     25 C           2.6778  -22.5073  -41.5961 C.2       9 UNK         0.5000 
     26 O           1.6037  -23.0656  -41.3719 O.2       9 UNK        -0.5000 
     27 CA          3.0021  -21.1746  -40.8889 C.3       9 UNK         0.1400 
     28 CB          3.4863  -21.4384  -39.4549 C.3       9 UNK        -0.1800 
     29 N           3.9874  -20.3269  -41.5714 N.am      9 UNK        -0.5000 
     30 C           3.8987  -19.8559  -42.8233 C.2       8 UNK         0.5000 
     31 O           2.9987  -20.1570  -43.6108 O.2       8 UNK        -0.5000 
     32 CA          5.0591  -18.9484  -43.2746 C.3       8 UNK         0.1400 
     33 CB          6.2774  -19.8037  -43.6589 C.3       8 UNK        -0.1800 
     34 N           4.7181  -18.0965  -44.4131 N.am      8 UNK        -0.5000 
     35 C           3.7768  -17.1451  -44.4261 C.2       7 UNK         0.5000 
     36 O           3.0975  -16.8293  -43.4439 O.2       7 UNK        -0.5000 
     37 CA          3.5808  -16.4178  -45.7664 C.3       7 UNK         0.1400 
     38 CB          3.3458  -17.3999  -46.9255 C.3       7 UNK        -0.1800 
     39 N           2.4476  -15.5103  -45.6513 N.am      7 UNK        -0.5000 
     40 C           2.2557  -14.3865  -46.3500 C.2       6 UNK         0.5000 
     41 O           3.0084  -14.0012  -47.2457 O.2       6 UNK        -0.5000 
     42 CA          1.0334  -13.5292  -45.9672 C.3       6 UNK         0.1400 
     43 CB         -0.0829  -13.6330  -47.0181 C.3       6 UNK        -0.1800 
     44 N           0.4824  -13.9059  -44.6672 N.am      6 UNK        -0.5000 
     45 C           0.9170  -13.4523  -43.4847 C.2       5 UNK         0.5000 
     46 O           1.8244  -12.6274  -43.3625 O.2       5 UNK        -0.5000 
     47 CA          0.2132  -14.0295  -42.2386 C.3       5 UNK         0.1400 
     48 CB          0.3483  -13.1317  -40.9915 C.3       5 UNK        -0.1800 
     49 N          -1.1898  -14.3719  -42.4941 N.am      5 UNK        -0.5000 
     50 C          -2.1885  -13.5463  -42.8466 C.2       4 UNK         0.5000 
     51 O          -2.0731  -12.3232  -42.9316 O.2       4 UNK        -0.5000 
     52 CA         -3.5444  -14.1954  -43.1936 C.3       4 UNK         0.1400 
     53 CB         -3.7942  -14.1249  -44.7091 C.3       4 UNK        -0.1800 
     54 N          -3.6416  -15.5935  -42.7745 N.am      4 UNK        -0.5000 
     55 C          -3.7650  -16.0183  -41.5108 C.2       3 UNK         0.5000 
     56 O          -3.9021  -15.2682  -40.5441 O.2       3 UNK        -0.5000 
     57 CA         -3.6692  -17.5387  -41.2919 C.3       3 UNK         0.1400 
     58 CB         -5.0363  -18.2090  -41.4951 C.3       3 UNK        -0.1800 
     59 N          -2.6776  -18.1731  -42.1661 N.am      3 UNK        -0.5000 
     60 C          -1.3509  -18.0033  -42.0658 C.2       2 UNK         0.5000 
     61 O          -0.8165  -17.2670  -41.2377 O.2       2 UNK        -0.5000 
     62 CA         -0.4761  -18.7832  -43.0642 C.3       2 UNK         0.1400 
     63 CB         -0.3233  -20.2333  -42.5855 C.3       2 UNK        -0.1800 
     64 N          -1.0167  -18.7745  -44.4241 N.am      2 UNK        -0.5000 
     65 C          -1.1499  -17.6784  -45.1858 C.2       1 UNK         0.5000 
     66 O          -0.7601  -16.5579  -44.8483 O.2       1 UNK        -0.5000 
     67 C          -0.2754  -22.3797  -45.4527 C.2       11 UNK         0.5000 
     68 O          -1.0136  -21.4551  -45.8009 O.2       11 UNK        -0.5000 
     69 N          -0.6867  -23.3666  -44.6479 N.am      12 UNK        -0.5000 
     70 CA         -2.0371  -23.4806  -44.0937 C.3       12 UNK         0.1400 
     71 CB         -1.9939  -24.3945  -42.8604 C.3       12 UNK        -0.1800 
     72 C          -3.0628  -23.9937  -45.1201 C.2       12 UNK         0.5000 
     73 O          -4.2361  -23.6304  -45.0386 O.2       12 UNK        -0.5000 
     74 N          -2.6033  -24.8249  -46.0654 N.am      13 UNK        -0.5000 
     75 CA         -3.4198  -25.3864  -47.1444 C.3       13 UNK         0.1400 
     76 CB         -2.7671  -26.6914  -47.6271 C.3       13 UNK        -0.1800 
     77 C          -3.6086  -24.4129  -48.3245 C.2       13 UNK         0.5000 
     78 O          -4.5325  -24.5961  -49.1182 O.2       13 UNK        -0.5000 
     79 N          -2.7251  -23.4135  -48.4328 N.am      14 UNK        -0.5000 
     80 CA         -2.7581  -22.3776  -49.4597 C.3       14 UNK         0.1400 
     81 CB         -1.3683  -21.7433  -49.5498 C.3       14 UNK        -0.1800 
     82 C          -3.7991  -21.2999  -49.1240 C.2       14 UNK         0.5000 
     83 O          -3.9647  -20.9635  -47.9506 O.2       14 UNK        -0.5000 
     84 N          -4.4485  -20.7502  -50.1565 N.am      15 UNK        -0.5000 
     85 CA         -5.4167  -19.6592  -50.0392 C.3       15 UNK         0.1400 
     86 CB         -6.1644  -19.5165  -51.3718 C.3       15 UNK        -0.1800 
     87 C          -4.7505  -18.3252  -49.6500 C.2       15 UNK         0.5000 
     88 O          -3.5765  -18.1092  -49.9524 O.2       15 UNK        -0.5000 
     89 N          -5.5313  -17.4439  -49.0114 N.am      16 UNK        -0.5000 
     90 CA         -5.0853  -16.1705  -48.4338 C.3       16 UNK         0.1400 
     91 CB         -6.2271  -15.5903  -47.5850 C.3       16 UNK        -0.1800 
     92 C          -4.5732  -15.1204  -49.4406 C.2       16 UNK         0.5000 
     93 O          -3.8754  -14.1922  -49.0305 O.2       16 UNK        -0.5000 
     94 N          -4.9257  -15.2709  -50.7223 N.am      17 UNK        -0.5000 
     95 CA         -4.4952  -14.3905  -51.8092 C.3       17 UNK         0.1400 
     96 CB         -5.3957  -13.1443  -51.8766 C.3       17 UNK        -0.1800 
     97 C          -4.4727  -15.1242  -53.1574 C.2       17 UNK         0.5000 
     98 O          -3.5927  -14.8550  -53.9766 O.2       17 UNK        -0.5000 
     99 N          -5.4272  -16.0419  -53.3721 N.am      18 UNK        -0.5000 
    100 CA        -5.5833  -16.8328  -54.5947 C.3       18 UNK         0.1400 
    101 CB        -7.0261  -17.3670  -54.6547 C.3       18 UNK        -0.1800 
    102 C         -4.5345  -17.9595  -54.7098 C.2       18 UNK         0.5000 
    103 O         -4.8883  -19.1383  -54.7053 O.2       18 UNK        -0.5000 
    104 N         -3.2548  -17.5829  -54.8277 N.am      19 UNK        -0.5000 
    105 CA        -2.0974  -18.4815  -54.9328 C.3       19 UNK         0.1400 
    106 CB        -0.8145  -17.6380  -54.9674 C.3       19 UNK        -0.1800 
    107 C         -2.1433  -19.4540  -56.1313 C.2       19 UNK         0.5000 
    108 O         -1.4919  -20.4963  -56.0923 O.2       19 UNK        -0.5000 
    109 N         -2.9510  -19.1316  -57.1508 N.am      20 UNK        -0.5000 
    110 CA        -3.2792  -20.0013  -58.2821 C.3       20 UNK         0.1400 
    111 CB        -4.0922  -19.1914  -59.3040 C.3       20 UNK        -0.1800 
    112 C         -4.0374  -21.2894  -57.8881 C.2       20 UNK         0.5000 
    113 O         -4.0515  -22.2365  -58.6749 O.2       20 UNK        -0.5000 
    114 N         -4.6461  -21.3166  -56.6917 N.am      21 UNK        -0.5000 
    115 CA        -5.3205  -22.4870  -56.1266 C.3       21 UNK         0.1400 
    116 CB        -6.2291  -22.0364  -54.9714 C.3       21 UNK        -0.1800 
    117 C         -4.3498  -23.5857  -55.6458 C.2       21 UNK         0.5000 
    118 O         -4.7859  -24.7238  -55.4646 O.2       21 UNK        -0.5000 
    119 N         -3.0711  -23.2423  -55.4332 N.am      22 UNK        -0.5000 
    120 CA        -2.0054  -24.1825  -55.0549 C.3       22 UNK         0.1400 
    121 C         -1.7054  -25.2220  -56.1718 C.2       22 UNK         0.5000 
    122 N         -1.4924  -26.4817  -55.8158 N.am      22 UNK        -0.7600 
    123 O         -1.6174  -24.8889  -57.3514 O.2       22 UNK        -0.5000 
    124 C124       -0.7037  -23.4450  -54.6584 C.3       23 UNK        -0.0398 
    125 S125       -0.8933  -22.3995  -53.1765 S.3       23 UNK        -0.2404 
    126 C126        0.5881  -21.3577  -53.3484 C.3       23 UNK        -0.0205 
    127 H127       -5.8865  -19.3712  -46.4181 H         1 UNK         0.0600 
    128 H128       -5.9244  -19.2610  -44.6552 H         1 UNK         0.0600 
    129 H129       -4.8884  -20.4558  -45.4376 H         1 UNK         0.0600 
    130 H130       -3.1336  -19.5710  -46.8919 H         1 UNK         0.3000 
    131 H131       -2.2727  -16.8732  -46.8080 H         1 UNK         0.0600 
    132 H132       -1.6037  -18.7666  -48.4711 H         1 UNK         0.0800 
    133 H133       -0.4073  -19.2273  -47.3052 H         1 UNK         0.0800 
    134 H134       -0.8365  -17.4644  -50.4952 H         1 UNK         0.0800 
    135 H135        0.7498  -16.7404  -50.6079 H         1 UNK         0.0800 
    136 H136       -0.2188  -18.9550  -52.3406 H         1 UNK         0.1150 
    137 H137        2.2041  -22.3576  -51.4174 H         1 UNK         0.1150 
    138 H138        1.9862  -19.0797  -48.6738 H         1 UNK         0.1150 
    139 H139        2.7435  -22.6578  -48.9681 H         1 UNK         0.0800 
    140 H140        4.0955  -21.6702  -49.4594 H         1 UNK         0.0800 
    141 H141        0.9247  -20.9469  -47.4753 H         1 UNK         0.0800 
    142 H142        1.4700  -20.2539  -45.9669 H         1 UNK         0.0800 
    143 H143        1.2579  -23.2116  -46.6701 H         1 UNK         0.0600 
    144 H144        2.5885  -21.9683  -44.3919 H         1 UNK         0.3000 
    145 H145        3.1169  -24.9952  -42.6491 H         1 UNK         0.0600 
    146 H146        4.7268  -25.4266  -44.5122 H         1 UNK         0.0600 
    147 H147        5.1798  -23.7264  -44.5325 H         1 UNK         0.0600 
    148 H148        5.5418  -24.7253  -43.1237 H         1 UNK         0.0600 
    149 H149        4.4511  -22.4559  -42.5623 H         1 UNK         0.3000 
    150 H150        2.0761  -20.6038  -40.8293 H         1 UNK         0.0600 
    151 H151        4.4360  -21.9748  -39.4439 H         1 UNK         0.0600 
    152 H152        2.7635  -22.0396  -38.9014 H         1 UNK         0.0600 
    153 H153        3.6189  -20.5070  -38.9041 H         1 UNK         0.0600 
    154 H154        4.7802  -20.0468  -41.0119 H         1 UNK         0.3000 
    155 H155        5.3308  -18.2977  -42.4410 H         1 UNK         0.0600 
    156 H156        6.0536  -20.4668  -44.4961 H         1 UNK         0.0600 
    157 H157        6.6037  -20.4269  -42.8253 H         1 UNK         0.0600 
    158 H158        7.1248  -19.1793  -43.9429 H         1 UNK         0.0600 
    159 H159        5.1979  -18.3061  -45.2756 H         1 UNK         0.3000 
    160 H160        4.4850  -15.8375  -45.9604 H         1 UNK         0.0600 
    161 H161        2.5015  -18.0543  -46.7090 H         1 UNK         0.0600 
    162 H162        4.2169  -18.0302  -47.1045 H         1 UNK         0.0600 
    163 H163        3.1376  -16.8753  -47.8579 H         1 UNK         0.0600 
    164 H164        1.8088  -15.7322  -44.8982 H         1 UNK         0.3000 
    165 H165        1.3660  -12.4897  -45.9323 H         1 UNK         0.0600 
    166 H166       -0.5501  -14.6170  -47.0126 H         1 UNK         0.0600 
    167 H167        0.2994  -13.4523  -48.0235 H         1 UNK         0.0600 
    168 H168       -0.8656  -12.8980  -46.8298 H         1 UNK         0.0600 
    169 H169       -0.2168  -14.6427  -44.6737 H         1 UNK         0.3000 
    170 H170        0.7177  -14.9720  -42.0207 H         1 UNK         0.0600 
    171 H171        1.3952  -13.0051  -40.7136 H         1 UNK         0.0600 
    172 H172       -0.0669  -12.1376  -41.1586 H         1 UNK         0.0600 
    173 H173       -0.1630  -13.5702  -40.1344 H         1 UNK         0.0600 
    174 H174       -1.3997  -15.3605  -42.4557 H         1 UNK         0.3000 
    175 H175       -4.3250  -13.6252  -42.6861 H         1 UNK         0.0600 
    176 H176       -4.7726  -14.5321  -44.9636 H         1 UNK         0.0600 
    177 H177       -3.7669  -13.0951  -45.0671 H         1 UNK         0.0600 
    178 H178       -3.0437  -14.6872  -45.2669 H         1 UNK         0.0600 
    179 H179       -3.6204  -16.2878  -43.5187 H         1 UNK         0.3000 
    180 H180       -3.3608  -17.7060  -40.2577 H         1 UNK         0.0600 
    181 H181       -5.4102  -18.0665  -42.5090 H         1 UNK         0.0600 
    182 H182       -5.7781  -17.7921  -40.8128 H         1 UNK         0.0600 
    183 H183       -4.9844  -19.2808  -41.3027 H         1 UNK         0.0600 
    184 H184       -3.0350  -18.7596  -42.9049 H         1 UNK         0.3000 
    185 H185        0.5123  -18.3181  -43.0838 H         1 UNK         0.0600 
    186 H186        0.4435  -20.7588  -43.1519 H         1 UNK         0.0600 
    187 H187       -0.0366  -20.2720  -41.5351 H         1 UNK         0.0600 
    188 H188       -1.2555  -20.7884  -42.6796 H         1 UNK         0.0600 
    189 H189       -1.3266  -19.6636  -44.8019 H         1 UNK         0.3000 
    190 H190       -0.0212  -24.0925  -44.4079 H         1 UNK         0.3000 
    191 H191       -2.3707  -22.4928  -43.7716 H         1 UNK         0.0600 
    192 H192       -1.6570  -25.4001  -43.1153 H         1 UNK         0.0600 
    193 H193       -2.9807  -24.4829  -42.4041 H         1 UNK         0.0600 
    194 H194       -1.3190  -23.9971  -42.1015 H         1 UNK         0.0600 
    195 H195       -1.6280  -25.0850  -46.0479 H         1 UNK         0.3000 
    196 H196       -4.4108  -25.6270  -46.7535 H         1 UNK         0.0600 
    197 H197       -3.3620  -27.1586  -48.4132 H         1 UNK         0.0600 
    198 H198       -2.6809  -27.4133  -46.8148 H         1 UNK         0.0600 
    199 H199       -1.7688  -26.5176  -48.0306 H         1 UNK         0.0600 
    200 H200       -2.0558  -23.2870  -47.6898 H         1 UNK         0.3000 
    201 H201       -3.0014  -22.8313  -50.4231 H         1 UNK         0.0600 
    202 H202       -1.3625  -20.9533  -50.2991 H         1 UNK         0.0600 
    203 H203       -1.0688  -21.2967  -48.6030 H         1 UNK         0.0600 
    204 H204       -0.6129  -22.4750  -49.8359 H         1 UNK         0.0600 
    205 H205       -4.2172  -21.0427  -51.0941 H         1 UNK         0.3000 
    206 H206       -6.1359  -19.9274  -49.2622 H         1 UNK         0.0600 
    207 H207       -5.4834  -19.2443  -52.1763 H         1 UNK         0.0600 
    208 H208       -6.9331  -18.7451  -51.3143 H         1 UNK         0.0600 
    209 H209       -6.6593  -20.4465  -51.6524 H         1 UNK         0.0600 
    210 H210       -6.4946  -17.6904  -48.8344 H         1 UNK         0.3000 
    211 H211       -4.2527  -16.3857  -47.7659 H         1 UNK         0.0600 
    212 H212       -7.1227  -15.4145  -48.1819 H         1 UNK         0.0600 
    213 H213       -5.9402  -14.6376  -47.1380 H         1 UNK         0.0600 
    214 H214       -6.4903  -16.2619  -46.7673 H         1 UNK         0.0600 
    215 H215       -5.4437  -16.0976  -50.9746 H         1 UNK         0.3000 
    216 H216       -3.4701  -14.0671  -51.6148 H         1 UNK         0.0600 
    217 H217       -5.0980  -12.4904  -52.6973 H         1 UNK         0.0600 
    218 H218       -5.3320  -12.5596  -50.9588 H         1 UNK         0.0600 
    219 H219       -6.4415  -13.4122  -52.0308 H         1 UNK         0.0600 
    220 H220       -6.1442  -16.1723  -52.6765 H         1 UNK         0.3000 
    221 H221       -5.4422  -16.1746  -55.4546 H         1 UNK         0.0600 
    222 H222       -7.2505  -18.0251  -53.8147 H         1 UNK         0.0600 
    223 H223       -7.7497  -16.5517  -54.6452 H         1 UNK         0.0600 
    224 H224       -7.1944  -17.9363  -55.5699 H         1 UNK         0.0600 
    225 H225       -3.0586  -16.5879  -54.7760 H         1 UNK         0.3000 
    226 H226       -2.0800  -19.0949  -54.0295 H         1 UNK         0.0600 
    227 H227       -0.7220  -17.0238  -54.0713 H         1 UNK         0.0600 
    228 H228        0.0721  -18.2713  -55.0187 H         1 UNK         0.0600 
    229 H229       -0.7948  -16.9746  -55.8329 H         1 UNK         0.0600 
    230 H230       -3.4466  -18.2544  -57.0987 H         1 UNK         0.3000 
    231 H231       -2.3420  -20.3070  -58.7516 H         1 UNK         0.0600 
    232 H232       -5.0352  -18.8427  -58.8809 H         1 UNK         0.0600 
    233 H233       -4.3293  -19.7941  -60.1818 H         1 UNK         0.0600 
    234 H234       -3.5358  -18.3206  -59.6511 H         1 UNK         0.0600 
    235 H235       -4.6115  -20.4941  -56.0962 H         1 UNK         0.3000 
    236 H236       -5.9524  -22.9238  -56.9026 H         1 UNK         0.0600 
    237 H237       -6.8226  -22.8698  -54.5936 H         1 UNK         0.0600 
    238 H238       -5.6502  -21.6431  -54.1349 H         1 UNK         0.0600 
    239 H239       -6.9245  -21.2604  -55.2920 H         1 UNK         0.0600 
    240 H240       -2.7763  -22.2937  -55.6260 H         1 UNK         0.3000 
    241 H241       -2.3589  -24.7284  -54.1778 H         1 UNK         0.0600 
    242 H242       -1.2809  -27.1628  -56.5289 H         1 UNK         0.3800 
    243 H243       -1.5524  -26.7782  -54.8537 H         1 UNK         0.3800 
    244 H244       -0.3473  -22.8338  -55.4894 H         1 UNK         0.0800 
    245 H245        0.0911  -24.1625  -54.4455 H         1 UNK         0.0800 
    246 H246        1.4215  -21.9608  -53.7121 H         1 UNK         0.0800 
    247 H247        0.4092  -20.5945  -54.1063 H         1 UNK         0.0800 
@<TRIPOS>BOND
     1    1    2 1    
     2    1  127 1    
     3    1  128 1    
     4    1  129 1    
     5    2    3 2    
     6    2    4 am   BACKBONE|DICT|INTERRES
     7    4    5 1    
     8    4  130 1    
     9    5    6 1    
    10    5   65 1    
    11    5  131 1    
    12    6    7 1    
    13    6  132 1    
    14    6  133 1    
    15    7    8 1    
    16    8    9 1    
    17    8  134 1    
    18    8  135 1    
    19    9   10 ar   
    20    9   14 ar   
    21   10   11 ar   
    22   10  136 1    
    23   11   12 ar   
    24   11  126 1    
    25   12   13 ar   
    26   12  137 1    
    27   13   14 ar   
    28   13   15 1    
    29   14  138 1    
    30   15   16 1    
    31   15  139 1    
    32   15  140 1    
    33   16   17 1    
    34   17   18 1    
    35   17  141 1    
    36   17  142 1    
    37   18   19 1    
    38   18   67 1    
    39   18  143 1    
    40   19   20 am   BACKBONE|DICT|INTERRES
    41   19  144 1    
    42   20   21 2    
    43   20   22 1    
    44   22   23 1    
    45   22   24 1    
    46   22  145 1    
    47   23  146 1    
    48   23  147 1    
    49   23  148 1    
    50   24   25 am   BACKBONE|DICT|INTERRES
    51   24  149 1    
    52   25   26 2    
    53   25   27 1    
    54   27   28 1    
    55   27   29 1    
    56   27  150 1    
    57   28  151 1    
    58   28  152 1    
    59   28  153 1    
    60   29   30 am   BACKBONE|DICT|INTERRES
    61   29  154 1    
    62   30   31 2    
    63   30   32 1    
    64   32   33 1    
    65   32   34 1    
    66   32  155 1    
    67   33  156 1    
    68   33  157 1    
    69   33  158 1    
    70   34   35 am   BACKBONE|DICT|INTERRES
    71   34  159 1    
    72   35   36 2    
    73   35   37 1    
    74   37   38 1    
    75   37   39 1    
    76   37  160 1    
    77   38  161 1    
    78   38  162 1    
    79   38  163 1    
    80   39   40 am   BACKBONE|DICT|INTERRES
    81   39  164 1    
    82   40   41 2    
    83   40   42 1    
    84   42   43 1    
    85   42   44 1    
    86   42  165 1    
    87   43  166 1    
    88   43  167 1    
    89   43  168 1    
    90   44   45 am   BACKBONE|DICT|INTERRES
    91   44  169 1    
    92   45   46 2    
    93   45   47 1    
    94   47   48 1    
    95   47   49 1    
    96   47  170 1    
    97   48  171 1    
    98   48  172 1    
    99   48  173 1    
   100   49   50 am   BACKBONE|DICT|INTERRES
   101   49  174 1    
   102   50   51 2    
   103   50   52 1    
   104   52   53 1    
   105   52   54 1    
   106   52  175 1    
   107   53  176 1    
   108   53  177 1    
   109   53  178 1    
   110   54   55 am   BACKBONE|DICT|INTERRES
   111   54  179 1    
   112   55   56 2    
   113   55   57 1    
   114   57   58 1    
   115   57   59 1    
   116   57  180 1    
   117   58  181 1    
   118   58  182 1    
   119   58  183 1    
   120   59   60 am   BACKBONE|DICT|INTERRES
   121   59  184 1    
   122   60   61 2    
   123   60   62 1    
   124   62   63 1    
   125   62   64 1    
   126   62  185 1    
   127   63  186 1    
   128   63  187 1    
   129   63  188 1    
   130   64   65 am   BACKBONE|DICT|INTERRES
   131   64  189 1    
   132   65   66 2    
   133   67   68 2    
   134   67   69 am   BACKBONE|DICT|INTERRES
   135   69   70 1    
   136   69  190 1    
   137   70   71 1    
   138   70   72 1    
   139   70  191 1    
   140   71  192 1    
   141   71  193 1    
   142   71  194 1    
   143   72   73 2    
   144   72   74 am   BACKBONE|DICT|INTERRES
   145   74   75 1    
   146   74  195 1    
   147   75   76 1    
   148   75   77 1    
   149   75  196 1    
   150   76  197 1    
   151   76  198 1    
   152   76  199 1    
   153   77   78 2    
   154   77   79 am   BACKBONE|DICT|INTERRES
   155   79   80 1    
   156   79  200 1    
   157   80   81 1    
   158   80   82 1    
   159   80  201 1    
   160   81  202 1    
   161   81  203 1    
   162   81  204 1    
   163   82   83 2    
   164   82   84 am   BACKBONE|DICT|INTERRES
   165   84   85 1    
   166   84  205 1    
   167   85   86 1    
   168   85   87 1    
   169   85  206 1    
   170   86  207 1    
   171   86  208 1    
   172   86  209 1    
   173   87   88 2    
   174   87   89 am   BACKBONE|DICT|INTERRES
   175   89   90 1    
   176   89  210 1    
   177   90   91 1    
   178   90   92 1    
   179   90  211 1    
   180   91  212 1    
   181   91  213 1    
   182   91  214 1    
   183   92   93 2    
   184   92   94 am   BACKBONE|DICT|INTERRES
   185   94   95 1    
   186   94  215 1    
   187   95   96 1    
   188   95   97 1    
   189   95  216 1    
   190   96  217 1    
   191   96  218 1    
   192   96  219 1    
   193   97   98 2    
   194   97   99 am   BACKBONE|DICT|INTERRES
   195   99  100 1    
   196   99  220 1    
   197  100  101 1    
   198  100  102 1    
   199  100  221 1    
   200  101  222 1    
   201  101  223 1    
   202  101  224 1    
   203  102  103 2    
   204  102  104 am   BACKBONE|DICT|INTERRES
   205  104  105 1    
   206  104  225 1    
   207  105  106 1    
   208  105  107 1    
   209  105  226 1    
   210  106  227 1    
   211  106  228 1    
   212  106  229 1    
   213  107  108 2    
   214  107  109 am   BACKBONE|DICT|INTERRES
   215  109  110 1    
   216  109  230 1    
   217  110  111 1    
   218  110  112 1    
   219  110  231 1    
   220  111  232 1    
   221  111  233 1    
   222  111  234 1    
   223  112  113 2    
   224  112  114 am   BACKBONE|DICT|INTERRES
   225  114  115 1    
   226  114  235 1    
   227  115  116 1    
   228  115  117 1    
   229  115  236 1    
   230  116  237 1    
   231  116  238 1    
   232  116  239 1    
   233  117  118 2    
   234  117  119 am   BACKBONE|DICT|INTERRES
   235  119  120 1    
   236  119  240 1    
   237  120  121 1    
   238  120  124 1    
   239  120  241 1    
   240  121  122 am   BACKBONE|DICT|INTERRES
   241  121  123 2    
   242  122  242 1    
   243  122  243 1    
   244  124  125 1    
   245  124  244 1    
   246  124  245 1    
   247  125  126 1    
   248  126  246 1    
   249  126  247 1    
@<TRIPOS>SUBSTRUCTURE
     1 UNK         1 GROUP             0       ****    0 ROOT    
