@<TRIPOS>MOLECULE
3R540
247   249    1
SMALL
USER_CHARGES


@<TRIPOS>ATOM
      1 CA         -0.5134  -13.6125  -54.2569 C.3       0 UNK        -0.1800 
      2 C          -0.3215  -13.7425  -52.7530 C.2       0 UNK         0.5000 
      3 O          -0.7769  -12.8848  -51.9960 O.2       0 UNK        -0.5000 
      4 N           0.3575  -14.8115  -52.3219 N.am      1 UNK        -0.5000 
      5 CA          0.5627  -15.1554  -50.9129 C.3       1 UNK         0.1400 
      6 C6          1.7437  -16.1435  -50.7340 C.3       23 UNK        -0.0398 
      7 S7          2.3711  -16.2619  -49.0213 S.3       23 UNK        -0.2404 
      8 C8          1.4571  -17.6914  -48.3469 C.3       23 UNK        -0.0205 
      9 C9          1.8336  -19.0098  -48.9996 C.ar      23 UNK        -0.0193 
     10 C10         1.0157  -19.5732  -49.9814 C.ar      23 UNK        -0.1150 
     11 C11         1.3695  -20.7741  -50.6056 C.ar      23 UNK        -0.0193 
     12 C12         2.5198  -21.4473  -50.1795 C.ar      23 UNK        -0.1150 
     13 C13         3.3146  -20.9202  -49.1563 C.ar      23 UNK        -0.0193 
     14 C14         2.9815  -19.6873  -48.5911 C.ar      23 UNK        -0.1150 
     15 C15         4.5285  -21.6822  -48.6483 C.3       23 UNK        -0.0205 
     16 S16         4.0681  -23.0861  -47.5796 S.3       23 UNK        -0.2404 
     17 C17         3.1981  -22.2805  -46.1859 C.3       23 UNK        -0.0398 
     18 CA          1.8907  -23.0121  -45.7992 C.3       11 UNK         0.1400 
     19 N           1.4376  -22.6421  -44.4565 N.am      11 UNK        -0.5000 
     20 C           0.4983  -23.3070  -43.7689 C.2       10 UNK         0.5000 
     21 O          -0.0661  -24.3206  -44.1826 O.2       10 UNK        -0.5000 
     22 CA          0.0885  -22.7134  -42.4094 C.3       10 UNK         0.1400 
     23 CB          1.1411  -23.0218  -41.3341 C.3       10 UNK        -0.1800 
     24 N          -0.1441  -21.2703  -42.4742 N.am      10 UNK        -0.5000 
     25 C          -1.0968  -20.6929  -43.2200 C.2       9 UNK         0.5000 
     26 O          -1.9018  -21.3184  -43.9066 O.2       9 UNK        -0.5000 
     27 CA         -1.1402  -19.1577  -43.2322 C.3       9 UNK         0.1400 
     28 CB         -1.8238  -18.6328  -41.9600 C.3       9 UNK        -0.1800 
     29 N           0.1847  -18.5541  -43.3636 N.am      9 UNK        -0.5000 
     30 C           1.0225  -18.7298  -44.3953 C.2       8 UNK         0.5000 
     31 O           0.7653  -19.4165  -45.3804 O.2       8 UNK        -0.5000 
     32 CA          2.4158  -18.0923  -44.2684 C.3       8 UNK         0.1400 
     33 CB          2.3742  -16.5788  -44.5355 C.3       8 UNK        -0.1800 
     34 N           2.9973  -18.3420  -42.9512 N.am      8 UNK        -0.5000 
     35 C           3.3457  -19.5511  -42.4885 C.2       7 UNK         0.5000 
     36 O           3.2596  -20.5905  -43.1447 O.2       7 UNK        -0.5000 
     37 CA          3.8341  -19.6036  -41.0295 C.3       7 UNK         0.1400 
     38 CB          5.3313  -19.2715  -40.9467 C.3       7 UNK        -0.1800 
     39 N           3.0846  -18.6948  -40.1575 N.am      7 UNK        -0.5000 
     40 C           1.7996  -18.8706  -39.8187 C.2       6 UNK         0.5000 
     41 O           1.1215  -19.8286  -40.1904 O.2       6 UNK        -0.5000 
     42 CA          1.1534  -17.7662  -38.9591 C.3       6 UNK         0.1400 
     43 CB          1.5244  -17.9434  -37.4791 C.3       6 UNK        -0.1800 
     44 N           1.4954  -16.4050  -39.3907 N.am      6 UNK        -0.5000 
     45 C           1.2015  -15.9029  -40.5965 C.2       5 UNK         0.5000 
     46 O           0.6558  -16.5577  -41.4875 O.2       5 UNK        -0.5000 
     47 CA          1.5988  -14.4461  -40.8757 C.3       5 UNK         0.1400 
     48 CB          3.1249  -14.3078  -41.0254 C.3       5 UNK        -0.1800 
     49 N           0.9416  -14.0498  -42.1154 N.am      5 UNK        -0.5000 
     50 C           0.7036  -12.8128  -42.5583 C.2       4 UNK         0.5000 
     51 O           1.0293  -11.7937  -41.9482 O.2       4 UNK        -0.5000 
     52 CA         -0.0124  -12.6928  -43.9206 C.3       4 UNK         0.1400 
     53 CB          0.9974  -12.3414  -45.0243 C.3       4 UNK        -0.1800 
     54 N          -0.7218  -13.9131  -44.3172 N.am      4 UNK        -0.5000 
     55 C          -1.8933  -14.3289  -43.8231 C.2       3 UNK         0.5000 
     56 O          -2.5349  -13.6950  -42.9838 O.2       3 UNK        -0.5000 
     57 CA         -2.4275  -15.6757  -44.3652 C.3       3 UNK         0.1400 
     58 CB         -3.7409  -16.1092  -43.6882 C.3       3 UNK        -0.1800 
     59 N          -2.6325  -15.6890  -45.8170 N.am      3 UNK        -0.5000 
     60 C          -1.6724  -15.7184  -46.7491 C.2       2 UNK         0.5000 
     61 O          -0.4691  -15.7116  -46.4754 O.2       2 UNK        -0.5000 
     62 CA         -2.1200  -15.7574  -48.2235 C.3       2 UNK         0.1400 
     63 CB         -3.3586  -14.8870  -48.5152 C.3       2 UNK        -0.1800 
     64 N          -1.0037  -15.3179  -49.0509 N.am      2 UNK        -0.5000 
     65 C          -0.7495  -15.6963  -50.3059 C.2       1 UNK         0.5000 
     66 O          -1.4729  -16.4524  -50.9627 O.2       1 UNK        -0.5000 
     67 C           0.7661  -22.8467  -46.8463 C.2       11 UNK         0.5000 
     68 O           0.5475  -23.7602  -47.6427 O.2       11 UNK        -0.5000 
     69 N           0.0249  -21.7300  -46.7817 N.am      12 UNK        -0.5000 
     70 CA         -1.1375  -21.4534  -47.6263 C.3       12 UNK         0.1400 
     71 CB         -1.6576  -20.0308  -47.3667 C.3       12 UNK        -0.1800 
     72 C          -2.2681  -22.4787  -47.4469 C.2       12 UNK         0.5000 
     73 O          -2.8425  -22.9089  -48.4420 O.2       12 UNK        -0.5000 
     74 N          -2.5501  -22.8770  -46.1989 N.am      13 UNK        -0.5000 
     75 CA         -3.5325  -23.9084  -45.8666 C.3       13 UNK         0.1400 
     76 CB         -3.7604  -23.9437  -44.3479 C.3       13 UNK        -0.1800 
     77 C          -3.1292  -25.2970  -46.3918 C.2       13 UNK         0.5000 
     78 O          -3.9660  -25.9889  -46.9729 O.2       13 UNK        -0.5000 
     79 N          -1.8526  -25.6656  -46.2106 N.am      14 UNK        -0.5000 
     80 CA         -1.2774  -26.9272  -46.6832 C.3       14 UNK         0.1400 
     81 CB          0.1416  -27.0852  -46.1161 C.3       14 UNK        -0.1800 
     82 C          -1.2665  -27.0485  -48.2192 C.2       14 UNK         0.5000 
     83 O          -1.5545  -28.1223  -48.7486 O.2       14 UNK        -0.5000 
     84 N          -0.9596  -25.9396  -48.9021 N.am      15 UNK        -0.5000 
     85 CA         -0.9154  -25.8305  -50.3609 C.3       15 UNK         0.1400 
     86 CB          0.1749  -24.8141  -50.7246 C.3       15 UNK        -0.1800 
     87 C          -2.2686  -25.4345  -50.9911 C.2       15 UNK         0.5000 
     88 O          -2.3233  -25.2081  -52.2008 O.2       15 UNK        -0.5000 
     89 N          -3.3247  -25.3202  -50.1743 N.am      16 UNK        -0.5000 
     90 CA         -4.7017  -24.9024  -50.4741 C.3       16 UNK         0.1400 
     91 CB         -5.3640  -25.8281  -51.5120 C.3       16 UNK        -0.1800 
     92 C          -4.8680  -23.4179  -50.8651 C.2       16 UNK         0.5000 
     93 O          -5.8468  -22.8018  -50.4402 O.2       16 UNK        -0.5000 
     94 N          -3.9320  -22.8724  -51.6561 N.am      17 UNK        -0.5000 
     95 CA         -3.7750  -21.4820  -52.1156 C.3       17 UNK         0.1400 
     96 CB         -3.5599  -20.5244  -50.9271 C.3       17 UNK        -0.1800 
     97 C          -4.8816  -20.9480  -53.0500 C.2       17 UNK         0.5000 
     98 O          -4.5579  -20.2380  -54.0015 O.2       17 UNK        -0.5000 
     99 N          -6.1430  -21.3021  -52.7711 N.am      18 UNK        -0.5000 
    100 CA        -7.3899  -20.8788  -53.4180 C.3       18 UNK         0.1400 
    101 CB        -7.3750  -21.1948  -54.9286 C.3       18 UNK        -0.1800 
    102 C         -7.7501  -19.4025  -53.1489 C.2       18 UNK         0.5000 
    103 O         -6.9315  -18.6242  -52.6538 O.2       18 UNK        -0.5000 
    104 N         -8.9939  -19.0369  -53.4903 N.am      19 UNK        -0.5000 
    105 CA        -9.5704  -17.7006  -53.2918 C.3       19 UNK         0.1400 
    106 CB       -11.0719  -17.7538  -53.6139 C.3       19 UNK        -0.1800 
    107 C         -8.8838  -16.5867  -54.1089 C.2       19 UNK         0.5000 
    108 O         -8.9633  -15.4179  -53.7298 O.2       19 UNK        -0.5000 
    109 N         -8.2059  -16.9695  -55.1989 N.am      20 UNK        -0.5000 
    110 CA        -7.3872  -16.0921  -56.0373 C.3       20 UNK         0.1400 
    111 CB        -7.1766  -16.7809  -57.3956 C.3       20 UNK        -0.1800 
    112 C         -6.0280  -15.7195  -55.4037 C.2       20 UNK         0.5000 
    113 O         -5.3493  -14.8424  -55.9401 O.2       20 UNK        -0.5000 
    114 N         -5.6611  -16.3897  -54.2990 N.am      21 UNK        -0.5000 
    115 CA        -4.3783  -16.3611  -53.5891 C.3       21 UNK         0.1400 
    116 CB        -3.9710  -14.9297  -53.1836 C.3       21 UNK        -0.1800 
    117 C         -3.2625  -17.0995  -54.3558 C.2       21 UNK         0.5000 
    118 O         -3.3725  -17.3517  -55.5586 O.2       21 UNK        -0.5000 
    119 N         -2.2159  -17.4776  -53.6177 N.am      22 UNK        -0.5000 
    120 CA        -1.1171  -18.3222  -54.0944 C.3       22 UNK         0.1400 
    121 C         -0.1185  -17.5181  -54.9701 C.2       22 UNK         0.5000 
    122 N         -0.0761  -17.7649  -56.2747 N.am      22 UNK        -0.7600 
    123 O          0.6382  -16.6886  -54.4653 O.2       22 UNK        -0.5000 
    124 C124       -0.4261  -18.9820  -52.8823 C.3       23 UNK        -0.0398 
    125 S125        0.5843  -20.4435  -53.2770 S.3       23 UNK        -0.2404 
    126 C126        0.4960  -21.3679  -51.7070 C.3       23 UNK        -0.0205 
    127 H127       -0.8396  -12.6053  -54.5218 H         1 UNK         0.0600 
    128 H128       -1.2660  -14.3212  -54.6046 H         1 UNK         0.0600 
    129 H129        0.4198  -13.8171  -54.7845 H         1 UNK         0.0600 
    130 H130        0.6402  -15.5102  -53.0063 H         1 UNK         0.3000 
    131 H131        0.8252  -14.2312  -50.3928 H         1 UNK         0.0600 
    132 H132        2.5846  -15.8029  -51.3397 H         1 UNK         0.0800 
    133 H133        1.5083  -17.1333  -51.1117 H         1 UNK         0.0800 
    134 H134        0.3855  -17.5266  -48.4269 H         1 UNK         0.0800 
    135 H135        1.6609  -17.7598  -47.2806 H         1 UNK         0.0800 
    136 H136        0.1042  -19.0657  -50.2555 H         1 UNK         0.1150 
    137 H137        2.7873  -22.3950  -50.6254 H         1 UNK         0.1150 
    138 H138        3.6006  -19.2634  -47.8129 H         1 UNK         0.1150 
    139 H139        5.0995  -22.0579  -49.4985 H         1 UNK         0.0800 
    140 H140        5.1998  -21.0198  -48.0996 H         1 UNK         0.0800 
    141 H141        3.0036  -21.2278  -46.3864 H         1 UNK         0.0800 
    142 H142        3.8874  -22.2923  -45.3403 H         1 UNK         0.0800 
    143 H143        2.1215  -24.0790  -45.7551 H         1 UNK         0.0600 
    144 H144        1.8639  -21.8207  -44.0398 H         1 UNK         0.3000 
    145 H145       -0.8489  -23.1874  -42.1109 H         1 UNK         0.0600 
    146 H146        0.8133  -22.6777  -40.3530 H         1 UNK         0.0600 
    147 H147        2.0957  -22.5428  -41.5533 H         1 UNK         0.0600 
    148 H148        1.3206  -24.0950  -41.2595 H         1 UNK         0.0600 
    149 H149        0.4459  -20.6843  -41.8922 H         1 UNK         0.3000 
    150 H150       -1.7314  -18.8467  -44.0953 H         1 UNK         0.0600 
    151 H151       -2.8539  -18.9856  -41.8979 H         1 UNK         0.0600 
    152 H152       -1.8489  -17.5446  -41.9382 H         1 UNK         0.0600 
    153 H153       -1.3086  -18.9642  -41.0584 H         1 UNK         0.0600 
    154 H154        0.4751  -17.9469  -42.5997 H         1 UNK         0.3000 
    155 H155        3.0649  -18.5521  -45.0169 H         1 UNK         0.0600 
    156 H156        2.0224  -16.3625  -45.5432 H         1 UNK         0.0600 
    157 H157        3.3638  -16.1323  -44.4388 H         1 UNK         0.0600 
    158 H158        1.7061  -16.0637  -43.8492 H         1 UNK         0.0600 
    159 H159        3.0642  -17.5532  -42.3270 H         1 UNK         0.3000 
    160 H160        3.6904  -20.6238  -40.6669 H         1 UNK         0.0600 
    161 H161        5.5387  -18.2524  -41.2753 H         1 UNK         0.0600 
    162 H162        5.9150  -19.9448  -41.5759 H         1 UNK         0.0600 
    163 H163        5.7025  -19.3779  -39.9272 H         1 UNK         0.0600 
    164 H164        3.5712  -17.8811  -39.8112 H         1 UNK         0.3000 
    165 H165        0.0707  -17.8770  -39.0504 H         1 UNK         0.0600 
    166 H166        0.9875  -17.2330  -36.8503 H         1 UNK         0.0600 
    167 H167        1.2665  -18.9440  -37.1290 H         1 UNK         0.0600 
    168 H168        2.5925  -17.8015  -37.3101 H         1 UNK         0.0600 
    169 H169        1.9512  -15.8157  -38.7089 H         1 UNK         0.3000 
    170 H170        1.2397  -13.8208  -40.0560 H         1 UNK         0.0600 
    171 H171        3.5061  -14.9259  -41.8393 H         1 UNK         0.0600 
    172 H172        3.4104  -13.2760  -41.2303 H         1 UNK         0.0600 
    173 H173        3.6412  -14.6079  -40.1129 H         1 UNK         0.0600 
    174 H174        0.5794  -14.8342  -42.6421 H         1 UNK         0.3000 
    175 H175       -0.7352  -11.8779  -43.8433 H         1 UNK         0.0600 
    176 H176        1.7386  -13.1310  -45.1562 H         1 UNK         0.0600 
    177 H177        0.4980  -12.1877  -45.9812 H         1 UNK         0.0600 
    178 H178        1.5342  -11.4220  -44.7869 H         1 UNK         0.0600 
    179 H179       -0.2965  -14.4805  -45.0460 H         1 UNK         0.3000 
    180 H180       -1.6680  -16.4209  -44.1261 H         1 UNK         0.0600 
    181 H181       -4.0268  -17.1163  -43.9927 H         1 UNK         0.0600 
    182 H182       -4.5621  -15.4363  -43.9377 H         1 UNK         0.0600 
    183 H183       -3.6451  -16.1164  -42.6019 H         1 UNK         0.0600 
    184 H184       -3.5939  -15.6570  -46.1229 H         1 UNK         0.3000 
    185 H185       -2.3502  -16.7986  -48.4588 H         1 UNK         0.0600 
    186 H186       -3.1988  -13.8503  -48.2163 H         1 UNK         0.0600 
    187 H187       -3.6003  -14.8913  -49.5785 H         1 UNK         0.0600 
    188 H188       -4.2405  -15.2549  -47.9905 H         1 UNK         0.0600 
    189 H189       -0.3102  -14.7792  -48.5477 H         1 UNK         0.3000 
    190 H190        0.2824  -20.9976  -46.1227 H         1 UNK         0.3000 
    191 H191       -0.8053  -21.5103  -48.6643 H         1 UNK         0.0600 
    192 H192       -0.8871  -19.2878  -47.5613 H         1 UNK         0.0600 
    193 H193       -1.9868  -19.9052  -46.3353 H         1 UNK         0.0600 
    194 H194       -2.5044  -19.7979  -48.0129 H         1 UNK         0.0600 
    195 H195       -2.0801  -22.4266  -45.4175 H         1 UNK         0.3000 
    196 H196       -4.4766  -23.6355  -46.3430 H         1 UNK         0.0600 
    197 H197       -4.1465  -22.9905  -43.9866 H         1 UNK         0.0600 
    198 H198       -2.8383  -24.1571  -43.8063 H         1 UNK         0.0600 
    199 H199       -4.4866  -24.7115  -44.0784 H         1 UNK         0.0600 
    200 H200       -1.2317  -25.0465  -45.6985 H         1 UNK         0.3000 
    201 H201       -1.8918  -27.7404  -46.2915 H         1 UNK         0.0600 
    202 H202        0.1324  -27.0842  -45.0260 H         1 UNK         0.0600 
    203 H203        0.7986  -26.2792  -46.4448 H         1 UNK         0.0600 
    204 H204        0.5891  -28.0266  -46.4372 H         1 UNK         0.0600 
    205 H205       -0.6813  -25.1102  -48.3835 H         1 UNK         0.3000 
    206 H206       -0.6323  -26.7942  -50.7886 H         1 UNK         0.0600 
    207 H207       -0.0649  -23.8288  -50.3246 H         1 UNK         0.0600 
    208 H208        1.1430  -25.1096  -50.3196 H         1 UNK         0.0600 
    209 H209        0.2889  -24.7239  -51.8053 H         1 UNK         0.0600 
    210 H210       -3.1437  -25.4633  -49.1894 H         1 UNK         0.3000 
    211 H211       -5.2427  -25.0305  -49.5352 H         1 UNK         0.0600 
    212 H212       -4.9010  -25.7397  -52.4950 H         1 UNK         0.0600 
    213 H213       -6.4205  -25.5841  -51.6294 H         1 UNK         0.0600 
    214 H214       -5.3038  -26.8720  -51.2042 H         1 UNK         0.0600 
    215 H215       -3.2178  -23.5160  -51.9844 H         1 UNK         0.3000 
    216 H216       -2.8554  -21.4766  -52.7032 H         1 UNK         0.0600 
    217 H217       -3.4149  -19.4989  -51.2692 H         1 UNK         0.0600 
    218 H218       -2.6788  -20.8048  -50.3517 H         1 UNK         0.0600 
    219 H219       -4.4132  -20.5189  -50.2487 H         1 UNK         0.0600 
    220 H220       -6.2611  -21.8541  -51.9239 H         1 UNK         0.3000 
    221 H221       -8.1733  -21.4826  -52.9576 H         1 UNK         0.0600 
    222 H222       -7.0688  -22.2246  -55.1127 H         1 UNK         0.0600 
    223 H223       -8.3657  -21.0720  -55.3669 H         1 UNK         0.0600 
    224 H224       -6.6970  -20.5404  -55.4772 H         1 UNK         0.0600 
    225 H225       -9.6107  -19.7290  -53.8911 H         1 UNK         0.3000 
    226 H226       -9.4566  -17.4430  -52.2368 H         1 UNK         0.0600 
    227 H227      -11.5872  -18.4743  -52.9784 H         1 UNK         0.0600 
    228 H228      -11.5424  -16.7835  -53.4488 H         1 UNK         0.0600 
    229 H229      -11.2506  -18.0325  -54.6532 H         1 UNK         0.0600 
    230 H230       -8.2031  -17.9505  -55.4355 H         1 UNK         0.3000 
    231 H231       -7.9345  -15.1624  -56.2065 H         1 UNK         0.0600 
    232 H232       -6.6083  -16.1435  -58.0743 H         1 UNK         0.0600 
    233 H233       -8.1282  -17.0007  -57.8799 H         1 UNK         0.0600 
    234 H234       -6.6272  -17.7173  -57.2891 H         1 UNK         0.0600 
    235 H235       -6.2959  -17.1023  -53.9570 H         1 UNK         0.3000 
    236 H236       -4.5519  -16.9250  -52.6708 H         1 UNK         0.0600 
    237 H237       -3.6673  -14.3297  -54.0409 H         1 UNK         0.0600 
    238 H238       -4.7901  -14.4127  -52.6838 H         1 UNK         0.0600 
    239 H239       -3.1317  -14.9457  -52.4890 H         1 UNK         0.0600 
    240 H240       -2.1433  -17.1634  -52.6536 H         1 UNK         0.3000 
    241 H241       -1.5553  -19.1192  -54.6994 H         1 UNK         0.0600 
    242 H242        0.5774  -17.2555  -56.8483 H         1 UNK         0.3800 
    243 H243       -0.7099  -18.4226  -56.7079 H         1 UNK         0.3800 
    244 H244       -1.1857  -19.2952  -52.1666 H         1 UNK         0.0800 
    245 H245        0.1935  -18.2555  -52.3663 H         1 UNK         0.0800 
    246 H246        0.8223  -22.3834  -51.9260 H         1 UNK         0.0800 
    247 H247       -0.5365  -21.4463  -51.3662 H         1 UNK         0.0800 
@<TRIPOS>BOND
     1    1    2 1    
     2    1  127 1    
     3    1  128 1    
     4    1  129 1    
     5    2    3 2    
     6    2    4 am   BACKBONE|DICT|INTERRES
     7    4    5 1    
     8    4  130 1    
     9    5    6 1    
    10    5   65 1    
    11    5  131 1    
    12    6    7 1    
    13    6  132 1    
    14    6  133 1    
    15    7    8 1    
    16    8    9 1    
    17    8  134 1    
    18    8  135 1    
    19    9   10 ar   
    20    9   14 ar   
    21   10   11 ar   
    22   10  136 1    
    23   11   12 ar   
    24   11  126 1    
    25   12   13 ar   
    26   12  137 1    
    27   13   14 ar   
    28   13   15 1    
    29   14  138 1    
    30   15   16 1    
    31   15  139 1    
    32   15  140 1    
    33   16   17 1    
    34   17   18 1    
    35   17  141 1    
    36   17  142 1    
    37   18   19 1    
    38   18   67 1    
    39   18  143 1    
    40   19   20 am   BACKBONE|DICT|INTERRES
    41   19  144 1    
    42   20   21 2    
    43   20   22 1    
    44   22   23 1    
    45   22   24 1    
    46   22  145 1    
    47   23  146 1    
    48   23  147 1    
    49   23  148 1    
    50   24   25 am   BACKBONE|DICT|INTERRES
    51   24  149 1    
    52   25   26 2    
    53   25   27 1    
    54   27   28 1    
    55   27   29 1    
    56   27  150 1    
    57   28  151 1    
    58   28  152 1    
    59   28  153 1    
    60   29   30 am   BACKBONE|DICT|INTERRES
    61   29  154 1    
    62   30   31 2    
    63   30   32 1    
    64   32   33 1    
    65   32   34 1    
    66   32  155 1    
    67   33  156 1    
    68   33  157 1    
    69   33  158 1    
    70   34   35 am   BACKBONE|DICT|INTERRES
    71   34  159 1    
    72   35   36 2    
    73   35   37 1    
    74   37   38 1    
    75   37   39 1    
    76   37  160 1    
    77   38  161 1    
    78   38  162 1    
    79   38  163 1    
    80   39   40 am   BACKBONE|DICT|INTERRES
    81   39  164 1    
    82   40   41 2    
    83   40   42 1    
    84   42   43 1    
    85   42   44 1    
    86   42  165 1    
    87   43  166 1    
    88   43  167 1    
    89   43  168 1    
    90   44   45 am   BACKBONE|DICT|INTERRES
    91   44  169 1    
    92   45   46 2    
    93   45   47 1    
    94   47   48 1    
    95   47   49 1    
    96   47  170 1    
    97   48  171 1    
    98   48  172 1    
    99   48  173 1    
   100   49   50 am   BACKBONE|DICT|INTERRES
   101   49  174 1    
   102   50   51 2    
   103   50   52 1    
   104   52   53 1    
   105   52   54 1    
   106   52  175 1    
   107   53  176 1    
   108   53  177 1    
   109   53  178 1    
   110   54   55 am   BACKBONE|DICT|INTERRES
   111   54  179 1    
   112   55   56 2    
   113   55   57 1    
   114   57   58 1    
   115   57   59 1    
   116   57  180 1    
   117   58  181 1    
   118   58  182 1    
   119   58  183 1    
   120   59   60 am   BACKBONE|DICT|INTERRES
   121   59  184 1    
   122   60   61 2    
   123   60   62 1    
   124   62   63 1    
   125   62   64 1    
   126   62  185 1    
   127   63  186 1    
   128   63  187 1    
   129   63  188 1    
   130   64   65 am   BACKBONE|DICT|INTERRES
   131   64  189 1    
   132   65   66 2    
   133   67   68 2    
   134   67   69 am   BACKBONE|DICT|INTERRES
   135   69   70 1    
   136   69  190 1    
   137   70   71 1    
   138   70   72 1    
   139   70  191 1    
   140   71  192 1    
   141   71  193 1    
   142   71  194 1    
   143   72   73 2    
   144   72   74 am   BACKBONE|DICT|INTERRES
   145   74   75 1    
   146   74  195 1    
   147   75   76 1    
   148   75   77 1    
   149   75  196 1    
   150   76  197 1    
   151   76  198 1    
   152   76  199 1    
   153   77   78 2    
   154   77   79 am   BACKBONE|DICT|INTERRES
   155   79   80 1    
   156   79  200 1    
   157   80   81 1    
   158   80   82 1    
   159   80  201 1    
   160   81  202 1    
   161   81  203 1    
   162   81  204 1    
   163   82   83 2    
   164   82   84 am   BACKBONE|DICT|INTERRES
   165   84   85 1    
   166   84  205 1    
   167   85   86 1    
   168   85   87 1    
   169   85  206 1    
   170   86  207 1    
   171   86  208 1    
   172   86  209 1    
   173   87   88 2    
   174   87   89 am   BACKBONE|DICT|INTERRES
   175   89   90 1    
   176   89  210 1    
   177   90   91 1    
   178   90   92 1    
   179   90  211 1    
   180   91  212 1    
   181   91  213 1    
   182   91  214 1    
   183   92   93 2    
   184   92   94 am   BACKBONE|DICT|INTERRES
   185   94   95 1    
   186   94  215 1    
   187   95   96 1    
   188   95   97 1    
   189   95  216 1    
   190   96  217 1    
   191   96  218 1    
   192   96  219 1    
   193   97   98 2    
   194   97   99 am   BACKBONE|DICT|INTERRES
   195   99  100 1    
   196   99  220 1    
   197  100  101 1    
   198  100  102 1    
   199  100  221 1    
   200  101  222 1    
   201  101  223 1    
   202  101  224 1    
   203  102  103 2    
   204  102  104 am   BACKBONE|DICT|INTERRES
   205  104  105 1    
   206  104  225 1    
   207  105  106 1    
   208  105  107 1    
   209  105  226 1    
   210  106  227 1    
   211  106  228 1    
   212  106  229 1    
   213  107  108 2    
   214  107  109 am   BACKBONE|DICT|INTERRES
   215  109  110 1    
   216  109  230 1    
   217  110  111 1    
   218  110  112 1    
   219  110  231 1    
   220  111  232 1    
   221  111  233 1    
   222  111  234 1    
   223  112  113 2    
   224  112  114 am   BACKBONE|DICT|INTERRES
   225  114  115 1    
   226  114  235 1    
   227  115  116 1    
   228  115  117 1    
   229  115  236 1    
   230  116  237 1    
   231  116  238 1    
   232  116  239 1    
   233  117  118 2    
   234  117  119 am   BACKBONE|DICT|INTERRES
   235  119  120 1    
   236  119  240 1    
   237  120  121 1    
   238  120  124 1    
   239  120  241 1    
   240  121  122 am   BACKBONE|DICT|INTERRES
   241  121  123 2    
   242  122  242 1    
   243  122  243 1    
   244  124  125 1    
   245  124  244 1    
   246  124  245 1    
   247  125  126 1    
   248  126  246 1    
   249  126  247 1    
@<TRIPOS>SUBSTRUCTURE
     1 UNK         1 GROUP             0       ****    0 ROOT    
