@<TRIPOS>MOLECULE
3R540
247   249    1
SMALL
USER_CHARGES


@<TRIPOS>ATOM
      1 CA         -4.8472  -18.1537  -43.6731 C.3       0 UNK        -0.1800 
      2 C          -4.4717  -16.7331  -43.2761 C.2       0 UNK         0.5000 
      3 O          -4.2154  -16.4679  -42.1010 O.2       0 UNK        -0.5000 
      4 N          -4.4404  -15.8177  -44.2511 N.am      1 UNK        -0.5000 
      5 CA         -4.0426  -14.4094  -44.1324 C.3       1 UNK         0.1400 
      6 C6         -4.6298  -13.5155  -45.2718 C.3       23 UNK        -0.0398 
      7 S7         -5.0362  -14.3459  -46.8544 S.3       23 UNK        -0.2404 
      8 C8         -3.3801  -14.7937  -47.4342 C.3       23 UNK        -0.0205 
      9 C9         -3.4187  -15.5889  -48.7286 C.ar      23 UNK        -0.0193 
     10 C10        -3.1242  -14.9706  -49.9453 C.ar      23 UNK        -0.1150 
     11 C11        -3.1141  -15.7030  -51.1360 C.ar      23 UNK        -0.0193 
     12 C12        -3.4174  -17.0698  -51.0897 C.ar      23 UNK        -0.1150 
     13 C13        -3.7209  -17.7088  -49.8833 C.ar      23 UNK        -0.0193 
     14 C14        -3.7132  -16.9543  -48.7024 C.ar      23 UNK        -0.1150 
     15 C15        -4.0375  -19.2078  -49.9254 C.3       23 UNK        -0.0205 
     16 S16        -4.7983  -19.9214  -48.4264 S.3       23 UNK        -0.2404 
     17 C17        -3.3618  -20.0678  -47.3069 C.3       23 UNK        -0.0398 
     18 CA         -2.9080  -21.5088  -46.9616 C.3       11 UNK         0.1400 
     19 N          -1.6996  -21.4611  -46.1302 N.am      11 UNK        -0.5000 
     20 C          -1.1019  -22.4704  -45.4805 C.2       10 UNK         0.5000 
     21 O          -1.4632  -23.6435  -45.5586 O.2       10 UNK        -0.5000 
     22 CA          0.0671  -22.1139  -44.5417 C.3       10 UNK         0.1400 
     23 CB          1.4015  -22.5864  -45.1346 C.3       10 UNK        -0.1800 
     24 N           0.1665  -20.6896  -44.2120 N.am      10 UNK        -0.5000 
     25 C          -0.7368  -19.9781  -43.5202 C.2       9 UNK         0.5000 
     26 O          -1.7894  -20.4428  -43.0818 O.2       9 UNK        -0.5000 
     27 CA         -0.4151  -18.4852  -43.3343 C.3       9 UNK         0.1400 
     28 CB          0.6567  -18.3076  -42.2432 C.3       9 UNK        -0.1800 
     29 N           0.0481  -17.8881  -44.5892 N.am      9 UNK        -0.5000 
     30 C          -0.7281  -17.6504  -45.6576 C.2       8 UNK         0.5000 
     31 O          -1.9497  -17.7808  -45.6462 O.2       8 UNK        -0.5000 
     32 CA         -0.0247  -17.2489  -46.9712 C.3       8 UNK         0.1400 
     33 CB          0.0622  -15.7253  -47.1314 C.3       8 UNK        -0.1800 
     34 N           1.3279  -17.7880  -47.0488 N.am      8 UNK        -0.5000 
     35 C           1.6404  -19.0558  -47.3394 C.2       7 UNK         0.5000 
     36 O           0.8102  -19.9215  -47.6118 O.2       7 UNK        -0.5000 
     37 CA          3.1400  -19.4077  -47.2747 C.3       7 UNK         0.1400 
     38 CB          3.7998  -19.1783  -48.6416 C.3       7 UNK        -0.1800 
     39 N           3.8569  -18.6231  -46.2630 N.am      7 UNK        -0.5000 
     40 C           3.6450  -18.7166  -44.9424 C.2       6 UNK         0.5000 
     41 O           2.8783  -19.5363  -44.4389 O.2       6 UNK        -0.5000 
     42 CA          4.3479  -17.6753  -44.0477 C.3       6 UNK         0.1400 
     43 CB          5.7491  -18.1619  -43.6508 C.3       6 UNK        -0.1800 
     44 N           4.4492  -16.3540  -44.6801 N.am      6 UNK        -0.5000 
     45 C           3.4000  -15.5770  -44.9834 C.2       5 UNK         0.5000 
     46 O           2.2351  -15.8773  -44.7155 O.2       5 UNK        -0.5000 
     47 CA          3.6950  -14.3040  -45.7922 C.3       5 UNK         0.1400 
     48 CB          4.0960  -14.6955  -47.2332 C.3       5 UNK        -0.1800 
     49 N           2.5113  -13.4401  -45.7926 N.am      5 UNK        -0.5000 
     50 C           2.4211  -12.2202  -46.3415 C.2       4 UNK         0.5000 
     51 O           3.3613  -11.6478  -46.8942 O.2       4 UNK        -0.5000 
     52 CA          1.0617  -11.4995  -46.2502 C.3       4 UNK         0.1400 
     53 CB          0.0686  -12.0236  -47.2982 C.3       4 UNK        -0.1800 
     54 N           0.4605  -11.5823  -44.9205 N.am      4 UNK        -0.5000 
     55 C           0.8761  -10.8608  -43.8681 C.2       3 UNK         0.5000 
     56 O           1.7964  -10.0438  -43.9223 O.2       3 UNK        -0.5000 
     57 CA          0.1430  -11.0717  -42.5274 C.3       3 UNK         0.1400 
     58 CB         -0.9348   -9.9948  -42.3294 C.3       3 UNK        -0.1800 
     59 N          -0.4783  -12.3895  -42.4016 N.am      3 UNK        -0.5000 
     60 C           0.1889  -13.5496  -42.3675 C.2       2 UNK         0.5000 
     61 O           1.4175  -13.6256  -42.3604 O.2       2 UNK        -0.5000 
     62 CA         -0.6450  -14.8435  -42.3405 C.3       2 UNK         0.1400 
     63 CB         -0.6330  -15.4399  -40.9239 C.3       2 UNK        -0.1800 
     64 N          -2.0419  -14.7243  -42.7675 N.am      2 UNK        -0.5000 
     65 C          -2.5108  -14.2752  -43.9389 C.2       1 UNK         0.5000 
     66 O          -1.7960  -13.7880  -44.8168 O.2       1 UNK        -0.5000 
     67 C          -4.0534  -22.3177  -46.3112 C.2       11 UNK         0.5000 
     68 O          -4.6575  -23.1569  -46.9803 O.2       11 UNK        -0.5000 
     69 N          -4.2977  -22.0799  -45.0145 N.am      12 UNK        -0.5000 
     70 CA         -5.3500  -22.7381  -44.2395 C.3       12 UNK         0.1400 
     71 CB         -5.5376  -21.9836  -42.9149 C.3       12 UNK        -0.1800 
     72 C          -5.0845  -24.2328  -43.9742 C.2       12 UNK         0.5000 
     73 O          -6.0386  -25.0037  -43.8669 O.2       12 UNK        -0.5000 
     74 N          -3.8056  -24.6149  -43.8690 N.am      13 UNK        -0.5000 
     75 CA         -3.3730  -25.9891  -43.6168 C.3       13 UNK         0.1400 
     76 CB         -2.0329  -25.9647  -42.8641 C.3       13 UNK        -0.1800 
     77 C          -3.2455  -26.7917  -44.9215 C.2       13 UNK         0.5000 
     78 O          -3.6506  -27.9534  -44.9689 O.2       13 UNK        -0.5000 
     79 N          -2.6829  -26.1541  -45.9549 N.am      14 UNK        -0.5000 
     80 CA         -2.3913  -26.7523  -47.2568 C.3       14 UNK         0.1400 
     81 CB         -1.2418  -25.9595  -47.8964 C.3       14 UNK        -0.1800 
     82 C          -3.6006  -26.7940  -48.2090 C.2       14 UNK         0.5000 
     83 O          -3.4903  -27.3961  -49.2767 O.2       14 UNK        -0.5000 
     84 N          -4.7056  -26.1287  -47.8395 N.am      15 UNK        -0.5000 
     85 CA         -5.9093  -25.9011  -48.6488 C.3       15 UNK         0.1400 
     86 CB         -6.6486  -27.2231  -48.9436 C.3       15 UNK        -0.1800 
     87 C          -5.5754  -25.0847  -49.9141 C.2       15 UNK         0.5000 
     88 O          -5.8614  -25.5059  -51.0355 O.2       15 UNK        -0.5000 
     89 N          -4.9151  -23.9433  -49.6808 N.am      16 UNK        -0.5000 
     90 CA         -4.4166  -22.9448  -50.6317 C.3       16 UNK         0.1400 
     91 CB         -5.5502  -22.3739  -51.5053 C.3       16 UNK        -0.1800 
     92 C          -3.2021  -23.3695  -51.4777 C.2       16 UNK         0.5000 
     93 O          -2.5944  -22.5013  -52.1032 O.2       16 UNK        -0.5000 
     94 N          -2.8185  -24.6544  -51.4569 N.am      17 UNK        -0.5000 
     95 CA         -1.7197  -25.2126  -52.2550 C.3       17 UNK         0.1400 
     96 CB         -1.7134  -26.7410  -52.1114 C.3       17 UNK        -0.1800 
     97 C          -0.3283  -24.6317  -51.9272 C.2       17 UNK         0.5000 
     98 O           0.5571  -24.6678  -52.7818 O.2       17 UNK        -0.5000 
     99 N          -0.1668  -24.0799  -50.7159 N.am      18 UNK        -0.5000 
    100 CA         1.0409  -23.3848  -50.2643 C.3       18 UNK         0.1400 
    101 CB         0.9459  -23.1365  -48.7515 C.3       18 UNK        -0.1800 
    102 C          1.3057  -22.0577  -51.0037 C.2       18 UNK         0.5000 
    103 O          2.4572  -21.6273  -51.0640 O.2       18 UNK        -0.5000 
    104 N          0.2534  -21.4445  -51.5596 N.am      19 UNK        -0.5000 
    105 CA         0.3083  -20.1955  -52.3130 C.3       19 UNK         0.1400 
    106 CB        -0.1066  -19.0224  -51.4054 C.3       19 UNK        -0.1800 
    107 C         -0.5580  -20.3366  -53.5743 C.2       19 UNK         0.5000 
    108 O         -1.3837  -19.4714  -53.8667 O.2       19 UNK        -0.5000 
    109 N         -0.3503  -21.4414  -54.3079 N.am      20 UNK        -0.5000 
    110 CA        -1.1042  -21.8262  -55.5076 C.3       20 UNK         0.1400 
    111 CB        -0.6052  -23.1949  -55.9941 C.3       20 UNK        -0.1800 
    112 C         -1.0529  -20.7962  -56.6551 C.2       20 UNK         0.5000 
    113 O         -1.9794  -20.7435  -57.4657 O.2       20 UNK        -0.5000 
    114 N         -0.0023  -19.9624  -56.6736 N.am      21 UNK        -0.5000 
    115 CA         0.1763  -18.8213  -57.5759 C.3       21 UNK         0.1400 
    116 CB         1.5535  -18.1937  -57.3114 C.3       21 UNK        -0.1800 
    117 C         -0.9328  -17.7515  -57.4703 C.2       21 UNK         0.5000 
    118 O         -1.1343  -17.0012  -58.4262 O.2       21 UNK        -0.5000 
    119 N         -1.6455  -17.7138  -56.3359 N.am      22 UNK        -0.5000 
    120 CA        -2.8562  -16.9040  -56.1300 C.3       22 UNK         0.1400 
    121 C         -4.1029  -17.4074  -56.9203 C.2       22 UNK         0.5000 
    122 N         -4.1008  -18.6029  -57.5012 N.am      22 UNK        -0.7600 
    123 O         -5.0957  -16.6908  -57.0143 O.2       22 UNK        -0.5000 
    124 C124       -3.1954  -16.7655  -54.6245 C.3       23 UNK        -0.0398 
    125 S125       -1.8598  -15.9624  -53.6663 S.3       23 UNK        -0.2404 
    126 C126       -2.7992  -14.9779  -52.4462 C.3       23 UNK        -0.0205 
    127 H127       -4.0337  -18.8371  -43.4310 H         1 UNK         0.0600 
    128 H128       -5.0514  -18.2352  -44.7410 H         1 UNK         0.0600 
    129 H129       -5.7370  -18.4708  -43.1299 H         1 UNK         0.0600 
    130 H130       -4.6529  -16.1061  -45.1959 H         1 UNK         0.3000 
    131 H131       -4.4789  -14.0335  -43.2041 H         1 UNK         0.0600 
    132 H132       -5.5703  -13.0922  -44.9165 H         1 UNK         0.0800 
    133 H133       -4.0026  -12.6462  -45.4778 H         1 UNK         0.0800 
    134 H134       -2.8922  -15.3969  -46.6694 H         1 UNK         0.0800 
    135 H135       -2.7810  -13.8890  -47.5505 H         1 UNK         0.0800 
    136 H136       -2.8964  -13.9139  -49.9629 H         1 UNK         0.1150 
    137 H137       -3.4166  -17.6540  -51.9959 H         1 UNK         0.1150 
    138 H138       -3.9340  -17.4125  -47.7505 H         1 UNK         0.1150 
    139 H139       -3.1305  -19.7642  -50.1605 H         1 UNK         0.0800 
    140 H140       -4.7260  -19.3889  -50.7520 H         1 UNK         0.0800 
    141 H141       -3.6242  -19.5381  -46.3907 H         1 UNK         0.0800 
    142 H142       -2.5235  -19.5193  -47.7390 H         1 UNK         0.0800 
    143 H143       -2.6310  -22.0159  -47.8874 H         1 UNK         0.0600 
    144 H144       -1.2858  -20.5476  -46.0119 H         1 UNK         0.3000 
    145 H145       -0.1003  -22.6570  -43.6095 H         1 UNK         0.0600 
    146 H146        2.2201  -22.4395  -44.4298 H         1 UNK         0.0600 
    147 H147        1.3701  -23.6486  -45.3813 H         1 UNK         0.0600 
    148 H148        1.6458  -22.0436  -46.0463 H         1 UNK         0.0600 
    149 H149        1.0296  -20.2282  -44.4841 H         1 UNK         0.3000 
    150 H150       -1.3233  -17.9646  -43.0226 H         1 UNK         0.0600 
    151 H151        1.4810  -19.0114  -42.3522 H         1 UNK         0.0600 
    152 H152        0.2278  -18.4751  -41.2549 H         1 UNK         0.0600 
    153 H153        1.0887  -17.3082  -42.2515 H         1 UNK         0.0600 
    154 H154        1.0350  -17.6761  -44.6599 H         1 UNK         0.3000 
    155 H155       -0.6007  -17.6505  -47.8081 H         1 UNK         0.0600 
    156 H156        0.1573  -15.2159  -46.1725 H         1 UNK         0.0600 
    157 H157       -0.8249  -15.3417  -47.6226 H         1 UNK         0.0600 
    158 H158        0.9018  -15.4235  -47.7568 H         1 UNK         0.0600 
    159 H159        2.0718  -17.1588  -46.7896 H         1 UNK         0.3000 
    160 H160        3.2275  -20.4656  -47.0203 H         1 UNK         0.0600 
    161 H161        3.7835  -18.1257  -48.9272 H         1 UNK         0.0600 
    162 H162        3.2818  -19.7351  -49.4222 H         1 UNK         0.0600 
    163 H163        4.8377  -19.5114  -48.6402 H         1 UNK         0.0600 
    164 H164        4.5153  -17.9364  -46.5996 H         1 UNK         0.3000 
    165 H165        3.7533  -17.5688  -43.1377 H         1 UNK         0.0600 
    166 H166        6.2230  -17.4714  -42.9530 H         1 UNK         0.0600 
    167 H167        6.4022  -18.2649  -44.5182 H         1 UNK         0.0600 
    168 H168        5.6993  -19.1348  -43.1597 H         1 UNK         0.0600 
    169 H169        5.3779  -16.0451  -44.9295 H         1 UNK         0.3000 
    170 H170        4.5158  -13.7710  -45.3091 H         1 UNK         0.0600 
    171 H171        4.9422  -15.3833  -47.2397 H         1 UNK         0.0600 
    172 H172        3.2766  -15.1822  -47.7621 H         1 UNK         0.0600 
    173 H173        4.4009  -13.8305  -47.8207 H         1 UNK         0.0600 
    174 H174        1.7157  -13.8357  -45.3072 H         1 UNK         0.3000 
    175 H175        1.2415  -10.4465  -46.4786 H         1 UNK         0.0600 
    176 H176       -0.2770  -13.0267  -47.0595 H         1 UNK         0.0600 
    177 H177       -0.8098  -11.3811  -47.3588 H         1 UNK         0.0600 
    178 H178        0.5194  -12.0542  -48.2910 H         1 UNK         0.0600 
    179 H179       -0.2996  -12.2426  -44.7990 H         1 UNK         0.3000 
    180 H180        0.8814  -10.9700  -41.7294 H         1 UNK         0.0600 
    181 H181       -1.7143  -10.0617  -43.0895 H         1 UNK         0.0600 
    182 H182       -0.5034   -8.9946  -42.3889 H         1 UNK         0.0600 
    183 H183       -1.4086  -10.0847  -41.3518 H         1 UNK         0.0600 
    184 H184       -1.4867  -12.4208  -42.4014 H         1 UNK         0.3000 
    185 H185       -0.1616  -15.5365  -43.0288 H         1 UNK         0.0600 
    186 H186       -1.1573  -16.3949  -40.8900 H         1 UNK         0.0600 
    187 H187        0.3864  -15.6140  -40.5768 H         1 UNK         0.0600 
    188 H188       -1.1129  -14.7730  -40.2066 H         1 UNK         0.0600 
    189 H189       -2.7235  -15.1635  -42.1561 H         1 UNK         0.3000 
    190 H190       -3.7221  -21.4096  -44.5226 H         1 UNK         0.3000 
    191 H191       -6.2813  -22.6676  -44.8057 H         1 UNK         0.0600 
    192 H192       -6.3091  -22.4517  -42.3021 H         1 UNK         0.0600 
    193 H193       -5.8465  -20.9537  -43.0903 H         1 UNK         0.0600 
    194 H194       -4.6177  -21.9638  -42.3288 H         1 UNK         0.0600 
    195 H195       -3.0785  -23.9336  -44.0390 H         1 UNK         0.3000 
    196 H196       -4.1055  -26.4911  -42.9810 H         1 UNK         0.0600 
    197 H197       -1.2510  -25.4702  -43.4418 H         1 UNK         0.0600 
    198 H198       -2.1264  -25.4421  -41.9121 H         1 UNK         0.0600 
    199 H199       -1.6897  -26.9769  -42.6467 H         1 UNK         0.0600 
    200 H200       -2.3423  -25.2047  -45.8141 H         1 UNK         0.3000 
    201 H201       -2.0558  -27.7806  -47.1071 H         1 UNK         0.0600 
    202 H202       -1.5322  -24.9266  -48.0913 H         1 UNK         0.0600 
    203 H203       -0.9307  -26.4036  -48.8420 H         1 UNK         0.0600 
    204 H204       -0.3678  -25.9442  -47.2450 H         1 UNK         0.0600 
    205 H205       -4.6680  -25.6242  -46.9641 H         1 UNK         0.3000 
    206 H206       -6.5743  -25.2807  -48.0458 H         1 UNK         0.0600 
    207 H207       -6.8704  -27.7630  -48.0230 H         1 UNK         0.0600 
    208 H208       -7.5978  -27.0318  -49.4452 H         1 UNK         0.0600 
    209 H209       -6.0689  -27.8841  -49.5883 H         1 UNK         0.0600 
    210 H210       -4.7552  -23.7105  -48.7015 H         1 UNK         0.3000 
    211 H211       -4.0452  -22.1330  -50.0112 H         1 UNK         0.0600 
    212 H212       -5.1914  -21.5460  -52.1179 H         1 UNK         0.0600 
    213 H213       -6.3649  -21.9911  -50.8906 H         1 UNK         0.0600 
    214 H214       -5.9603  -23.1223  -52.1835 H         1 UNK         0.0600 
    215 H215       -3.3766  -25.3137  -50.9313 H         1 UNK         0.3000 
    216 H216       -1.9279  -24.9746  -53.2998 H         1 UNK         0.0600 
    217 H217       -1.4875  -27.0493  -51.0910 H         1 UNK         0.0600 
    218 H218       -0.9626  -27.1911  -52.7622 H         1 UNK         0.0600 
    219 H219       -2.6783  -27.1688  -52.3846 H         1 UNK         0.0600 
    220 H220       -0.9500  -24.0922  -50.0819 H         1 UNK         0.3000 
    221 H221        1.8969  -24.0369  -50.4499 H         1 UNK         0.0600 
    222 H222        0.9126  -24.0723  -48.1955 H         1 UNK         0.0600 
    223 H223        0.0616  -22.5533  -48.4916 H         1 UNK         0.0600 
    224 H224        1.8162  -22.5843  -48.3946 H         1 UNK         0.0600 
    225 H225       -0.6562  -21.8935  -51.5321 H         1 UNK         0.3000 
    226 H226        1.3254  -20.0087  -52.6629 H         1 UNK         0.0600 
    227 H227       -1.1304  -19.1324  -51.0533 H         1 UNK         0.0600 
    228 H228        0.5410  -18.9502  -50.5313 H         1 UNK         0.0600 
    229 H229       -0.0440  -18.0723  -51.9374 H         1 UNK         0.0600 
    230 H230        0.3362  -22.1067  -53.9811 H         1 UNK         0.3000 
    231 H231       -2.1506  -21.9284  -55.2125 H         1 UNK         0.0600 
    232 H232        0.4508  -23.1642  -56.2652 H         1 UNK         0.0600 
    233 H233       -1.1610  -23.5251  -56.8728 H         1 UNK         0.0600 
    234 H234       -0.7322  -23.9581  -55.2270 H         1 UNK         0.0600 
    235 H235        0.7027  -20.0845  -55.9622 H         1 UNK         0.3000 
    236 H236        0.1620  -19.2039  -58.5983 H         1 UNK         0.0600 
    237 H237        2.3543  -18.9171  -57.4658 H         1 UNK         0.0600 
    238 H238        1.7386  -17.3575  -57.9870 H         1 UNK         0.0600 
    239 H239        1.6324  -17.8152  -56.2914 H         1 UNK         0.0600 
    240 H240       -1.4165  -18.3542  -55.5828 H         1 UNK         0.3000 
    241 H241       -2.6469  -15.9029  -56.5117 H         1 UNK         0.0600 
    242 H242       -4.9169  -18.9028  -58.0105 H         1 UNK         0.3800 
    243 H243       -3.2973  -19.2191  -57.4430 H         1 UNK         0.3800 
    244 H244       -3.3951  -17.7503  -54.2017 H         1 UNK         0.0800 
    245 H245       -4.1132  -16.1896  -54.4974 H         1 UNK         0.0800 
    246 H246       -3.7274  -14.6112  -52.8853 H         1 UNK         0.0800 
    247 H247       -2.2017  -14.0909  -52.2301 H         1 UNK         0.0800 
@<TRIPOS>BOND
     1    1    2 1    
     2    1  127 1    
     3    1  128 1    
     4    1  129 1    
     5    2    3 2    
     6    2    4 am   BACKBONE|DICT|INTERRES
     7    4    5 1    
     8    4  130 1    
     9    5    6 1    
    10    5   65 1    
    11    5  131 1    
    12    6    7 1    
    13    6  132 1    
    14    6  133 1    
    15    7    8 1    
    16    8    9 1    
    17    8  134 1    
    18    8  135 1    
    19    9   10 ar   
    20    9   14 ar   
    21   10   11 ar   
    22   10  136 1    
    23   11   12 ar   
    24   11  126 1    
    25   12   13 ar   
    26   12  137 1    
    27   13   14 ar   
    28   13   15 1    
    29   14  138 1    
    30   15   16 1    
    31   15  139 1    
    32   15  140 1    
    33   16   17 1    
    34   17   18 1    
    35   17  141 1    
    36   17  142 1    
    37   18   19 1    
    38   18   67 1    
    39   18  143 1    
    40   19   20 am   BACKBONE|DICT|INTERRES
    41   19  144 1    
    42   20   21 2    
    43   20   22 1    
    44   22   23 1    
    45   22   24 1    
    46   22  145 1    
    47   23  146 1    
    48   23  147 1    
    49   23  148 1    
    50   24   25 am   BACKBONE|DICT|INTERRES
    51   24  149 1    
    52   25   26 2    
    53   25   27 1    
    54   27   28 1    
    55   27   29 1    
    56   27  150 1    
    57   28  151 1    
    58   28  152 1    
    59   28  153 1    
    60   29   30 am   BACKBONE|DICT|INTERRES
    61   29  154 1    
    62   30   31 2    
    63   30   32 1    
    64   32   33 1    
    65   32   34 1    
    66   32  155 1    
    67   33  156 1    
    68   33  157 1    
    69   33  158 1    
    70   34   35 am   BACKBONE|DICT|INTERRES
    71   34  159 1    
    72   35   36 2    
    73   35   37 1    
    74   37   38 1    
    75   37   39 1    
    76   37  160 1    
    77   38  161 1    
    78   38  162 1    
    79   38  163 1    
    80   39   40 am   BACKBONE|DICT|INTERRES
    81   39  164 1    
    82   40   41 2    
    83   40   42 1    
    84   42   43 1    
    85   42   44 1    
    86   42  165 1    
    87   43  166 1    
    88   43  167 1    
    89   43  168 1    
    90   44   45 am   BACKBONE|DICT|INTERRES
    91   44  169 1    
    92   45   46 2    
    93   45   47 1    
    94   47   48 1    
    95   47   49 1    
    96   47  170 1    
    97   48  171 1    
    98   48  172 1    
    99   48  173 1    
   100   49   50 am   BACKBONE|DICT|INTERRES
   101   49  174 1    
   102   50   51 2    
   103   50   52 1    
   104   52   53 1    
   105   52   54 1    
   106   52  175 1    
   107   53  176 1    
   108   53  177 1    
   109   53  178 1    
   110   54   55 am   BACKBONE|DICT|INTERRES
   111   54  179 1    
   112   55   56 2    
   113   55   57 1    
   114   57   58 1    
   115   57   59 1    
   116   57  180 1    
   117   58  181 1    
   118   58  182 1    
   119   58  183 1    
   120   59   60 am   BACKBONE|DICT|INTERRES
   121   59  184 1    
   122   60   61 2    
   123   60   62 1    
   124   62   63 1    
   125   62   64 1    
   126   62  185 1    
   127   63  186 1    
   128   63  187 1    
   129   63  188 1    
   130   64   65 am   BACKBONE|DICT|INTERRES
   131   64  189 1    
   132   65   66 2    
   133   67   68 2    
   134   67   69 am   BACKBONE|DICT|INTERRES
   135   69   70 1    
   136   69  190 1    
   137   70   71 1    
   138   70   72 1    
   139   70  191 1    
   140   71  192 1    
   141   71  193 1    
   142   71  194 1    
   143   72   73 2    
   144   72   74 am   BACKBONE|DICT|INTERRES
   145   74   75 1    
   146   74  195 1    
   147   75   76 1    
   148   75   77 1    
   149   75  196 1    
   150   76  197 1    
   151   76  198 1    
   152   76  199 1    
   153   77   78 2    
   154   77   79 am   BACKBONE|DICT|INTERRES
   155   79   80 1    
   156   79  200 1    
   157   80   81 1    
   158   80   82 1    
   159   80  201 1    
   160   81  202 1    
   161   81  203 1    
   162   81  204 1    
   163   82   83 2    
   164   82   84 am   BACKBONE|DICT|INTERRES
   165   84   85 1    
   166   84  205 1    
   167   85   86 1    
   168   85   87 1    
   169   85  206 1    
   170   86  207 1    
   171   86  208 1    
   172   86  209 1    
   173   87   88 2    
   174   87   89 am   BACKBONE|DICT|INTERRES
   175   89   90 1    
   176   89  210 1    
   177   90   91 1    
   178   90   92 1    
   179   90  211 1    
   180   91  212 1    
   181   91  213 1    
   182   91  214 1    
   183   92   93 2    
   184   92   94 am   BACKBONE|DICT|INTERRES
   185   94   95 1    
   186   94  215 1    
   187   95   96 1    
   188   95   97 1    
   189   95  216 1    
   190   96  217 1    
   191   96  218 1    
   192   96  219 1    
   193   97   98 2    
   194   97   99 am   BACKBONE|DICT|INTERRES
   195   99  100 1    
   196   99  220 1    
   197  100  101 1    
   198  100  102 1    
   199  100  221 1    
   200  101  222 1    
   201  101  223 1    
   202  101  224 1    
   203  102  103 2    
   204  102  104 am   BACKBONE|DICT|INTERRES
   205  104  105 1    
   206  104  225 1    
   207  105  106 1    
   208  105  107 1    
   209  105  226 1    
   210  106  227 1    
   211  106  228 1    
   212  106  229 1    
   213  107  108 2    
   214  107  109 am   BACKBONE|DICT|INTERRES
   215  109  110 1    
   216  109  230 1    
   217  110  111 1    
   218  110  112 1    
   219  110  231 1    
   220  111  232 1    
   221  111  233 1    
   222  111  234 1    
   223  112  113 2    
   224  112  114 am   BACKBONE|DICT|INTERRES
   225  114  115 1    
   226  114  235 1    
   227  115  116 1    
   228  115  117 1    
   229  115  236 1    
   230  116  237 1    
   231  116  238 1    
   232  116  239 1    
   233  117  118 2    
   234  117  119 am   BACKBONE|DICT|INTERRES
   235  119  120 1    
   236  119  240 1    
   237  120  121 1    
   238  120  124 1    
   239  120  241 1    
   240  121  122 am   BACKBONE|DICT|INTERRES
   241  121  123 2    
   242  122  242 1    
   243  122  243 1    
   244  124  125 1    
   245  124  244 1    
   246  124  245 1    
   247  125  126 1    
   248  126  246 1    
   249  126  247 1    
@<TRIPOS>SUBSTRUCTURE
     1 UNK         1 GROUP             0       ****    0 ROOT    
