@<TRIPOS>MOLECULE
3R540
247   249    1
SMALL
USER_CHARGES


@<TRIPOS>ATOM
      1 CA          1.7964  -12.0680  -47.1533 C.3       0 UNK        -0.1800 
      2 C           2.8318  -13.1292  -46.8117 C.2       0 UNK         0.5000 
      3 O           2.4971  -14.1436  -46.1983 O.2       0 UNK        -0.5000 
      4 N           4.0908  -12.8856  -47.2036 N.am      1 UNK        -0.5000 
      5 CA          5.2618  -13.7716  -47.0751 C.3       1 UNK         0.1400 
      6 C6          5.1023  -15.1057  -47.8656 C.3       23 UNK        -0.0398 
      7 S7          5.3569  -14.8680  -49.6563 S.3       23 UNK        -0.2404 
      8 C8          3.6620  -14.5539  -50.2596 C.3       23 UNK        -0.0205 
      9 C9          2.8327  -15.7730  -50.6664 C.ar      23 UNK        -0.0193 
     10 C10         1.6105  -15.5314  -51.2989 C.ar      23 UNK        -0.1150 
     11 C11         0.8052  -16.5822  -51.7408 C.ar      23 UNK        -0.0193 
     12 C12         1.2296  -17.8989  -51.5459 C.ar      23 UNK        -0.1150 
     13 C13         2.4505  -18.1647  -50.9175 C.ar      23 UNK        -0.0193 
     14 C14         3.2414  -17.0999  -50.4685 C.ar      23 UNK        -0.1150 
     15 C15         2.9459  -19.5992  -50.7814 C.3       23 UNK        -0.0205 
     16 S16         2.4353  -20.3779  -49.2179 S.3       23 UNK        -0.2404 
     17 C17         0.6662  -20.6868  -49.5262 C.3       23 UNK        -0.0398 
     18 CA          0.0665  -21.7653  -48.5883 C.3       11 UNK         0.1400 
     19 N           0.0317  -21.3556  -47.1771 N.am      11 UNK        -0.5000 
     20 C          -0.4049  -22.1167  -46.1603 C.2       10 UNK         0.5000 
     21 O          -0.7755  -23.2827  -46.2877 O.2       10 UNK        -0.5000 
     22 CA         -0.5025  -21.4599  -44.7716 C.3       10 UNK         0.1400 
     23 CB          0.8451  -21.5158  -44.0371 C.3       10 UNK        -0.1800 
     24 N          -1.0018  -20.0848  -44.8226 N.am      10 UNK        -0.5000 
     25 C          -2.2288  -19.7408  -45.2419 C.2       9 UNK         0.5000 
     26 O          -3.0810  -20.5565  -45.5932 O.2       9 UNK        -0.5000 
     27 CA         -2.5480  -18.2364  -45.3275 C.3       9 UNK         0.1400 
     28 CB         -2.8975  -17.6669  -43.9449 C.3       9 UNK        -0.1800 
     29 N          -1.4557  -17.4644  -45.9180 N.am      9 UNK        -0.5000 
     30 C          -1.0185  -17.6112  -47.1772 C.2       8 UNK         0.5000 
     31 O          -1.5472  -18.3609  -48.0004 O.2       8 UNK        -0.5000 
     32 CA          0.2590  -16.8340  -47.5553 C.3       8 UNK         0.1400 
     33 CB         -0.0723  -15.3812  -47.9204 C.3       8 UNK        -0.1800 
     34 N           1.2692  -16.8440  -46.4932 N.am      8 UNK        -0.5000 
     35 C           1.8209  -17.9552  -45.9860 C.2       7 UNK         0.5000 
     36 O           1.5705  -19.0858  -46.3932 O.2       7 UNK        -0.5000 
     37 CA          2.7507  -17.7928  -44.7753 C.3       7 UNK         0.1400 
     38 CB          4.1331  -17.2822  -45.1896 C.3       7 UNK        -0.1800 
     39 N           2.1735  -16.9131  -43.7614 N.am      7 UNK        -0.5000 
     40 C           1.1460  -17.2600  -42.9756 C.2       6 UNK         0.5000 
     41 O           0.5976  -18.3604  -43.0174 O.2       6 UNK        -0.5000 
     42 CA          0.6242  -16.1968  -41.9931 C.3       6 UNK         0.1400 
     43 CB          1.3954  -16.2669  -40.6672 C.3       6 UNK        -0.1800 
     44 N           0.6729  -14.8276  -42.5089 N.am      6 UNK        -0.5000 
     45 C           0.0149  -14.3947  -43.5959 C.2       5 UNK         0.5000 
     46 O          -0.6369  -15.1369  -44.3327 O.2       5 UNK        -0.5000 
     47 CA          0.1003  -12.8842  -43.9029 C.3       5 UNK         0.1400 
     48 CB         -1.0633  -12.3773  -44.7798 C.3       5 UNK        -0.1800 
     49 N           0.2586  -12.0530  -42.7058 N.am      5 UNK        -0.5000 
     50 C          -0.5859  -11.9424  -41.6671 C.2       4 UNK         0.5000 
     51 O          -1.6932  -12.4809  -41.6271 O.2       4 UNK        -0.5000 
     52 CA         -0.1067  -11.0930  -40.4651 C.3       4 UNK         0.1400 
     53 CB         -0.6171  -11.6468  -39.1179 C.3       4 UNK        -0.1800 
     54 N           1.3488  -10.8842  -40.4164 N.am      4 UNK        -0.5000 
     55 C           2.2962  -11.8286  -40.3278 C.2       3 UNK         0.5000 
     56 O           2.0642  -13.0374  -40.2493 O.2       3 UNK        -0.5000 
     57 CA          3.7542  -11.3346  -40.3854 C.3       3 UNK         0.1400 
     58 CB          4.3614  -11.2833  -38.9755 C.3       3 UNK        -0.1800 
     59 N           4.5894  -12.1838  -41.2378 N.am      3 UNK        -0.5000 
     60 C           4.3590  -12.4407  -42.5320 C.2       2 UNK         0.5000 
     61 O           3.4360  -11.9352  -43.1815 O.2       2 UNK        -0.5000 
     62 CA          5.3067  -13.4469  -43.2031 C.3       2 UNK         0.1400 
     63 CB          5.1124  -14.8583  -42.6156 C.3       2 UNK        -0.1800 
     64 N           5.0256  -13.4398  -44.6334 N.am      2 UNK        -0.5000 
     65 C           5.7478  -13.9848  -45.6174 C.2       1 UNK         0.5000 
     66 O           6.7928  -14.6054  -45.4175 O.2       1 UNK        -0.5000 
     67 C          -1.3281  -22.1844  -49.0932 C.2       11 UNK         0.5000 
     68 O          -1.4536  -23.2437  -49.7071 O.2       11 UNK        -0.5000 
     69 N          -2.3496  -21.3712  -48.7869 N.am      12 UNK        -0.5000 
     70 CA         -3.7476  -21.6701  -49.0887 C.3       12 UNK         0.1400 
     71 CB         -4.6157  -20.4346  -48.7989 C.3       12 UNK        -0.1800 
     72 C          -4.2605  -22.8942  -48.3096 C.2       12 UNK         0.5000 
     73 O          -4.8149  -23.8101  -48.9173 O.2       12 UNK        -0.5000 
     74 N          -4.0537  -22.8930  -46.9848 N.am      13 UNK        -0.5000 
     75 CA         -4.5328  -23.9197  -46.0575 C.3       13 UNK         0.1400 
     76 CB         -4.2333  -23.4918  -44.6138 C.3       13 UNK        -0.1800 
     77 C          -3.9678  -25.3238  -46.3316 C.2       13 UNK         0.5000 
     78 O          -4.7243  -26.2942  -46.2829 O.2       13 UNK        -0.5000 
     79 N          -2.6693  -25.4114  -46.6542 N.am      14 UNK        -0.5000 
     80 CA         -1.9688  -26.6610  -46.9713 C.3       14 UNK         0.1400 
     81 CB         -0.4668  -26.3759  -47.1207 C.3       14 UNK        -0.1800 
     82 C          -2.5036  -27.3717  -48.2299 C.2       14 UNK         0.5000 
     83 O          -2.4158  -28.5968  -48.3195 O.2       14 UNK        -0.5000 
     84 N          -3.0616  -26.5924  -49.1624 N.am      15 UNK        -0.5000 
     85 CA         -3.6870  -27.0598  -50.3973 C.3       15 UNK         0.1400 
     86 CB         -3.1992  -26.1551  -51.5360 C.3       15 UNK        -0.1800 
     87 C          -5.2273  -27.0630  -50.3082 C.2       15 UNK         0.5000 
     88 O          -5.8862  -27.2722  -51.3280 O.2       15 UNK        -0.5000 
     89 N          -5.7829  -26.7986  -49.1133 N.am      16 UNK        -0.5000 
     90 CA         -7.2143  -26.7020  -48.7922 C.3       16 UNK         0.1400 
     91 CB         -7.8647  -28.0995  -48.8450 C.3       16 UNK        -0.1800 
     92 C          -7.9762  -25.6614  -49.6459 C.2       16 UNK         0.5000 
     93 O          -9.1703  -25.8262  -49.9003 O.2       16 UNK        -0.5000 
     94 N          -7.2535  -24.6266  -50.0993 N.am      17 UNK        -0.5000 
     95 CA         -7.6578  -23.5663  -51.0266 C.3       17 UNK         0.1400 
     96 CB         -8.7226  -22.6561  -50.3831 C.3       17 UNK        -0.1800 
     97 C          -8.0656  -24.0535  -52.4374 C.2       17 UNK         0.5000 
     98 O          -8.6204  -23.2667  -53.2062 O.2       17 UNK        -0.5000 
     99 N          -7.7682  -25.3167  -52.7797 N.am      18 UNK        -0.5000 
    100 CA        -8.0162  -25.8978  -54.1039 C.3       18 UNK         0.1400 
    101 CB        -8.1100  -27.4254  -53.9696 C.3       18 UNK        -0.1800 
    102 C         -6.9283  -25.5096  -55.1248 C.2       18 UNK         0.5000 
    103 O         -7.1626  -25.5820  -56.3317 O.2       18 UNK        -0.5000 
    104 N         -5.7665  -25.0966  -54.6146 N.am      19 UNK        -0.5000 
    105 CA        -4.6055  -24.5831  -55.3257 C.3       19 UNK         0.1400 
    106 CB        -3.7599  -25.7571  -55.8541 C.3       19 UNK        -0.1800 
    107 C         -3.8214  -23.7100  -54.3319 C.2       19 UNK         0.5000 
    108 O         -4.2424  -23.5812  -53.1789 O.2       19 UNK        -0.5000 
    109 N         -2.7082  -23.1191  -54.7881 N.am      20 UNK        -0.5000 
    110 CA        -1.6814  -22.3784  -54.0300 C.3       20 UNK         0.1400 
    111 CB        -0.9621  -23.3215  -53.0483 C.3       20 UNK        -0.1800 
    112 C         -2.1299  -21.0823  -53.3150 C.2       20 UNK         0.5000 
    113 O         -1.2762  -20.2545  -52.9937 O.2       20 UNK        -0.5000 
    114 N         -3.4366  -20.9137  -53.0883 N.am      21 UNK        -0.5000 
    115 CA        -4.0726  -19.7249  -52.5323 C.3       21 UNK         0.1400 
    116 CB        -5.5574  -20.0315  -52.2825 C.3       21 UNK        -0.1800 
    117 C         -3.9161  -18.4973  -53.4468 C.2       21 UNK         0.5000 
    118 O         -3.8253  -18.6353  -54.6695 O.2       21 UNK        -0.5000 
    119 N         -3.8948  -17.3166  -52.8241 N.am      22 UNK        -0.5000 
    120 CA        -3.5900  -16.0320  -53.4732 C.3       22 UNK         0.1400 
    121 C         -4.7503  -15.4183  -54.3115 C.2       22 UNK         0.5000 
    122 N         -5.9561  -15.9725  -54.2897 N.am      22 UNK        -0.7600 
    123 O         -4.5500  -14.4215  -55.0002 O.2       22 UNK        -0.5000 
    124 C124       -3.0342  -14.9996  -52.4564 C.3       23 UNK        -0.0398 
    125 S125       -1.7607  -15.6492  -51.3157 S.3       23 UNK        -0.2404 
    126 C126       -0.4981  -16.2783  -52.4637 C.3       23 UNK        -0.0205 
    127 H127        2.0958  -11.4879  -48.0263 H         1 UNK         0.0600 
    128 H128        0.8348  -12.5303  -47.3729 H         1 UNK         0.0600 
    129 H129        1.6661  -11.3830  -46.3159 H         1 UNK         0.0600 
    130 H130        4.2839  -12.0107  -47.6711 H         1 UNK         0.3000 
    131 H131        6.0824  -13.2184  -47.5347 H         1 UNK         0.0600 
    132 H132        5.8423  -15.8421  -47.5481 H         1 UNK         0.0800 
    133 H133        4.1304  -15.5695  -47.6958 H         1 UNK         0.0800 
    134 H134        3.1043  -13.9823  -49.5205 H         1 UNK         0.0800 
    135 H135        3.7528  -13.9043  -51.1314 H         1 UNK         0.0800 
    136 H136        1.2840  -14.5133  -51.4607 H         1 UNK         0.1150 
    137 H137        0.6195  -18.7170  -51.9021 H         1 UNK         0.1150 
    138 H138        4.1843  -17.3173  -49.9891 H         1 UNK         0.1150 
    139 H139        2.6008  -20.2011  -51.6236 H         1 UNK         0.0800 
    140 H140        4.0356  -19.6134  -50.8333 H         1 UNK         0.0800 
    141 H141        0.5591  -20.9937  -50.5687 H         1 UNK         0.0800 
    142 H142        0.1275  -19.7440  -49.4311 H         1 UNK         0.0800 
    143 H143        0.7019  -22.6517  -48.6443 H         1 UNK         0.0600 
    144 H144        0.3985  -20.4300  -46.9652 H         1 UNK         0.3000 
    145 H145       -1.2167  -22.0406  -44.1854 H         1 UNK         0.0600 
    146 H146        0.7580  -21.1250  -43.0234 H         1 UNK         0.0600 
    147 H147        1.2018  -22.5434  -43.9587 H         1 UNK         0.0600 
    148 H148        1.6144  -20.9427  -44.5527 H         1 UNK         0.0600 
    149 H149       -0.3639  -19.3601  -44.5116 H         1 UNK         0.3000 
    150 H150       -3.4220  -18.1201  -45.9718 H         1 UNK         0.0600 
    151 H151       -3.7360  -18.2055  -43.5020 H         1 UNK         0.0600 
    152 H152       -3.1827  -16.6168  -44.0121 H         1 UNK         0.0600 
    153 H153       -2.0580  -17.7404  -43.2539 H         1 UNK         0.0600 
    154 H154       -0.9974  -16.7826  -45.3193 H         1 UNK         0.3000 
    155 H155        0.6898  -17.3183  -48.4342 H         1 UNK         0.0600 
    156 H156        0.7774  -14.8964  -48.4000 H         1 UNK         0.0600 
    157 H157       -0.3425  -14.7984  -47.0405 H         1 UNK         0.0600 
    158 H158       -0.9107  -15.3288  -48.6127 H         1 UNK         0.0600 
    159 H159        1.5468  -15.9398  -46.1255 H         1 UNK         0.3000 
    160 H160        2.8874  -18.7827  -44.3343 H         1 UNK         0.0600 
    161 H161        4.0890  -16.2318  -45.4627 H         1 UNK         0.0600 
    162 H162        4.5239  -17.8370  -46.0437 H         1 UNK         0.0600 
    163 H163        4.8504  -17.3886  -44.3765 H         1 UNK         0.0600 
    164 H164        2.5317  -15.9718  -43.7063 H         1 UNK         0.3000 
    165 H165       -0.4225  -16.4301  -41.7882 H         1 UNK         0.0600 
    166 H166        2.4400  -15.9794  -40.7932 H         1 UNK         0.0600 
    167 H167        0.9547  -15.6055  -39.9209 H         1 UNK         0.0600 
    168 H168        1.3780  -17.2769  -40.2555 H         1 UNK         0.0600 
    169 H169        1.1637  -14.1504  -41.9365 H         1 UNK         0.3000 
    170 H170        1.0215  -12.7542  -44.4664 H         1 UNK         0.0600 
    171 H171       -2.0296  -12.5292  -44.2985 H         1 UNK         0.0600 
    172 H172       -1.0916  -12.9007  -45.7354 H         1 UNK         0.0600 
    173 H173       -0.9584  -11.3147  -44.9978 H         1 UNK         0.0600 
    174 H174        1.1568  -11.5929  -42.6275 H         1 UNK         0.3000 
    175 H175       -0.5497  -10.1058  -40.6034 H         1 UNK         0.0600 
    176 H176       -0.2742  -11.0344  -38.2841 H         1 UNK         0.0600 
    177 H177       -1.7072  -11.6551  -39.0841 H         1 UNK         0.0600 
    178 H178       -0.2783  -12.6688  -38.9456 H         1 UNK         0.0600 
    179 H179        1.6439   -9.9205  -40.4958 H         1 UNK         0.3000 
    180 H180        3.7706  -10.3277  -40.8074 H         1 UNK         0.0600 
    181 H181        4.3956  -12.2725  -38.5168 H         1 UNK         0.0600 
    182 H182        3.7741  -10.6383  -38.3205 H         1 UNK         0.0600 
    183 H183        5.3765  -10.8863  -38.9958 H         1 UNK         0.0600 
    184 H184        5.3497  -12.6611  -40.7765 H         1 UNK         0.3000 
    185 H185        6.3343  -13.1151  -43.0432 H         1 UNK         0.0600 
    186 H186        5.7838  -15.5808  -43.0781 H         1 UNK         0.0600 
    187 H187        5.3207  -14.8750  -41.5454 H         1 UNK         0.0600 
    188 H188        4.0906  -15.2083  -42.7526 H         1 UNK         0.0600 
    189 H189        4.1854  -12.9268  -44.8733 H         1 UNK         0.3000 
    190 H190       -2.1600  -20.5163  -48.2767 H         1 UNK         0.3000 
    191 H191       -3.8189  -21.8975  -50.1547 H         1 UNK         0.0600 
    192 H192       -4.2662  -19.5621  -49.3492 H         1 UNK         0.0600 
    193 H193       -5.6525  -20.6117  -49.0874 H         1 UNK         0.0600 
    194 H194       -4.6128  -20.1736  -47.7407 H         1 UNK         0.0600 
    195 H195       -3.5957  -22.0875  -46.5643 H         1 UNK         0.3000 
    196 H196       -5.6171  -23.9770  -46.1730 H         1 UNK         0.0600 
    197 H197       -4.6145  -24.2241  -43.9010 H         1 UNK         0.0600 
    198 H198       -4.7020  -22.5358  -44.3796 H         1 UNK         0.0600 
    199 H199       -3.1620  -23.3916  -44.4408 H         1 UNK         0.0600 
    200 H200       -2.1016  -24.5662  -46.6476 H         1 UNK         0.3000 
    201 H201       -2.1056  -27.3418  -46.1289 H         1 UNK         0.0600 
    202 H202       -0.0483  -25.9759  -46.1970 H         1 UNK         0.0600 
    203 H203       -0.2742  -25.6541  -47.9160 H         1 UNK         0.0600 
    204 H204        0.0853  -27.2859  -47.3592 H         1 UNK         0.0600 
    205 H205       -3.1000  -25.5945  -48.9961 H         1 UNK         0.3000 
    206 H206       -3.3788  -28.0829  -50.6205 H         1 UNK         0.0600 
    207 H207       -2.1195  -26.2312  -51.6650 H         1 UNK         0.0600 
    208 H208       -3.6597  -26.4188  -52.4885 H         1 UNK         0.0600 
    209 H209       -3.4342  -25.1121  -51.3248 H         1 UNK         0.0600 
    210 H210       -5.1604  -26.6234  -48.3332 H         1 UNK         0.3000 
    211 H211       -7.2711  -26.3470  -47.7624 H         1 UNK         0.0600 
    212 H212       -7.8933  -28.4929  -49.8618 H         1 UNK         0.0600 
    213 H213       -8.8904  -28.0705  -48.4757 H         1 UNK         0.0600 
    214 H214       -7.3191  -28.8111  -48.2252 H         1 UNK         0.0600 
    215 H215       -6.2890  -24.5601  -49.7791 H         1 UNK         0.3000 
    216 H216       -6.7615  -22.9640  -51.1775 H         1 UNK         0.0600 
    217 H217       -8.3953  -22.2976  -49.4071 H         1 UNK         0.0600 
    218 H218       -9.6718  -23.1757  -50.2502 H         1 UNK         0.0600 
    219 H219       -8.9141  -21.7779  -51.0007 H         1 UNK         0.0600 
    220 H220       -7.2908  -25.9104  -52.1096 H         1 UNK         0.3000 
    221 H221       -8.9735  -25.5312  -54.4802 H         1 UNK         0.0600 
    222 H222       -7.1660  -27.8595  -53.6384 H         1 UNK         0.0600 
    223 H223       -8.8806  -27.7126  -53.2540 H         1 UNK         0.0600 
    224 H224       -8.3642  -27.8856  -54.9252 H         1 UNK         0.0600 
    225 H225       -5.6863  -25.0067  -53.6087 H         1 UNK         0.3000 
    226 H226       -4.9346  -23.9533  -56.1544 H         1 UNK         0.0600 
    227 H227       -4.3414  -26.3955  -56.5193 H         1 UNK         0.0600 
    228 H228       -2.8992  -25.4033  -56.4222 H         1 UNK         0.0600 
    229 H229       -3.3848  -26.3787  -55.0402 H         1 UNK         0.0600 
    230 H230       -2.4892  -23.2422  -55.7668 H         1 UNK         0.3000 
    231 H231       -0.9459  -22.0620  -54.7712 H         1 UNK         0.0600 
    232 H232       -0.1543  -22.8077  -52.5255 H         1 UNK         0.0600 
    233 H233       -0.5240  -24.1738  -53.5674 H         1 UNK         0.0600 
    234 H234       -1.6447  -23.7064  -52.2919 H         1 UNK         0.0600 
    235 H235       -4.0405  -21.6967  -53.3108 H         1 UNK         0.3000 
    236 H236       -3.5852  -19.5098  -51.5800 H         1 UNK         0.0600 
    237 H237       -6.0603  -19.1860  -51.8117 H         1 UNK         0.0600 
    238 H238       -6.0837  -20.2535  -53.2118 H         1 UNK         0.0600 
    239 H239       -5.6768  -20.8881  -51.6206 H         1 UNK         0.0600 
    240 H240       -3.9873  -17.2841  -51.8193 H         1 UNK         0.3000 
    241 H241       -2.7955  -16.2232  -54.1968 H         1 UNK         0.0600 
    242 H242       -6.1300  -16.7961  -53.7367 H         1 UNK         0.3800 
    243 H243       -6.6990  -15.5698  -54.8394 H         1 UNK         0.3800 
    244 H244       -2.6127  -14.1408  -52.9818 H         1 UNK         0.0800 
    245 H245       -3.8454  -14.6067  -51.8411 H         1 UNK         0.0800 
    246 H246       -0.8748  -17.1736  -52.9612 H         1 UNK         0.0800 
    247 H247       -0.3119  -15.5395  -53.2446 H         1 UNK         0.0800 
@<TRIPOS>BOND
     1    1    2 1    
     2    1  127 1    
     3    1  128 1    
     4    1  129 1    
     5    2    3 2    
     6    2    4 am   BACKBONE|DICT|INTERRES
     7    4    5 1    
     8    4  130 1    
     9    5    6 1    
    10    5   65 1    
    11    5  131 1    
    12    6    7 1    
    13    6  132 1    
    14    6  133 1    
    15    7    8 1    
    16    8    9 1    
    17    8  134 1    
    18    8  135 1    
    19    9   10 ar   
    20    9   14 ar   
    21   10   11 ar   
    22   10  136 1    
    23   11   12 ar   
    24   11  126 1    
    25   12   13 ar   
    26   12  137 1    
    27   13   14 ar   
    28   13   15 1    
    29   14  138 1    
    30   15   16 1    
    31   15  139 1    
    32   15  140 1    
    33   16   17 1    
    34   17   18 1    
    35   17  141 1    
    36   17  142 1    
    37   18   19 1    
    38   18   67 1    
    39   18  143 1    
    40   19   20 am   BACKBONE|DICT|INTERRES
    41   19  144 1    
    42   20   21 2    
    43   20   22 1    
    44   22   23 1    
    45   22   24 1    
    46   22  145 1    
    47   23  146 1    
    48   23  147 1    
    49   23  148 1    
    50   24   25 am   BACKBONE|DICT|INTERRES
    51   24  149 1    
    52   25   26 2    
    53   25   27 1    
    54   27   28 1    
    55   27   29 1    
    56   27  150 1    
    57   28  151 1    
    58   28  152 1    
    59   28  153 1    
    60   29   30 am   BACKBONE|DICT|INTERRES
    61   29  154 1    
    62   30   31 2    
    63   30   32 1    
    64   32   33 1    
    65   32   34 1    
    66   32  155 1    
    67   33  156 1    
    68   33  157 1    
    69   33  158 1    
    70   34   35 am   BACKBONE|DICT|INTERRES
    71   34  159 1    
    72   35   36 2    
    73   35   37 1    
    74   37   38 1    
    75   37   39 1    
    76   37  160 1    
    77   38  161 1    
    78   38  162 1    
    79   38  163 1    
    80   39   40 am   BACKBONE|DICT|INTERRES
    81   39  164 1    
    82   40   41 2    
    83   40   42 1    
    84   42   43 1    
    85   42   44 1    
    86   42  165 1    
    87   43  166 1    
    88   43  167 1    
    89   43  168 1    
    90   44   45 am   BACKBONE|DICT|INTERRES
    91   44  169 1    
    92   45   46 2    
    93   45   47 1    
    94   47   48 1    
    95   47   49 1    
    96   47  170 1    
    97   48  171 1    
    98   48  172 1    
    99   48  173 1    
   100   49   50 am   BACKBONE|DICT|INTERRES
   101   49  174 1    
   102   50   51 2    
   103   50   52 1    
   104   52   53 1    
   105   52   54 1    
   106   52  175 1    
   107   53  176 1    
   108   53  177 1    
   109   53  178 1    
   110   54   55 am   BACKBONE|DICT|INTERRES
   111   54  179 1    
   112   55   56 2    
   113   55   57 1    
   114   57   58 1    
   115   57   59 1    
   116   57  180 1    
   117   58  181 1    
   118   58  182 1    
   119   58  183 1    
   120   59   60 am   BACKBONE|DICT|INTERRES
   121   59  184 1    
   122   60   61 2    
   123   60   62 1    
   124   62   63 1    
   125   62   64 1    
   126   62  185 1    
   127   63  186 1    
   128   63  187 1    
   129   63  188 1    
   130   64   65 am   BACKBONE|DICT|INTERRES
   131   64  189 1    
   132   65   66 2    
   133   67   68 2    
   134   67   69 am   BACKBONE|DICT|INTERRES
   135   69   70 1    
   136   69  190 1    
   137   70   71 1    
   138   70   72 1    
   139   70  191 1    
   140   71  192 1    
   141   71  193 1    
   142   71  194 1    
   143   72   73 2    
   144   72   74 am   BACKBONE|DICT|INTERRES
   145   74   75 1    
   146   74  195 1    
   147   75   76 1    
   148   75   77 1    
   149   75  196 1    
   150   76  197 1    
   151   76  198 1    
   152   76  199 1    
   153   77   78 2    
   154   77   79 am   BACKBONE|DICT|INTERRES
   155   79   80 1    
   156   79  200 1    
   157   80   81 1    
   158   80   82 1    
   159   80  201 1    
   160   81  202 1    
   161   81  203 1    
   162   81  204 1    
   163   82   83 2    
   164   82   84 am   BACKBONE|DICT|INTERRES
   165   84   85 1    
   166   84  205 1    
   167   85   86 1    
   168   85   87 1    
   169   85  206 1    
   170   86  207 1    
   171   86  208 1    
   172   86  209 1    
   173   87   88 2    
   174   87   89 am   BACKBONE|DICT|INTERRES
   175   89   90 1    
   176   89  210 1    
   177   90   91 1    
   178   90   92 1    
   179   90  211 1    
   180   91  212 1    
   181   91  213 1    
   182   91  214 1    
   183   92   93 2    
   184   92   94 am   BACKBONE|DICT|INTERRES
   185   94   95 1    
   186   94  215 1    
   187   95   96 1    
   188   95   97 1    
   189   95  216 1    
   190   96  217 1    
   191   96  218 1    
   192   96  219 1    
   193   97   98 2    
   194   97   99 am   BACKBONE|DICT|INTERRES
   195   99  100 1    
   196   99  220 1    
   197  100  101 1    
   198  100  102 1    
   199  100  221 1    
   200  101  222 1    
   201  101  223 1    
   202  101  224 1    
   203  102  103 2    
   204  102  104 am   BACKBONE|DICT|INTERRES
   205  104  105 1    
   206  104  225 1    
   207  105  106 1    
   208  105  107 1    
   209  105  226 1    
   210  106  227 1    
   211  106  228 1    
   212  106  229 1    
   213  107  108 2    
   214  107  109 am   BACKBONE|DICT|INTERRES
   215  109  110 1    
   216  109  230 1    
   217  110  111 1    
   218  110  112 1    
   219  110  231 1    
   220  111  232 1    
   221  111  233 1    
   222  111  234 1    
   223  112  113 2    
   224  112  114 am   BACKBONE|DICT|INTERRES
   225  114  115 1    
   226  114  235 1    
   227  115  116 1    
   228  115  117 1    
   229  115  236 1    
   230  116  237 1    
   231  116  238 1    
   232  116  239 1    
   233  117  118 2    
   234  117  119 am   BACKBONE|DICT|INTERRES
   235  119  120 1    
   236  119  240 1    
   237  120  121 1    
   238  120  124 1    
   239  120  241 1    
   240  121  122 am   BACKBONE|DICT|INTERRES
   241  121  123 2    
   242  122  242 1    
   243  122  243 1    
   244  124  125 1    
   245  124  244 1    
   246  124  245 1    
   247  125  126 1    
   248  126  246 1    
   249  126  247 1    
@<TRIPOS>SUBSTRUCTURE
     1 UNK         1 GROUP             0       ****    0 ROOT    
