@<TRIPOS>MOLECULE
3R540
247   249    1
SMALL
USER_CHARGES


@<TRIPOS>ATOM
      1 CA         -2.3950   -9.9209  -46.2029 C.3       0 UNK        -0.1800 
      2 C          -1.2717  -10.9437  -46.1227 C.2       0 UNK         0.5000 
      3 O          -0.3656  -10.7941  -45.3047 O.2       0 UNK        -0.5000 
      4 N          -1.3327  -11.9935  -46.9525 N.am      1 UNK        -0.5000 
      5 CA         -0.3393  -13.0740  -47.0228 C.3       1 UNK         0.1400 
      6 C6         -0.6269  -14.0173  -48.2165 C.3       23 UNK        -0.0398 
      7 S7          0.8469  -14.9176  -48.8043 S.3       23 UNK        -0.2404 
      8 C8          0.1529  -16.5845  -49.0244 C.3       23 UNK        -0.0205 
      9 C9          1.0445  -17.4558  -49.8950 C.ar      23 UNK        -0.0193 
     10 C10         1.0875  -17.2485  -51.2765 C.ar      23 UNK        -0.1150 
     11 C11         1.8800  -18.0600  -52.0928 C.ar      23 UNK        -0.0193 
     12 C12         2.6249  -19.0932  -51.5174 C.ar      23 UNK        -0.1150 
     13 C13         2.5939  -19.3116  -50.1365 C.ar      23 UNK        -0.0193 
     14 C14         1.8085  -18.4804  -49.3301 C.ar      23 UNK        -0.1150 
     15 C15         3.4307  -20.4295  -49.5276 C.3       23 UNK        -0.0205 
     16 S16         2.4410  -21.9163  -49.1593 S.3       23 UNK        -0.2404 
     17 C17         2.0573  -21.6225  -47.4021 C.3       23 UNK        -0.0398 
     18 CA          0.8796  -22.4387  -46.8215 C.3       11 UNK         0.1400 
     19 N           0.7812  -22.2190  -45.3762 N.am      11 UNK        -0.5000 
     20 C          -0.0461  -22.8564  -44.5384 C.2       10 UNK         0.5000 
     21 O          -0.7980  -23.7675  -44.8788 O.2       10 UNK        -0.5000 
     22 CA         -0.0731  -22.3553  -43.0829 C.3       10 UNK         0.1400 
     23 CB          1.0959  -22.9426  -42.2786 C.3       10 UNK        -0.1800 
     24 N          -0.0504  -20.8944  -42.9894 N.am      10 UNK        -0.5000 
     25 C          -1.0088  -20.0859  -43.4650 C.2       9 UNK         0.5000 
     26 O          -2.0382  -20.4888  -44.0042 O.2       9 UNK        -0.5000 
     27 CA         -0.7520  -18.5719  -43.3645 C.3       9 UNK         0.1400 
     28 CB         -0.9951  -18.0783  -41.9297 C.3       9 UNK        -0.1800 
     29 N           0.5974  -18.2078  -43.8032 N.am      9 UNK        -0.5000 
     30 C           1.0660  -18.4004  -45.0455 C.2       8 UNK         0.5000 
     31 O           0.3815  -18.8311  -45.9729 O.2       8 UNK        -0.5000 
     32 CA          2.5659  -18.1442  -45.2787 C.3       8 UNK         0.1400 
     33 CB          2.8464  -16.6760  -45.6194 C.3       8 UNK        -0.1800 
     34 N           3.3774  -18.5553  -44.1348 N.am      8 UNK        -0.5000 
     35 C           3.5825  -19.8318  -43.7806 C.2       7 UNK         0.5000 
     36 O           3.1456  -20.7931  -44.4120 O.2       7 UNK        -0.5000 
     37 CA          4.3629  -20.0690  -42.4752 C.3       7 UNK         0.1400 
     38 CB          5.8761  -19.9998  -42.7277 C.3       7 UNK        -0.1800 
     39 N           3.9987  -19.1081  -41.4332 N.am      7 UNK        -0.5000 
     40 C           2.7902  -19.0399  -40.8560 C.2       6 UNK         0.5000 
     41 O           1.8812  -19.8357  -41.0879 O.2       6 UNK        -0.5000 
     42 CA          2.5418  -17.8547  -39.9033 C.3       6 UNK         0.1400 
     43 CB          2.9055  -18.2360  -38.4610 C.3       6 UNK        -0.1800 
     44 N           3.2857  -16.6528  -40.2924 N.am      6 UNK        -0.5000 
     45 C           3.0531  -15.9489  -41.4078 C.2       5 UNK         0.5000 
     46 O           2.1587  -16.2157  -42.2132 O.2       5 UNK        -0.5000 
     47 CA          4.0413  -14.8182  -41.7127 C.3       5 UNK         0.1400 
     48 CB          5.2196  -15.3576  -42.5478 C.3       5 UNK        -0.1800 
     49 N           3.3620  -13.7417  -42.4272 N.am      5 UNK        -0.5000 
     50 C           3.8365  -12.4953  -42.5518 C.2       4 UNK         0.5000 
     51 O           4.9179  -12.1273  -42.0901 O.2       4 UNK        -0.5000 
     52 CA          2.9588  -11.4752  -43.2992 C.3       4 UNK         0.1400 
     53 CB          3.2119  -11.5453  -44.8132 C.3       4 UNK        -0.1800 
     54 N           1.5299  -11.6367  -43.0338 N.am      4 UNK        -0.5000 
     55 C           0.9348  -11.3827  -41.8587 C.2       3 UNK         0.5000 
     56 O           1.5383  -10.9965  -40.8570 O.2       3 UNK        -0.5000 
     57 CA         -0.5902  -11.5865  -41.7844 C.3       3 UNK         0.1400 
     58 CB         -1.3310  -10.2563  -41.9940 C.3       3 UNK        -0.1800 
     59 N          -1.0624  -12.5651  -42.7643 N.am      3 UNK        -0.5000 
     60 C          -1.0147  -13.8910  -42.5771 C.2       2 UNK         0.5000 
     61 O          -0.6477  -14.4102  -41.5238 O.2       2 UNK        -0.5000 
     62 CA         -1.4456  -14.7901  -43.7538 C.3       2 UNK         0.1400 
     63 CB         -2.8738  -15.3154  -43.5434 C.3       2 UNK        -0.1800 
     64 N          -1.3702  -14.1277  -45.0572 N.am      2 UNK        -0.5000 
     65 C          -0.2227  -13.8455  -45.6898 C.2       1 UNK         0.5000 
     66 O           0.8857  -14.1085  -45.2282 O.2       1 UNK        -0.5000 
     67 C          -0.4617  -22.1508  -47.5337 C.2       11 UNK         0.5000 
     68 O          -0.9396  -22.9965  -48.2910 O.2       11 UNK        -0.5000 
     69 N          -1.0750  -20.9965  -47.2318 N.am      12 UNK        -0.5000 
     70 CA         -2.3872  -20.6001  -47.7452 C.3       12 UNK         0.1400 
     71 CB         -2.6770  -19.1448  -47.3480 C.3       12 UNK        -0.1800 
     72 C          -3.5229  -21.5333  -47.2823 C.2       12 UNK         0.5000 
     73 O          -4.3976  -21.8616  -48.0828 O.2       12 UNK        -0.5000 
     74 N          -3.4764  -21.9698  -46.0152 N.am      13 UNK        -0.5000 
     75 CA         -4.4133  -22.9333  -45.4357 C.3       13 UNK         0.1400 
     76 CB         -4.2126  -23.0080  -43.9149 C.3       13 UNK        -0.1800 
     77 C          -4.2975  -24.3286  -46.0755 C.2       13 UNK         0.5000 
     78 O          -5.3214  -24.9332  -46.3940 O.2       13 UNK        -0.5000 
     79 N          -3.0607  -24.7978  -46.2960 N.am      14 UNK        -0.5000 
     80 CA         -2.7513  -26.0609  -46.9727 C.3       14 UNK         0.1400 
     81 CB         -1.2478  -26.3524  -46.8543 C.3       14 UNK        -0.1800 
     82 C          -3.1949  -26.0833  -48.4482 C.2       14 UNK         0.5000 
     83 O          -3.5769  -27.1405  -48.9510 O.2       14 UNK        -0.5000 
     84 N          -3.1764  -24.9134  -49.1010 N.am      15 UNK        -0.5000 
     85 CA         -3.6903  -24.6969  -50.4543 C.3       15 UNK         0.1400 
     86 CB         -3.0714  -23.4120  -51.0215 C.3       15 UNK        -0.1800 
     87 C          -5.2323  -24.6464  -50.5349 C.2       15 UNK         0.5000 
     88 O          -5.7668  -24.6095  -51.6454 O.2       15 UNK        -0.5000 
     89 N          -5.9177  -24.6508  -49.3802 N.am      16 UNK        -0.5000 
     90 CA         -7.3695  -24.6635  -49.1908 C.3       16 UNK         0.1400 
     91 CB         -7.9575  -26.0244  -49.6258 C.3       16 UNK        -0.1800 
     92 C          -8.0498  -23.4498  -49.8524 C.2       16 UNK         0.5000 
     93 O          -8.0248  -22.3581  -49.2828 O.2       16 UNK        -0.5000 
     94 N          -8.6345  -23.6555  -51.0399 N.am      17 UNK        -0.5000 
     95 CA         -9.2479  -22.6132  -51.8634 C.3       17 UNK         0.1400 
     96 CB        -10.0910  -23.2804  -52.9616 C.3       17 UNK        -0.1800 
     97 C          -8.2221  -21.6477  -52.4899 C.2       17 UNK         0.5000 
     98 O          -8.5960  -20.5273  -52.8379 O.2       17 UNK        -0.5000 
     99 N          -6.9646  -22.1003  -52.6359 N.am      18 UNK        -0.5000 
    100 CA        -5.8181  -21.3721  -53.1960 C.3       18 UNK         0.1400 
    101 CB        -5.4334  -20.1863  -52.2865 C.3       18 UNK        -0.1800 
    102 C         -6.0001  -20.9676  -54.6763 C.2       18 UNK         0.5000 
    103 O         -5.3962  -19.9955  -55.1309 O.2       18 UNK        -0.5000 
    104 N         -6.8288  -21.7291  -55.4061 N.am      19 UNK        -0.5000 
    105 CA        -7.1803  -21.4895  -56.8075 C.3       19 UNK         0.1400 
    106 CB        -8.4218  -22.3237  -57.1580 C.3       19 UNK        -0.1800 
    107 C         -6.0302  -21.7931  -57.7853 C.2       19 UNK         0.5000 
    108 O         -5.9680  -21.1909  -58.8586 O.2       19 UNK        -0.5000 
    109 N         -5.1282  -22.7040  -57.3959 N.am      20 UNK        -0.5000 
    110 CA        -3.9132  -23.0644  -58.1254 C.3       20 UNK         0.1400 
    111 CB        -3.4616  -24.4631  -57.6684 C.3       20 UNK        -0.1800 
    112 C         -2.8256  -21.9931  -57.9144 C.2       20 UNK         0.5000 
    113 O         -1.8543  -22.2344  -57.1920 O.2       20 UNK        -0.5000 
    114 N         -3.0563  -20.8058  -58.4942 N.am      21 UNK        -0.5000 
    115 CA        -2.2939  -19.5518  -58.3997 C.3       21 UNK         0.1400 
    116 CB        -0.8617  -19.7153  -58.9453 C.3       21 UNK        -0.1800 
    117 C         -2.2972  -18.9376  -56.9856 C.2       21 UNK         0.5000 
    118 O         -2.7258  -17.7961  -56.8117 O.2       21 UNK        -0.5000 
    119 N         -1.8393  -19.7205  -56.0103 N.am      22 UNK        -0.5000 
    120 CA        -1.8464  -19.4389  -54.5729 C.3       22 UNK         0.1400 
    121 C         -1.8700  -20.7259  -53.6964 C.2       22 UNK         0.5000 
    122 N         -1.9052  -21.9322  -54.2577 N.am      22 UNK        -0.7600 
    123 O         -1.8811  -20.6305  -52.4735 O.2       22 UNK        -0.5000 
    124 C124       -0.7408  -18.4345  -54.1520 C.3       23 UNK        -0.0398 
    125 S125        0.9534  -19.0014  -54.5385 S.3       23 UNK        -0.2404 
    126 C126        1.9508  -17.8099  -53.5923 C.3       23 UNK        -0.0205 
    127 H127       -1.9907   -8.9410  -46.4563 H         1 UNK         0.0600 
    128 H128       -2.9001   -9.8436  -45.2401 H         1 UNK         0.0600 
    129 H129       -3.1358  -10.1895  -46.9563 H         1 UNK         0.0600 
    130 H130       -2.1050  -12.0598  -47.6004 H         1 UNK         0.3000 
    131 H131        0.6244  -12.5898  -47.1976 H         1 UNK         0.0600 
    132 H132       -0.9827  -13.4370  -49.0692 H         1 UNK         0.0800 
    133 H133       -1.4338  -14.7129  -47.9783 H         1 UNK         0.0800 
    134 H134       -0.8319  -16.5172  -49.4896 H         1 UNK         0.0800 
    135 H135        0.0042  -17.0388  -48.0439 H         1 UNK         0.0800 
    136 H136        0.5043  -16.4502  -51.7139 H         1 UNK         0.1150 
    137 H137        3.2337  -19.7250  -52.1490 H         1 UNK         0.1150 
    138 H138        1.7807  -18.6286  -48.2628 H         1 UNK         0.1150 
    139 H139        4.2288  -20.7124  -50.2157 H         1 UNK         0.0800 
    140 H140        3.9306  -20.0722  -48.6260 H         1 UNK         0.0800 
    141 H141        1.8742  -20.5626  -47.2508 H         1 UNK         0.0800 
    142 H142        2.9653  -21.8506  -46.8423 H         1 UNK         0.0800 
    143 H143        1.1028  -23.4976  -46.9671 H         1 UNK         0.0600 
    144 H144        1.4095  -21.5227  -44.9875 H         1 UNK         0.3000 
    145 H145       -1.0037  -22.7020  -42.6296 H         1 UNK         0.0600 
    146 H146        1.0403  -22.6469  -41.2308 H         1 UNK         0.0600 
    147 H147        2.0598  -22.6133  -42.6669 H         1 UNK         0.0600 
    148 H148        1.0832  -24.0327  -42.3109 H         1 UNK         0.0600 
    149 H149        0.7414  -20.4806  -42.5049 H         1 UNK         0.3000 
    150 H150       -1.4588  -18.0663  -44.0254 H         1 UNK         0.0600 
    151 H151       -2.0505  -18.1609  -41.6684 H         1 UNK         0.0600 
    152 H152       -0.7084  -17.0356  -41.8083 H         1 UNK         0.0600 
    153 H153       -0.4364  -18.6577  -41.1961 H         1 UNK         0.0600 
    154 H154        1.2098  -17.7852  -43.1139 H         1 UNK         0.3000 
    155 H155        2.8744  -18.7419  -46.1376 H         1 UNK         0.0600 
    156 H156        2.2346  -16.3473  -46.4599 H         1 UNK         0.0600 
    157 H157        3.8891  -16.5280  -45.8998 H         1 UNK         0.0600 
    158 H158        2.6297  -16.0171  -44.7799 H         1 UNK         0.0600 
    159 H159        3.7258  -17.8212  -43.5380 H         1 UNK         0.3000 
    160 H160        4.1195  -21.0714  -42.1167 H         1 UNK         0.0600 
    161 H161        6.1855  -19.0103  -43.0667 H         1 UNK         0.0600 
    162 H162        6.1766  -20.7177  -43.4921 H         1 UNK         0.0600 
    163 H163        6.4375  -20.2359  -41.8235 H         1 UNK         0.0600 
    164 H164        4.6964  -18.4275  -41.1733 H         1 UNK         0.3000 
    165 H165        1.4760  -17.6194  -39.9367 H         1 UNK         0.0600 
    166 H166        2.6660  -17.4295  -37.7676 H         1 UNK         0.0600 
    167 H167        2.3479  -19.1164  -38.1384 H         1 UNK         0.0600 
    168 H168        3.9672  -18.4639  -38.3586 H         1 UNK         0.0600 
    169 H169        4.0424  -16.3758  -39.6833 H         1 UNK         0.3000 
    170 H170        4.4172  -14.4270  -40.7648 H         1 UNK         0.0600 
    171 H171        4.8918  -15.7015  -43.5291 H         1 UNK         0.0600 
    172 H172        5.9817  -14.5940  -42.7027 H         1 UNK         0.0600 
    173 H173        5.7068  -16.1964  -42.0495 H         1 UNK         0.0600 
    174 H174        2.4597  -13.9835  -42.8197 H         1 UNK         0.3000 
    175 H175        3.2468  -10.4785  -42.9583 H         1 UNK         0.0600 
    176 H176        2.9862  -12.5325  -45.2162 H         1 UNK         0.0600 
    177 H177        2.6049  -10.8163  -45.3508 H         1 UNK         0.0600 
    178 H178        4.2567  -11.3320  -45.0420 H         1 UNK         0.0600 
    179 H179        0.9526  -11.9081  -43.8192 H         1 UNK         0.3000 
    180 H180       -0.8277  -11.9430  -40.7797 H         1 UNK         0.0600 
    181 H181       -2.4105  -10.3898  -41.9224 H         1 UNK         0.0600 
    182 H182       -1.1106   -9.8154  -42.9660 H         1 UNK         0.0600 
    183 H183       -1.0429   -9.5286  -41.2344 H         1 UNK         0.0600 
    184 H184       -1.3404  -12.2063  -43.6664 H         1 UNK         0.3000 
    185 H185       -0.7640  -15.6419  -43.7716 H         1 UNK         0.0600 
    186 H186       -3.6050  -14.5062  -43.5522 H         1 UNK         0.0600 
    187 H187       -3.1502  -16.0283  -44.3204 H         1 UNK         0.0600 
    188 H188       -2.9660  -15.8287  -42.5855 H         1 UNK         0.0600 
    189 H189       -2.2438  -13.8511  -45.4812 H         1 UNK         0.3000 
    190 H190       -0.6104  -20.3329  -46.6176 H         1 UNK         0.3000 
    191 H191       -2.3438  -20.6503  -48.8355 H         1 UNK         0.0600 
    192 H192       -1.9272  -18.4701  -47.7589 H         1 UNK         0.0600 
    193 H193       -2.6848  -19.0157  -46.2653 H         1 UNK         0.0600 
    194 H194       -3.6476  -18.8219  -47.7263 H         1 UNK         0.0600 
    195 H195       -2.7624  -21.5975  -45.3948 H         1 UNK         0.3000 
    196 H196       -5.4247  -22.5666  -45.6233 H         1 UNK         0.0600 
    197 H197       -4.3663  -22.0344  -43.4492 H         1 UNK         0.0600 
    198 H198       -3.2100  -23.3476  -43.6557 H         1 UNK         0.0600 
    199 H199       -4.9217  -23.7014  -43.4613 H         1 UNK         0.0600 
    200 H200       -2.2654  -24.2623  -45.9557 H         1 UNK         0.3000 
    201 H201       -3.2929  -26.8555  -46.4555 H         1 UNK         0.0600 
    202 H202       -0.9429  -26.4305  -45.8107 H         1 UNK         0.0600 
    203 H203       -0.6486  -25.5693  -47.3199 H         1 UNK         0.0600 
    204 H204       -0.9919  -27.2952  -47.3392 H         1 UNK         0.0600 
    205 H205       -2.7862  -24.1047  -48.6302 H         1 UNK         0.3000 
    206 H206       -3.3635  -25.5298  -51.0799 H         1 UNK         0.0600 
    207 H207       -3.4125  -22.5252  -50.4875 H         1 UNK         0.0600 
    208 H208       -1.9828  -23.4357  -50.9670 H         1 UNK         0.0600 
    209 H209       -3.3387  -23.2855  -52.0696 H         1 UNK         0.0600 
    210 H210       -5.3840  -24.6396  -48.5196 H         1 UNK         0.3000 
    211 H211       -7.5406  -24.5625  -48.1180 H         1 UNK         0.0600 
    212 H212       -7.7573  -26.2515  -50.6733 H         1 UNK         0.0600 
    213 H213       -9.0382  -26.0494  -49.4800 H         1 UNK         0.0600 
    214 H214       -7.5350  -26.8340  -49.0305 H         1 UNK         0.0600 
    215 H215       -8.5828  -24.5802  -51.4424 H         1 UNK         0.3000 
    216 H216       -9.9134  -22.0224  -51.2304 H         1 UNK         0.0600 
    217 H217      -10.5852  -22.5330  -53.5840 H         1 UNK         0.0600 
    218 H218      -10.8706  -23.9102  -52.5325 H         1 UNK         0.0600 
    219 H219       -9.4801  -23.9015  -53.6179 H         1 UNK         0.0600 
    220 H220       -6.7565  -23.0403  -52.3089 H         1 UNK         0.3000 
    221 H221       -4.9834  -22.0725  -53.1883 H         1 UNK         0.0600 
    222 H222       -6.2100  -19.4218  -52.2641 H         1 UNK         0.0600 
    223 H223       -5.2584  -20.5190  -51.2629 H         1 UNK         0.0600 
    224 H224       -4.5176  -19.7053  -52.6281 H         1 UNK         0.0600 
    225 H225       -7.2847  -22.5053  -54.9498 H         1 UNK         0.3000 
    226 H226       -7.4359  -20.4336  -56.9186 H         1 UNK         0.0600 
    227 H227       -9.2647  -22.0650  -56.5165 H         1 UNK         0.0600 
    228 H228       -8.7329  -22.1471  -58.1886 H         1 UNK         0.0600 
    229 H229       -8.2330  -23.3926  -57.0506 H         1 UNK         0.0600 
    230 H230       -5.2473  -23.1264  -56.4872 H         1 UNK         0.3000 
    231 H231       -4.1328  -23.1148  -59.1940 H         1 UNK         0.0600 
    232 H232       -2.5534  -24.7692  -58.1892 H         1 UNK         0.0600 
    233 H233       -4.2249  -25.2117  -57.8815 H         1 UNK         0.0600 
    234 H234       -3.2532  -24.4932  -56.5980 H         1 UNK         0.0600 
    235 H235       -3.9433  -20.7209  -58.9798 H         1 UNK         0.3000 
    236 H236       -2.8097  -18.8434  -59.0500 H         1 UNK         0.0600 
    237 H237       -0.2696  -20.4113  -58.3506 H         1 UNK         0.0600 
    238 H238       -0.8720  -20.0785  -59.9729 H         1 UNK         0.0600 
    239 H239       -0.3358  -18.7598  -58.9433 H         1 UNK         0.0600 
    240 H240       -1.5270  -20.6477  -56.2779 H         1 UNK         0.3000 
    241 H241       -2.8049  -18.9622  -54.3604 H         1 UNK         0.0600 
    242 H242       -1.8981  -22.7377  -53.6550 H         1 UNK         0.3800 
    243 H243       -1.8912  -22.0680  -55.2615 H         1 UNK         0.3800 
    244 H244       -0.8197  -18.2244  -53.0850 H         1 UNK         0.0800 
    245 H245       -0.9009  -17.4791  -54.6528 H         1 UNK         0.0800 
    246 H246        1.6302  -16.7948  -53.8321 H         1 UNK         0.0800 
    247 H247        2.9890  -17.8845  -53.9193 H         1 UNK         0.0800 
@<TRIPOS>BOND
     1    1    2 1    
     2    1  127 1    
     3    1  128 1    
     4    1  129 1    
     5    2    3 2    
     6    2    4 am   BACKBONE|DICT|INTERRES
     7    4    5 1    
     8    4  130 1    
     9    5    6 1    
    10    5   65 1    
    11    5  131 1    
    12    6    7 1    
    13    6  132 1    
    14    6  133 1    
    15    7    8 1    
    16    8    9 1    
    17    8  134 1    
    18    8  135 1    
    19    9   10 ar   
    20    9   14 ar   
    21   10   11 ar   
    22   10  136 1    
    23   11   12 ar   
    24   11  126 1    
    25   12   13 ar   
    26   12  137 1    
    27   13   14 ar   
    28   13   15 1    
    29   14  138 1    
    30   15   16 1    
    31   15  139 1    
    32   15  140 1    
    33   16   17 1    
    34   17   18 1    
    35   17  141 1    
    36   17  142 1    
    37   18   19 1    
    38   18   67 1    
    39   18  143 1    
    40   19   20 am   BACKBONE|DICT|INTERRES
    41   19  144 1    
    42   20   21 2    
    43   20   22 1    
    44   22   23 1    
    45   22   24 1    
    46   22  145 1    
    47   23  146 1    
    48   23  147 1    
    49   23  148 1    
    50   24   25 am   BACKBONE|DICT|INTERRES
    51   24  149 1    
    52   25   26 2    
    53   25   27 1    
    54   27   28 1    
    55   27   29 1    
    56   27  150 1    
    57   28  151 1    
    58   28  152 1    
    59   28  153 1    
    60   29   30 am   BACKBONE|DICT|INTERRES
    61   29  154 1    
    62   30   31 2    
    63   30   32 1    
    64   32   33 1    
    65   32   34 1    
    66   32  155 1    
    67   33  156 1    
    68   33  157 1    
    69   33  158 1    
    70   34   35 am   BACKBONE|DICT|INTERRES
    71   34  159 1    
    72   35   36 2    
    73   35   37 1    
    74   37   38 1    
    75   37   39 1    
    76   37  160 1    
    77   38  161 1    
    78   38  162 1    
    79   38  163 1    
    80   39   40 am   BACKBONE|DICT|INTERRES
    81   39  164 1    
    82   40   41 2    
    83   40   42 1    
    84   42   43 1    
    85   42   44 1    
    86   42  165 1    
    87   43  166 1    
    88   43  167 1    
    89   43  168 1    
    90   44   45 am   BACKBONE|DICT|INTERRES
    91   44  169 1    
    92   45   46 2    
    93   45   47 1    
    94   47   48 1    
    95   47   49 1    
    96   47  170 1    
    97   48  171 1    
    98   48  172 1    
    99   48  173 1    
   100   49   50 am   BACKBONE|DICT|INTERRES
   101   49  174 1    
   102   50   51 2    
   103   50   52 1    
   104   52   53 1    
   105   52   54 1    
   106   52  175 1    
   107   53  176 1    
   108   53  177 1    
   109   53  178 1    
   110   54   55 am   BACKBONE|DICT|INTERRES
   111   54  179 1    
   112   55   56 2    
   113   55   57 1    
   114   57   58 1    
   115   57   59 1    
   116   57  180 1    
   117   58  181 1    
   118   58  182 1    
   119   58  183 1    
   120   59   60 am   BACKBONE|DICT|INTERRES
   121   59  184 1    
   122   60   61 2    
   123   60   62 1    
   124   62   63 1    
   125   62   64 1    
   126   62  185 1    
   127   63  186 1    
   128   63  187 1    
   129   63  188 1    
   130   64   65 am   BACKBONE|DICT|INTERRES
   131   64  189 1    
   132   65   66 2    
   133   67   68 2    
   134   67   69 am   BACKBONE|DICT|INTERRES
   135   69   70 1    
   136   69  190 1    
   137   70   71 1    
   138   70   72 1    
   139   70  191 1    
   140   71  192 1    
   141   71  193 1    
   142   71  194 1    
   143   72   73 2    
   144   72   74 am   BACKBONE|DICT|INTERRES
   145   74   75 1    
   146   74  195 1    
   147   75   76 1    
   148   75   77 1    
   149   75  196 1    
   150   76  197 1    
   151   76  198 1    
   152   76  199 1    
   153   77   78 2    
   154   77   79 am   BACKBONE|DICT|INTERRES
   155   79   80 1    
   156   79  200 1    
   157   80   81 1    
   158   80   82 1    
   159   80  201 1    
   160   81  202 1    
   161   81  203 1    
   162   81  204 1    
   163   82   83 2    
   164   82   84 am   BACKBONE|DICT|INTERRES
   165   84   85 1    
   166   84  205 1    
   167   85   86 1    
   168   85   87 1    
   169   85  206 1    
   170   86  207 1    
   171   86  208 1    
   172   86  209 1    
   173   87   88 2    
   174   87   89 am   BACKBONE|DICT|INTERRES
   175   89   90 1    
   176   89  210 1    
   177   90   91 1    
   178   90   92 1    
   179   90  211 1    
   180   91  212 1    
   181   91  213 1    
   182   91  214 1    
   183   92   93 2    
   184   92   94 am   BACKBONE|DICT|INTERRES
   185   94   95 1    
   186   94  215 1    
   187   95   96 1    
   188   95   97 1    
   189   95  216 1    
   190   96  217 1    
   191   96  218 1    
   192   96  219 1    
   193   97   98 2    
   194   97   99 am   BACKBONE|DICT|INTERRES
   195   99  100 1    
   196   99  220 1    
   197  100  101 1    
   198  100  102 1    
   199  100  221 1    
   200  101  222 1    
   201  101  223 1    
   202  101  224 1    
   203  102  103 2    
   204  102  104 am   BACKBONE|DICT|INTERRES
   205  104  105 1    
   206  104  225 1    
   207  105  106 1    
   208  105  107 1    
   209  105  226 1    
   210  106  227 1    
   211  106  228 1    
   212  106  229 1    
   213  107  108 2    
   214  107  109 am   BACKBONE|DICT|INTERRES
   215  109  110 1    
   216  109  230 1    
   217  110  111 1    
   218  110  112 1    
   219  110  231 1    
   220  111  232 1    
   221  111  233 1    
   222  111  234 1    
   223  112  113 2    
   224  112  114 am   BACKBONE|DICT|INTERRES
   225  114  115 1    
   226  114  235 1    
   227  115  116 1    
   228  115  117 1    
   229  115  236 1    
   230  116  237 1    
   231  116  238 1    
   232  116  239 1    
   233  117  118 2    
   234  117  119 am   BACKBONE|DICT|INTERRES
   235  119  120 1    
   236  119  240 1    
   237  120  121 1    
   238  120  124 1    
   239  120  241 1    
   240  121  122 am   BACKBONE|DICT|INTERRES
   241  121  123 2    
   242  122  242 1    
   243  122  243 1    
   244  124  125 1    
   245  124  244 1    
   246  124  245 1    
   247  125  126 1    
   248  126  246 1    
   249  126  247 1    
@<TRIPOS>SUBSTRUCTURE
     1 UNK         1 GROUP             0       ****    0 ROOT    
