@<TRIPOS>MOLECULE
3R540
247   249    1
SMALL
USER_CHARGES


@<TRIPOS>ATOM
      1 CA         -1.8851  -10.9175  -50.7537 C.3       0 UNK        -0.1800 
      2 C          -0.4220  -11.2936  -50.5644 C.2       0 UNK         0.5000 
      3 O           0.4316  -10.8400  -51.3275 O.2       0 UNK        -0.5000 
      4 N          -0.1307  -12.1193  -49.5516 N.am      1 UNK        -0.5000 
      5 CA          1.2227  -12.5345  -49.1746 C.3       1 UNK         0.1400 
      6 C6          1.1869  -13.7348  -48.1988 C.3       23 UNK        -0.0398 
      7 S7          2.7930  -14.6008  -48.0926 S.3       23 UNK        -0.2404 
      8 C8          2.2717  -16.2679  -47.5800 C.3       23 UNK        -0.0205 
      9 C9          2.1253  -17.2582  -48.7330 C.ar      23 UNK        -0.0193 
     10 C10         1.5008  -16.9025  -49.9337 C.ar      23 UNK        -0.1150 
     11 C11         1.3702  -17.8239  -50.9764 C.ar      23 UNK        -0.0193 
     12 C12         1.8736  -19.1183  -50.8142 C.ar      23 UNK        -0.1150 
     13 C13         2.4999  -19.4914  -49.6209 C.ar      23 UNK        -0.0193 
     14 C14         2.6145  -18.5597  -48.5845 C.ar      23 UNK        -0.1150 
     15 C15         3.0848  -20.8891  -49.4603 C.3       23 UNK        -0.0205 
     16 S16         1.8070  -22.1616  -49.2124 S.3       23 UNK        -0.2404 
     17 C17         1.0098  -21.5869  -47.6752 C.3       23 UNK        -0.0398 
     18 CA          0.4417  -22.7304  -46.8022 C.3       11 UNK         0.1400 
     19 N           0.0593  -22.2518  -45.4742 N.am      11 UNK        -0.5000 
     20 C          -0.3250  -23.0312  -44.4540 C.2       10 UNK         0.5000 
     21 O          -0.3171  -24.2622  -44.4900 O.2       10 UNK        -0.5000 
     22 CA         -0.8608  -22.3079  -43.2047 C.3       10 UNK         0.1400 
     23 CB          0.2938  -21.8220  -42.3163 C.3       10 UNK        -0.1800 
     24 N          -1.7331  -21.1802  -43.5435 N.am      10 UNK        -0.5000 
     25 C          -2.9074  -21.2992  -44.1807 C.2       9 UNK         0.5000 
     26 O          -3.4041  -22.3810  -44.4940 O.2       9 UNK        -0.5000 
     27 CA         -3.6280  -19.9960  -44.5738 C.3       9 UNK         0.1400 
     28 CB         -4.3852  -19.4049  -43.3758 C.3       9 UNK        -0.1800 
     29 N          -2.7212  -18.9904  -45.1289 N.am      9 UNK        -0.5000 
     30 C          -2.0305  -19.1315  -46.2694 C.2       8 UNK         0.5000 
     31 O          -2.1163  -20.1156  -47.0002 O.2       8 UNK        -0.5000 
     32 CA         -1.0274  -18.0182  -46.6189 C.3       8 UNK         0.1400 
     33 CB         -1.7331  -16.8191  -47.2693 C.3       8 UNK        -0.1800 
     34 N          -0.2677  -17.5802  -45.4461 N.am      8 UNK        -0.5000 
     35 C           0.6021  -18.3563  -44.7823 C.2       7 UNK         0.5000 
     36 O           0.8923  -19.5023  -45.1216 O.2       7 UNK        -0.5000 
     37 CA          1.2079  -17.7768  -43.4931 C.3       7 UNK         0.1400 
     38 CB          2.4427  -16.9144  -43.7979 C.3       7 UNK        -0.1800 
     39 N           0.2267  -16.9988  -42.7370 N.am      7 UNK        -0.5000 
     40 C          -0.8226  -17.5357  -42.0963 C.2       6 UNK         0.5000 
     41 O          -1.0389  -18.7457  -42.0367 O.2       6 UNK        -0.5000 
     42 CA         -1.8228  -16.5541  -41.4577 C.3       6 UNK         0.1400 
     43 CB         -1.3569  -16.1469  -40.0521 C.3       6 UNK        -0.1800 
     44 N          -2.0240  -15.3519  -42.2677 N.am      6 UNK        -0.5000 
     45 C          -2.5754  -15.3386  -43.4903 C.2       5 UNK         0.5000 
     46 O          -3.0402  -16.3375  -44.0365 O.2       5 UNK        -0.5000 
     47 CA         -2.5481  -13.9978  -44.2504 C.3       5 UNK         0.1400 
     48 CB         -3.8353  -13.2025  -43.9893 C.3       5 UNK        -0.1800 
     49 N          -1.3866  -13.1755  -43.8977 N.am      5 UNK        -0.5000 
     50 C          -0.1186  -13.5095  -44.1682 C.2       4 UNK         0.5000 
     51 O           0.2034  -14.5096  -44.8163 O.2       4 UNK        -0.5000 
     52 CA          0.9629  -12.6272  -43.5343 C.3       4 UNK         0.1400 
     53 CB          1.1348  -13.0051  -42.0479 C.3       4 UNK        -0.1800 
     54 N           2.2190  -12.8151  -44.2530 N.am      4 UNK        -0.5000 
     55 C           3.3134  -12.0567  -44.1150 C.2       3 UNK         0.5000 
     56 O           3.3777  -11.0779  -43.3700 O.2       3 UNK        -0.5000 
     57 CA          4.5403  -12.4489  -44.9570 C.3       3 UNK         0.1400 
     58 CB          4.8085  -13.9658  -44.9429 C.3       3 UNK        -0.1800 
     59 N           4.3895  -11.9835  -46.3340 N.am      3 UNK        -0.5000 
     60 C           4.5671  -10.7156  -46.7372 C.2       2 UNK         0.5000 
     61 O           4.9516   -9.8092  -45.9975 O.2       2 UNK        -0.5000 
     62 CA          4.2770  -10.3995  -48.2190 C.3       2 UNK         0.1400 
     63 CB          5.5785  -10.4102  -49.0356 C.3       2 UNK        -0.1800 
     64 N           3.3276  -11.3325  -48.8272 N.am      2 UNK        -0.5000 
     65 C           2.0153  -11.3596  -48.5625 C.2       1 UNK         0.5000 
     66 O           1.4452  -10.5455  -47.8314 O.2       1 UNK        -0.5000 
     67 C          -0.7270  -23.4718  -47.4845 C.2       11 UNK         0.5000 
     68 O          -0.5319  -24.5908  -47.9522 O.2       11 UNK        -0.5000 
     69 N          -1.9277  -22.8754  -47.4757 N.am      12 UNK        -0.5000 
     70 CA         -3.1474  -23.4431  -48.0537 C.3       12 UNK         0.1400 
     71 CB         -4.2778  -22.4063  -47.9977 C.3       12 UNK        -0.1800 
     72 C          -3.5909  -24.7572  -47.3905 C.2       12 UNK         0.5000 
     73 O          -4.0836  -25.6454  -48.0856 O.2       12 UNK        -0.5000 
     74 N          -3.3901  -24.8749  -46.0720 N.am      13 UNK        -0.5000 
     75 CA         -3.6419  -26.0978  -45.3107 C.3       13 UNK         0.1400 
     76 CB         -3.5435  -25.7954  -43.8079 C.3       13 UNK        -0.1800 
     77 C          -2.6937  -27.2473  -45.7045 C.2       13 UNK         0.5000 
     78 O          -3.1311  -28.3964  -45.7706 O.2       13 UNK        -0.5000 
     79 N          -1.4237  -26.9176  -45.9750 N.am      14 UNK        -0.5000 
     80 CA         -0.3983  -27.8656  -46.4090 C.3       14 UNK         0.1400 
     81 CB          0.9907  -27.2761  -46.1170 C.3       14 UNK        -0.1800 
     82 C          -0.5329  -28.2391  -47.8972 C.2       14 UNK         0.5000 
     83 O          -0.4355  -29.4174  -48.2415 O.2       14 UNK        -0.5000 
     84 N          -0.7455  -27.2301  -48.7512 N.am      15 UNK        -0.5000 
     85 CA         -0.8107  -27.3545  -50.2089 C.3       15 UNK         0.1400 
     86 CB         -0.5080  -25.9828  -50.8342 C.3       15 UNK        -0.1800 
     87 C          -2.1527  -27.8970  -50.7357 C.2       15 UNK         0.5000 
     88 O          -2.2145  -28.2794  -51.9048 O.2       15 UNK        -0.5000 
     89 N          -3.1866  -27.9148  -49.8808 N.am      16 UNK        -0.5000 
     90 CA         -4.5837  -28.2475  -50.1736 C.3       16 UNK         0.1400 
     91 CB         -4.7364  -29.6996  -50.6745 C.3       16 UNK        -0.1800 
     92 C          -5.2027  -27.1983  -51.1171 C.2       16 UNK         0.5000 
     93 O          -5.4675  -27.4805  -52.2874 O.2       16 UNK        -0.5000 
     94 N          -5.3863  -25.9931  -50.5640 N.am      17 UNK        -0.5000 
     95 CA         -5.7982  -24.7498  -51.2171 C.3       17 UNK         0.1400 
     96 CB         -7.1423  -24.8914  -51.9674 C.3       17 UNK        -0.1800 
     97 C          -4.6451  -24.1564  -52.0504 C.2       17 UNK         0.5000 
     98 O          -3.4970  -24.2186  -51.6077 O.2       17 UNK        -0.5000 
     99 N          -4.9651  -23.5325  -53.1940 N.am      18 UNK        -0.5000 
    100 CA        -4.0858  -22.7879  -54.1094 C.3       18 UNK         0.1400 
    101 CB        -2.9441  -23.6643  -54.6617 C.3       18 UNK        -0.1800 
    102 C         -3.5602  -21.4745  -53.4992 C.2       18 UNK         0.5000 
    103 O         -3.8700  -20.3979  -54.0093 O.2       18 UNK        -0.5000 
    104 N         -2.8495  -21.5705  -52.3687 N.am      19 UNK        -0.5000 
    105 CA        -2.3639  -20.4374  -51.5736 C.3       19 UNK         0.1400 
    106 CB        -1.3119  -20.9347  -50.5772 C.3       19 UNK        -0.1800 
    107 C         -3.4876  -19.6569  -50.8571 C.2       19 UNK         0.5000 
    108 O         -3.2436  -18.5755  -50.3275 O.2       19 UNK        -0.5000 
    109 N         -4.7155  -20.1899  -50.8857 N.am      20 UNK        -0.5000 
    110 CA        -5.9290  -19.4847  -50.4808 C.3       20 UNK         0.1400 
    111 CB        -7.0648  -20.5088  -50.3301 C.3       20 UNK        -0.1800 
    112 C         -6.3304  -18.3749  -51.4770 C.2       20 UNK         0.5000 
    113 O         -7.0241  -17.4377  -51.0814 O.2       20 UNK        -0.5000 
    114 N         -5.9060  -18.5008  -52.7442 N.am      21 UNK        -0.5000 
    115 CA        -6.2760  -17.6016  -53.8376 C.3       21 UNK         0.1400 
    116 CB        -6.5472  -18.4460  -55.0936 C.3       21 UNK        -0.1800 
    117 C         -5.2122  -16.5283  -54.1360 C.2       21 UNK         0.5000 
    118 O         -5.5247  -15.5765  -54.8532 O.2       21 UNK        -0.5000 
    119 N         -3.9855  -16.6829  -53.6146 N.am      22 UNK        -0.5000 
    120 CA        -2.8687  -15.7486  -53.8570 C.3       22 UNK         0.1400 
    121 C         -2.9382  -14.4054  -53.0684 C.2       22 UNK         0.5000 
    122 N         -3.8455  -14.2393  -52.1132 N.am      22 UNK        -0.7600 
    123 O         -2.1678  -13.4907  -53.3457 O.2       22 UNK        -0.5000 
    124 C124       -1.4833  -16.4394  -53.7437 C.3       23 UNK        -0.0398 
    125 S125       -1.0311  -16.9549  -52.0542 S.3       23 UNK        -0.2404 
    126 C126        0.7170  -17.4008  -52.2852 C.3       23 UNK        -0.0205 
    127 H127       -2.0214   -9.8484  -50.5910 H         1 UNK         0.0600 
    128 H128       -2.5347  -11.4537  -50.0615 H         1 UNK         0.0600 
    129 H129       -2.2044  -11.1517  -51.7692 H         1 UNK         0.0600 
    130 H130       -0.8728  -12.4274  -48.9407 H         1 UNK         0.3000 
    131 H131        1.7243  -12.8527  -50.0917 H         1 UNK         0.0600 
    132 H132        0.8804  -13.4229  -47.1992 H         1 UNK         0.0800 
    133 H133        0.4319  -14.4479  -48.5276 H         1 UNK         0.0800 
    134 H134        3.0106  -16.6364  -46.8672 H         1 UNK         0.0800 
    135 H135        1.3331  -16.1992  -47.0352 H         1 UNK         0.0800 
    136 H136        1.1159  -15.9043  -50.0735 H         1 UNK         0.1150 
    137 H137        1.7862  -19.8369  -51.6170 H         1 UNK         0.1150 
    138 H138        3.0954  -18.8478  -47.6601 H         1 UNK         0.1150 
    139 H139        3.6610  -21.1403  -50.3518 H         1 UNK         0.0800 
    140 H140        3.7885  -20.9206  -48.6270 H         1 UNK         0.0800 
    141 H141        0.2378  -20.8610  -47.9296 H         1 UNK         0.0800 
    142 H142        1.7570  -21.0407  -47.0988 H         1 UNK         0.0800 
    143 H143        1.2414  -23.4588  -46.6510 H         1 UNK         0.0600 
    144 H144        0.0768  -21.2451  -45.3381 H         1 UNK         0.3000 
    145 H145       -1.4509  -23.0269  -42.6326 H         1 UNK         0.0600 
    146 H146       -0.0798  -21.3719  -41.3965 H         1 UNK         0.0600 
    147 H147        0.9436  -22.6509  -42.0329 H         1 UNK         0.0600 
    148 H148        0.9098  -21.0804  -42.8250 H         1 UNK         0.0600 
    149 H149       -1.4170  -20.2573  -43.2619 H         1 UNK         0.3000 
    150 H150       -4.3593  -20.2421  -45.3462 H         1 UNK         0.0600 
    151 H151       -5.0947  -20.1262  -42.9684 H         1 UNK         0.0600 
    152 H152       -4.9510  -18.5192  -43.6655 H         1 UNK         0.0600 
    153 H153       -3.7081  -19.1197  -42.5707 H         1 UNK         0.0600 
    154 H154       -2.6404  -18.1167  -44.6164 H         1 UNK         0.3000 
    155 H155       -0.3188  -18.4233  -47.3445 H         1 UNK         0.0600 
    156 H156       -2.5074  -16.4026  -46.6264 H         1 UNK         0.0600 
    157 H157       -2.2106  -17.1157  -48.2040 H         1 UNK         0.0600 
    158 H158       -1.0297  -16.0224  -47.5051 H         1 UNK         0.0600 
    159 H159       -0.4329  -16.6392  -45.1122 H         1 UNK         0.3000 
    160 H160        1.5300  -18.6141  -42.8705 H         1 UNK         0.0600 
    161 H161        2.2038  -16.0709  -44.4434 H         1 UNK         0.0600 
    162 H162        3.2099  -17.5022  -44.3032 H         1 UNK         0.0600 
    163 H163        2.8858  -16.5205  -42.8832 H         1 UNK         0.0600 
    164 H164        0.3093  -15.9948  -42.7841 H         1 UNK         0.3000 
    165 H165       -2.7826  -17.0667  -41.3666 H         1 UNK         0.0600 
    166 H166       -2.0939  -15.5110  -39.5613 H         1 UNK         0.0600 
    167 H167       -1.2138  -17.0241  -39.4196 H         1 UNK         0.0600 
    168 H168       -0.4108  -15.6047  -40.0808 H         1 UNK         0.0600 
    169 H169       -1.6837  -14.4830  -41.8849 H         1 UNK         0.3000 
    170 H170       -2.4941  -14.2226  -45.3176 H         1 UNK         0.0600 
    171 H171       -4.7157  -13.7848  -44.2647 H         1 UNK         0.0600 
    172 H172       -3.9366  -12.9314  -42.9377 H         1 UNK         0.0600 
    173 H173       -3.8577  -12.2846  -44.5771 H         1 UNK         0.0600 
    174 H174       -1.5731  -12.3394  -43.3624 H         1 UNK         0.3000 
    175 H175        0.6563  -11.5829  -43.6217 H         1 UNK         0.0600 
    176 H176        1.4826  -14.0325  -41.9330 H         1 UNK         0.0600 
    177 H177        1.8528  -12.3552  -41.5482 H         1 UNK         0.0600 
    178 H178        0.1952  -12.9121  -41.5023 H         1 UNK         0.0600 
    179 H179        2.2125  -13.5922  -44.9008 H         1 UNK         0.3000 
    180 H180        5.4119  -11.9608  -44.5153 H         1 UNK         0.0600 
    181 H181        4.0106  -14.5358  -45.4166 H         1 UNK         0.0600 
    182 H182        4.9093  -14.3331  -43.9208 H         1 UNK         0.0600 
    183 H183        5.7361  -14.2026  -45.4641 H         1 UNK         0.0600 
    184 H184        4.0642  -12.6611  -47.0087 H         1 UNK         0.3000 
    185 H185        3.8527   -9.3943  -48.2662 H         1 UNK         0.0600 
    186 H186        6.3019   -9.7035  -48.6267 H         1 UNK         0.0600 
    187 H187        6.0464  -11.3955  -49.0355 H         1 UNK         0.0600 
    188 H188        5.3969  -10.1238  -50.0717 H         1 UNK         0.0600 
    189 H189        3.7201  -12.0400  -49.4322 H         1 UNK         0.3000 
    190 H190       -2.0037  -21.9297  -47.1055 H         1 UNK         0.3000 
    191 H191       -2.9367  -23.6638  -49.1008 H         1 UNK         0.0600 
    192 H192       -3.9945  -21.4849  -48.5037 H         1 UNK         0.0600 
    193 H193       -5.1792  -22.7828  -48.4807 H         1 UNK         0.0600 
    194 H194       -4.5394  -22.1523  -46.9708 H         1 UNK         0.0600 
    195 H195       -3.0542  -24.0682  -45.5554 H         1 UNK         0.3000 
    196 H196       -4.6627  -26.4217  -45.5242 H         1 UNK         0.0600 
    197 H197       -3.7626  -26.6846  -43.2157 H         1 UNK         0.0600 
    198 H198       -4.2559  -25.0242  -43.5141 H         1 UNK         0.0600 
    199 H199       -2.5471  -25.4524  -43.5292 H         1 UNK         0.0600 
    200 H200       -1.1438  -25.9478  -45.8918 H         1 UNK         0.3000 
    201 H201       -0.5013  -28.7820  -45.8238 H         1 UNK         0.0600 
    202 H202        1.1151  -27.0721  -45.0533 H         1 UNK         0.0600 
    203 H203        1.1566  -26.3424  -46.6555 H         1 UNK         0.0600 
    204 H204        1.7793  -27.9699  -46.4107 H         1 UNK         0.0600 
    205 H205       -0.7678  -26.2779  -48.3859 H         1 UNK         0.3000 
    206 H206       -0.0324  -28.0498  -50.5300 H         1 UNK         0.0600 
    207 H207        0.4741  -25.6181  -50.5324 H         1 UNK         0.0600 
    208 H208       -0.5167  -26.0335  -51.9237 H         1 UNK         0.0600 
    209 H209       -1.2457  -25.2373  -50.5361 H         1 UNK         0.0600 
    210 H210       -3.0257  -27.5178  -48.9643 H         1 UNK         0.3000 
    211 H211       -5.1189  -28.1781  -49.2250 H         1 UNK         0.0600 
    212 H212       -4.2707  -29.8554  -51.6475 H         1 UNK         0.0600 
    213 H213       -5.7900  -29.9615  -50.7765 H         1 UNK         0.0600 
    214 H214       -4.2917  -30.4058  -49.9733 H         1 UNK         0.0600 
    215 H215       -5.0330  -25.8740  -49.6158 H         1 UNK         0.3000 
    216 H216       -5.9644  -24.0415  -50.4051 H         1 UNK         0.0600 
    217 H217       -7.5439  -23.9159  -52.2436 H         1 UNK         0.0600 
    218 H218       -7.8906  -25.3745  -51.3389 H         1 UNK         0.0600 
    219 H219       -7.0467  -25.4800  -52.8803 H         1 UNK         0.0600 
    220 H220       -5.9405  -23.5333  -53.4582 H         1 UNK         0.3000 
    221 H221       -4.7127  -22.5078  -54.9575 H         1 UNK         0.0600 
    222 H222       -2.2410  -23.9704  -53.8869 H         1 UNK         0.0600 
    223 H223       -3.3350  -24.5666  -55.1318 H         1 UNK         0.0600 
    224 H224       -2.3745  -23.1240  -55.4186 H         1 UNK         0.0600 
    225 H225       -2.7072  -22.5016  -51.9862 H         1 UNK         0.3000 
    226 H226       -1.8751  -19.7410  -52.2562 H         1 UNK         0.0600 
    227 H227       -0.4669  -21.3890  -51.0939 H         1 UNK         0.0600 
    228 H228       -0.9219  -20.1125  -49.9753 H         1 UNK         0.0600 
    229 H229       -1.7266  -21.6747  -49.8969 H         1 UNK         0.0600 
    230 H230       -4.8326  -21.0857  -51.3322 H         1 UNK         0.3000 
    231 H231       -5.7545  -19.0170  -49.5093 H         1 UNK         0.0600 
    232 H232       -7.2707  -21.0250  -51.2687 H         1 UNK         0.0600 
    233 H233       -7.9886  -20.0227  -50.0136 H         1 UNK         0.0600 
    234 H234       -6.8227  -21.2602  -49.5788 H         1 UNK         0.0600 
    235 H235       -5.3071  -19.2787  -52.9965 H         1 UNK         0.3000 
    236 H236       -7.2008  -17.0770  -53.5882 H         1 UNK         0.0600 
    237 H237       -7.3188  -19.1934  -54.9081 H         1 UNK         0.0600 
    238 H238       -6.8937  -17.8211  -55.9178 H         1 UNK         0.0600 
    239 H239       -5.6507  -18.9657  -55.4330 H         1 UNK         0.0600 
    240 H240       -3.7972  -17.4667  -53.0075 H         1 UNK         0.3000 
    241 H241       -2.9483  -15.4459  -54.9032 H         1 UNK         0.0600 
    242 H242       -3.8939  -13.3631  -51.6199 H         1 UNK         0.3800 
    243 H243       -4.4792  -14.9859  -51.8777 H         1 UNK         0.3800 
    244 H244       -1.4571  -17.3185  -54.3890 H         1 UNK         0.0800 
    245 H245       -0.7067  -15.7718  -54.1209 H         1 UNK         0.0800 
    246 H246        0.7862  -18.1978  -53.0272 H         1 UNK         0.0800 
    247 H247        1.2593  -16.5459  -52.6915 H         1 UNK         0.0800 
@<TRIPOS>BOND
     1    1    2 1    
     2    1  127 1    
     3    1  128 1    
     4    1  129 1    
     5    2    3 2    
     6    2    4 am   BACKBONE|DICT|INTERRES
     7    4    5 1    
     8    4  130 1    
     9    5    6 1    
    10    5   65 1    
    11    5  131 1    
    12    6    7 1    
    13    6  132 1    
    14    6  133 1    
    15    7    8 1    
    16    8    9 1    
    17    8  134 1    
    18    8  135 1    
    19    9   10 ar   
    20    9   14 ar   
    21   10   11 ar   
    22   10  136 1    
    23   11   12 ar   
    24   11  126 1    
    25   12   13 ar   
    26   12  137 1    
    27   13   14 ar   
    28   13   15 1    
    29   14  138 1    
    30   15   16 1    
    31   15  139 1    
    32   15  140 1    
    33   16   17 1    
    34   17   18 1    
    35   17  141 1    
    36   17  142 1    
    37   18   19 1    
    38   18   67 1    
    39   18  143 1    
    40   19   20 am   BACKBONE|DICT|INTERRES
    41   19  144 1    
    42   20   21 2    
    43   20   22 1    
    44   22   23 1    
    45   22   24 1    
    46   22  145 1    
    47   23  146 1    
    48   23  147 1    
    49   23  148 1    
    50   24   25 am   BACKBONE|DICT|INTERRES
    51   24  149 1    
    52   25   26 2    
    53   25   27 1    
    54   27   28 1    
    55   27   29 1    
    56   27  150 1    
    57   28  151 1    
    58   28  152 1    
    59   28  153 1    
    60   29   30 am   BACKBONE|DICT|INTERRES
    61   29  154 1    
    62   30   31 2    
    63   30   32 1    
    64   32   33 1    
    65   32   34 1    
    66   32  155 1    
    67   33  156 1    
    68   33  157 1    
    69   33  158 1    
    70   34   35 am   BACKBONE|DICT|INTERRES
    71   34  159 1    
    72   35   36 2    
    73   35   37 1    
    74   37   38 1    
    75   37   39 1    
    76   37  160 1    
    77   38  161 1    
    78   38  162 1    
    79   38  163 1    
    80   39   40 am   BACKBONE|DICT|INTERRES
    81   39  164 1    
    82   40   41 2    
    83   40   42 1    
    84   42   43 1    
    85   42   44 1    
    86   42  165 1    
    87   43  166 1    
    88   43  167 1    
    89   43  168 1    
    90   44   45 am   BACKBONE|DICT|INTERRES
    91   44  169 1    
    92   45   46 2    
    93   45   47 1    
    94   47   48 1    
    95   47   49 1    
    96   47  170 1    
    97   48  171 1    
    98   48  172 1    
    99   48  173 1    
   100   49   50 am   BACKBONE|DICT|INTERRES
   101   49  174 1    
   102   50   51 2    
   103   50   52 1    
   104   52   53 1    
   105   52   54 1    
   106   52  175 1    
   107   53  176 1    
   108   53  177 1    
   109   53  178 1    
   110   54   55 am   BACKBONE|DICT|INTERRES
   111   54  179 1    
   112   55   56 2    
   113   55   57 1    
   114   57   58 1    
   115   57   59 1    
   116   57  180 1    
   117   58  181 1    
   118   58  182 1    
   119   58  183 1    
   120   59   60 am   BACKBONE|DICT|INTERRES
   121   59  184 1    
   122   60   61 2    
   123   60   62 1    
   124   62   63 1    
   125   62   64 1    
   126   62  185 1    
   127   63  186 1    
   128   63  187 1    
   129   63  188 1    
   130   64   65 am   BACKBONE|DICT|INTERRES
   131   64  189 1    
   132   65   66 2    
   133   67   68 2    
   134   67   69 am   BACKBONE|DICT|INTERRES
   135   69   70 1    
   136   69  190 1    
   137   70   71 1    
   138   70   72 1    
   139   70  191 1    
   140   71  192 1    
   141   71  193 1    
   142   71  194 1    
   143   72   73 2    
   144   72   74 am   BACKBONE|DICT|INTERRES
   145   74   75 1    
   146   74  195 1    
   147   75   76 1    
   148   75   77 1    
   149   75  196 1    
   150   76  197 1    
   151   76  198 1    
   152   76  199 1    
   153   77   78 2    
   154   77   79 am   BACKBONE|DICT|INTERRES
   155   79   80 1    
   156   79  200 1    
   157   80   81 1    
   158   80   82 1    
   159   80  201 1    
   160   81  202 1    
   161   81  203 1    
   162   81  204 1    
   163   82   83 2    
   164   82   84 am   BACKBONE|DICT|INTERRES
   165   84   85 1    
   166   84  205 1    
   167   85   86 1    
   168   85   87 1    
   169   85  206 1    
   170   86  207 1    
   171   86  208 1    
   172   86  209 1    
   173   87   88 2    
   174   87   89 am   BACKBONE|DICT|INTERRES
   175   89   90 1    
   176   89  210 1    
   177   90   91 1    
   178   90   92 1    
   179   90  211 1    
   180   91  212 1    
   181   91  213 1    
   182   91  214 1    
   183   92   93 2    
   184   92   94 am   BACKBONE|DICT|INTERRES
   185   94   95 1    
   186   94  215 1    
   187   95   96 1    
   188   95   97 1    
   189   95  216 1    
   190   96  217 1    
   191   96  218 1    
   192   96  219 1    
   193   97   98 2    
   194   97   99 am   BACKBONE|DICT|INTERRES
   195   99  100 1    
   196   99  220 1    
   197  100  101 1    
   198  100  102 1    
   199  100  221 1    
   200  101  222 1    
   201  101  223 1    
   202  101  224 1    
   203  102  103 2    
   204  102  104 am   BACKBONE|DICT|INTERRES
   205  104  105 1    
   206  104  225 1    
   207  105  106 1    
   208  105  107 1    
   209  105  226 1    
   210  106  227 1    
   211  106  228 1    
   212  106  229 1    
   213  107  108 2    
   214  107  109 am   BACKBONE|DICT|INTERRES
   215  109  110 1    
   216  109  230 1    
   217  110  111 1    
   218  110  112 1    
   219  110  231 1    
   220  111  232 1    
   221  111  233 1    
   222  111  234 1    
   223  112  113 2    
   224  112  114 am   BACKBONE|DICT|INTERRES
   225  114  115 1    
   226  114  235 1    
   227  115  116 1    
   228  115  117 1    
   229  115  236 1    
   230  116  237 1    
   231  116  238 1    
   232  116  239 1    
   233  117  118 2    
   234  117  119 am   BACKBONE|DICT|INTERRES
   235  119  120 1    
   236  119  240 1    
   237  120  121 1    
   238  120  124 1    
   239  120  241 1    
   240  121  122 am   BACKBONE|DICT|INTERRES
   241  121  123 2    
   242  122  242 1    
   243  122  243 1    
   244  124  125 1    
   245  124  244 1    
   246  124  245 1    
   247  125  126 1    
   248  126  246 1    
   249  126  247 1    
@<TRIPOS>SUBSTRUCTURE
     1 UNK         1 GROUP             0       ****    0 ROOT    
