@<TRIPOS>MOLECULE
3R540
247   249    1
SMALL
USER_CHARGES


@<TRIPOS>ATOM
      1 CA         -0.8539  -14.9370  -44.2963 C.3       0 UNK        -0.1800 
      2 C          -0.9475  -14.0344  -45.5166 C.2       0 UNK         0.5000 
      3 O          -1.7130  -13.0704  -45.5078 O.2       0 UNK        -0.5000 
      4 N          -0.1730  -14.3308  -46.5687 N.am      1 UNK        -0.5000 
      5 CA         -0.1952  -13.6014  -47.8485 C.3       1 UNK         0.1400 
      6 C6          0.1703  -14.4886  -49.0682 C.3       23 UNK        -0.0398 
      7 S7          1.6933  -15.4766  -48.8779 S.3       23 UNK        -0.2404 
      8 C8          1.0053  -17.0512  -48.2737 C.3       23 UNK        -0.0205 
      9 C9          0.7603  -18.0707  -49.3752 C.ar      23 UNK        -0.0193 
     10 C10        -0.3804  -18.0052  -50.1797 C.ar      23 UNK        -0.1150 
     11 C11        -0.6390  -18.9893  -51.1439 C.ar      23 UNK        -0.0193 
     12 C12         0.2554  -20.0574  -51.2715 C.ar      23 UNK        -0.1150 
     13 C13         1.3963  -20.1385  -50.4702 C.ar      23 UNK        -0.0193 
     14 C14         1.6534  -19.1294  -49.5414 C.ar      23 UNK        -0.1150 
     15 C15         2.3458  -21.3217  -50.5906 C.3       23 UNK        -0.0205 
     16 S16         1.6920  -22.8308  -49.8009 S.3       23 UNK        -0.2404 
     17 C17         1.4509  -22.3110  -48.0644 C.3       23 UNK        -0.0398 
     18 CA          0.0569  -22.6718  -47.4982 C.3       11 UNK         0.1400 
     19 N           0.0078  -22.4770  -46.0468 N.am      11 UNK        -0.5000 
     20 C          -0.8790  -23.0638  -45.2308 C.2       10 UNK         0.5000 
     21 O          -1.7380  -23.8537  -45.6172 O.2       10 UNK        -0.5000 
     22 CA         -0.8250  -22.6747  -43.7406 C.3       10 UNK         0.1400 
     23 CB          0.1961  -23.5444  -42.9929 C.3       10 UNK        -0.1800 
     24 N          -0.5017  -21.2625  -43.5335 N.am      10 UNK        -0.5000 
     25 C          -1.2834  -20.2433  -43.9162 C.2       9 UNK         0.5000 
     26 O          -2.3950  -20.3959  -44.4204 O.2       9 UNK        -0.5000 
     27 CA         -0.7116  -18.8199  -43.7617 C.3       9 UNK         0.1400 
     28 CB         -1.1868  -18.1958  -42.4434 C.3       9 UNK        -0.1800 
     29 N           0.7525  -18.7473  -43.8410 N.am      9 UNK        -0.5000 
     30 C           1.4773  -19.1364  -44.9011 C.2       8 UNK         0.5000 
     31 O           0.9771  -19.6245  -45.9175 O.2       8 UNK        -0.5000 
     32 CA          3.0095  -18.9917  -44.7811 C.3       8 UNK         0.1400 
     33 CB          3.7563  -19.2750  -46.1002 C.3       8 UNK        -0.1800 
     34 N           3.4619  -17.7165  -44.2169 N.am      8 UNK        -0.5000 
     35 C           3.1496  -16.4737  -44.6121 C.2       7 UNK         0.5000 
     36 O           2.2995  -16.2057  -45.4613 O.2       7 UNK        -0.5000 
     37 CA          3.9314  -15.3397  -43.9209 C.3       7 UNK         0.1400 
     38 CB          3.5631  -13.9496  -44.4645 C.3       7 UNK        -0.1800 
     39 N           3.7346  -15.3574  -42.4717 N.am      7 UNK        -0.5000 
     40 C           4.3876  -16.1569  -41.6146 C.2       6 UNK         0.5000 
     41 O           5.2421  -16.9696  -41.9713 O.2       6 UNK        -0.5000 
     42 CA          4.0218  -16.0637  -40.1192 C.3       6 UNK         0.1400 
     43 CB          5.0604  -15.2181  -39.3666 C.3       6 UNK        -0.1800 
     44 N           2.6932  -15.5049  -39.8739 N.am      6 UNK        -0.5000 
     45 C           1.5342  -16.0808  -40.2212 C.2       5 UNK         0.5000 
     46 O           1.4519  -17.1986  -40.7315 O.2       5 UNK        -0.5000 
     47 CA          0.2579  -15.2442  -39.9947 C.3       5 UNK         0.1400 
     48 CB         -0.4195  -15.6433  -38.6756 C.3       5 UNK        -0.1800 
     49 N           0.4848  -13.7926  -40.0025 N.am      5 UNK        -0.5000 
     50 C           0.9418  -13.1015  -41.0554 C.2       4 UNK         0.5000 
     51 O           1.2803  -13.6253  -42.1173 O.2       4 UNK        -0.5000 
     52 CA          1.1010  -11.5823  -40.8817 C.3       4 UNK         0.1400 
     53 CB          2.5785  -11.2250  -40.6585 C.3       4 UNK        -0.1800 
     54 N           0.6130  -10.8689  -42.0597 N.am      4 UNK        -0.5000 
     55 C          -0.6706  -10.7777  -42.4243 C.2       3 UNK         0.5000 
     56 O          -1.6002  -11.2174  -41.7460 O.2       3 UNK        -0.5000 
     57 CA         -0.9822  -10.0886  -43.7669 C.3       3 UNK         0.1400 
     58 CB         -1.0889   -8.5607  -43.6002 C.3       3 UNK        -0.1800 
     59 N          -0.0850  -10.4526  -44.8726 N.am      3 UNK        -0.5000 
     60 C           1.2096  -10.1532  -45.0623 C.2       2 UNK         0.5000 
     61 O           1.8883   -9.5171  -44.2547 O.2       2 UNK        -0.5000 
     62 CA          1.8484  -10.6816  -46.3633 C.3       2 UNK         0.1400 
     63 CB          3.3814  -10.7824  -46.2792 C.3       2 UNK        -0.1800 
     64 N           1.2815  -11.9889  -46.7032 N.am      2 UNK        -0.5000 
     65 C           0.5764  -12.2624  -47.8090 C.2       1 UNK         0.5000 
     66 O           0.4656  -11.4795  -48.7536 O.2       1 UNK        -0.5000 
     67 C          -1.1049  -21.9293  -48.1964 C.2       11 UNK         0.5000 
     68 O          -1.6681  -22.4575  -49.1578 O.2       11 UNK        -0.5000 
     69 N          -1.4945  -20.7614  -47.6598 N.am      12 UNK        -0.5000 
     70 CA         -2.6913  -20.0281  -48.0773 C.3       12 UNK         0.1400 
     71 CB         -2.7262  -18.6384  -47.4227 C.3       12 UNK        -0.1800 
     72 C          -3.9827  -20.8075  -47.7735 C.2       12 UNK         0.5000 
     73 O          -4.8282  -20.9422  -48.6576 O.2       12 UNK        -0.5000 
     74 N          -4.0851  -21.3488  -46.5503 N.am      13 UNK        -0.5000 
     75 CA         -5.1963  -22.1852  -46.0881 C.3       13 UNK         0.1400 
     76 CB         -5.0417  -22.4556  -44.5842 C.3       13 UNK        -0.1800 
     77 C          -5.3248  -23.5075  -46.8682 C.2       13 UNK         0.5000 
     78 O          -6.4417  -23.9331  -47.1630 O.2       13 UNK        -0.5000 
     79 N          -4.1817  -24.1081  -47.2272 N.am      14 UNK        -0.5000 
     80 CA         -4.0857  -25.2820  -48.0983 C.3       14 UNK         0.1400 
     81 CB         -2.7057  -25.9328  -47.9118 C.3       14 UNK        -0.1800 
     82 C          -4.3236  -24.9650  -49.5887 C.2       14 UNK         0.5000 
     83 O          -4.3562  -25.8948  -50.3957 O.2       14 UNK        -0.5000 
     84 N          -4.4492  -23.6765  -49.9401 N.am      15 UNK        -0.5000 
     85 CA         -4.6539  -23.1368  -51.2844 C.3       15 UNK         0.1400 
     86 CB         -6.0670  -23.4935  -51.7943 C.3       15 UNK        -0.1800 
     87 C          -3.5380  -23.5517  -52.2597 C.2       15 UNK         0.5000 
     88 O          -3.8303  -24.0110  -53.3651 O.2       15 UNK        -0.5000 
     89 N          -2.2782  -23.4200  -51.8181 N.am      16 UNK        -0.5000 
     90 CA         -1.0637  -23.8102  -52.5456 C.3       16 UNK         0.1400 
     91 CB         -0.8914  -22.9526  -53.8192 C.3       16 UNK        -0.1800 
     92 C          -1.0127  -25.3269  -52.8405 C.2       16 UNK         0.5000 
     93 O          -0.5084  -25.7332  -53.8878 O.2       16 UNK        -0.5000 
     94 N          -1.5638  -26.1245  -51.9118 N.am      17 UNK        -0.5000 
     95 CA         -1.8456  -27.5596  -52.0204 C.3       17 UNK         0.1400 
     96 CB         -0.5524  -28.3845  -52.1923 C.3       17 UNK        -0.1800 
     97 C          -2.9132  -27.8408  -53.0991 C.2       17 UNK         0.5000 
     98 O          -2.6926  -28.6500  -54.0021 O.2       17 UNK        -0.5000 
     99 N          -4.0542  -27.1481  -52.9639 N.am      18 UNK        -0.5000 
    100 CA        -5.2455  -27.1914  -53.8179 C.3       18 UNK         0.1400 
    101 CB        -5.9745  -28.5406  -53.6492 C.3       18 UNK        -0.1800 
    102 C         -4.9530  -26.8388  -55.2924 C.2       18 UNK         0.5000 
    103 O         -5.3473  -27.5794  -56.1963 O.2       18 UNK        -0.5000 
    104 N         -4.2582  -25.7149  -55.5034 N.am      19 UNK        -0.5000 
    105 CA        -3.8400  -25.2239  -56.8166 C.3       19 UNK         0.1400 
    106 CB        -2.3366  -25.4856  -56.9985 C.3       19 UNK        -0.1800 
    107 C         -4.1627  -23.7354  -57.0381 C.2       19 UNK         0.5000 
    108 O         -4.4086  -23.3531  -58.1835 O.2       19 UNK        -0.5000 
    109 N         -4.1638  -22.9157  -55.9779 N.am      20 UNK        -0.5000 
    110 CA        -4.3867  -21.4723  -56.0508 C.3       20 UNK         0.1400 
    111 CB        -3.1427  -20.7619  -56.6227 C.3       20 UNK        -0.1800 
    112 C         -4.7286  -20.9438  -54.6529 C.2       20 UNK         0.5000 
    113 O         -3.8384  -20.8435  -53.8093 O.2       20 UNK        -0.5000 
    114 N         -6.0088  -20.6340  -54.4164 N.am      21 UNK        -0.5000 
    115 CA        -6.4919  -20.0519  -53.1631 C.3       21 UNK         0.1400 
    116 CB        -8.0275  -20.0818  -53.1518 C.3       21 UNK        -0.1800 
    117 C         -5.9693  -18.6185  -52.9538 C.2       21 UNK         0.5000 
    118 O         -5.9351  -17.8371  -53.9078 O.2       21 UNK        -0.5000 
    119 N         -5.6041  -18.3037  -51.7079 N.am      22 UNK        -0.5000 
    120 CA        -5.1278  -16.9875  -51.2648 C.3       22 UNK         0.1400 
    121 C         -5.9381  -16.5305  -50.0251 C.2       22 UNK         0.5000 
    122 N         -6.2263  -15.2422  -49.9034 N.am      22 UNK        -0.7600 
    123 O         -6.2774  -17.3274  -49.1530 O.2       22 UNK        -0.5000 
    124 C124       -3.6134  -17.0011  -50.9351 C.3       23 UNK        -0.0398 
    125 S125       -2.5574  -17.3036  -52.3943 S.3       23 UNK        -0.2404 
    126 C126       -1.8829  -18.9640  -52.0357 C.3       23 UNK        -0.0205 
    127 H127        0.1093  -15.4421  -44.2378 H         1 UNK         0.0600 
    128 H128       -1.6394  -15.6911  -44.3314 H         1 UNK         0.0600 
    129 H129       -0.9837  -14.3541  -43.3847 H         1 UNK         0.0600 
    130 H130        0.4973  -15.0889  -46.5035 H         1 UNK         0.3000 
    131 H131       -1.2314  -13.3010  -48.0200 H         1 UNK         0.0600 
    132 H132        0.2652  -13.8867  -49.9736 H         1 UNK         0.0800 
    133 H133       -0.6628  -15.1597  -49.2697 H         1 UNK         0.0800 
    134 H134        0.0891  -16.8773  -47.7117 H         1 UNK         0.0800 
    135 H135        1.7046  -17.4699  -47.5545 H         1 UNK         0.0800 
    136 H136       -1.0708  -17.1917  -50.0371 H         1 UNK         0.1150 
    137 H137        0.0597  -20.8417  -51.9860 H         1 UNK         0.1150 
    138 H138        2.5323  -19.1902  -48.9161 H         1 UNK         0.1150 
    139 H139        2.5317  -21.5285  -51.6454 H         1 UNK         0.0800 
    140 H140        3.3160  -21.0822  -50.1523 H         1 UNK         0.0800 
    141 H141        2.2207  -22.8129  -47.4769 H         1 UNK         0.0800 
    142 H142        1.6440  -21.2474  -47.9442 H         1 UNK         0.0800 
    143 H143       -0.0946  -23.7371  -47.6846 H         1 UNK         0.0600 
    144 H144        0.6226  -21.7671  -45.6710 H         1 UNK         0.3000 
    145 H145       -1.8117  -22.8619  -43.3121 H         1 UNK         0.0600 
    146 H146        0.1875  -23.3317  -41.9237 H         1 UNK         0.0600 
    147 H147       -0.0321  -24.6043  -43.1139 H         1 UNK         0.0600 
    148 H148        1.2104  -23.3829  -43.3600 H         1 UNK         0.0600 
    149 H149        0.3928  -21.0518  -43.1167 H         1 UNK         0.3000 
    150 H150       -1.1093  -18.2213  -44.5833 H         1 UNK         0.0600 
    151 H151       -0.7909  -18.7299  -41.5788 H         1 UNK         0.0600 
    152 H152       -2.2751  -18.2107  -42.3712 H         1 UNK         0.0600 
    153 H153       -0.8722  -17.1565  -42.3689 H         1 UNK         0.0600 
    154 H154        1.2295  -18.3485  -43.0431 H         1 UNK         0.3000 
    155 H155        3.3149  -19.7605  -44.0702 H         1 UNK         0.0600 
    156 H156        3.4566  -20.2293  -46.5342 H         1 UNK         0.0600 
    157 H157        4.8322  -19.3253  -45.9334 H         1 UNK         0.0600 
    158 H158        3.5778  -18.4996  -46.8432 H         1 UNK         0.0600 
    159 H159        4.1498  -17.7874  -43.4739 H         1 UNK         0.3000 
    160 H160        4.9900  -15.4999  -44.1358 H         1 UNK         0.0600 
    161 H161        2.4981  -13.7417  -44.3664 H         1 UNK         0.0600 
    162 H162        3.8132  -13.8703  -45.5233 H         1 UNK         0.0600 
    163 H163        4.1087  -13.1670  -43.9375 H         1 UNK         0.0600 
    164 H164        2.9882  -14.7644  -42.1247 H         1 UNK         0.3000 
    165 H165        4.0424  -17.0771  -39.7129 H         1 UNK         0.0600 
    166 H166        4.8588  -15.2061  -38.2953 H         1 UNK         0.0600 
    167 H167        6.0651  -15.6210  -39.5018 H         1 UNK         0.0600 
    168 H168        5.0704  -14.1859  -39.7193 H         1 UNK         0.0600 
    169 H169        2.6591  -14.5856  -39.4594 H         1 UNK         0.3000 
    170 H170       -0.4289  -15.4702  -40.8118 H         1 UNK         0.0600 
    171 H171       -0.6287  -16.7138  -38.6525 H         1 UNK         0.0600 
    172 H172        0.2089  -15.4126  -37.8145 H         1 UNK         0.0600 
    173 H173       -1.3704  -15.1258  -38.5475 H         1 UNK         0.0600 
    174 H174        0.2381  -13.2956  -39.1585 H         1 UNK         0.3000 
    175 H175        0.5248  -11.2548  -40.0139 H         1 UNK         0.0600 
    176 H176        3.1964  -11.5211  -41.5077 H         1 UNK         0.0600 
    177 H177        2.7064  -10.1527  -40.5098 H         1 UNK         0.0600 
    178 H178        2.9739  -11.7254  -39.7737 H         1 UNK         0.0600 
    179 H179        1.3073  -10.4765  -42.6878 H         1 UNK         0.3000 
    180 H180       -1.9666  -10.4479  -44.0717 H         1 UNK         0.0600 
    181 H181       -0.1496   -8.1180  -43.2680 H         1 UNK         0.0600 
    182 H182       -1.8468   -8.3043  -42.8590 H         1 UNK         0.0600 
    183 H183       -1.3746   -8.0807  -44.5362 H         1 UNK         0.0600 
    184 H184       -0.5211  -11.0453  -45.5672 H         1 UNK         0.3000 
    185 H185        1.6081   -9.9501  -47.1371 H         1 UNK         0.0600 
    186 H186        3.7023  -11.3632  -45.4167 H         1 UNK         0.0600 
    187 H187        3.7986  -11.2447  -47.1739 H         1 UNK         0.0600 
    188 H188        3.8295   -9.7925  -46.1861 H         1 UNK         0.0600 
    189 H189        1.3065  -12.6899  -45.9762 H         1 UNK         0.3000 
    190 H190       -0.9599  -20.3794  -46.8905 H         1 UNK         0.3000 
    191 H191       -2.6345  -19.8922  -49.1581 H         1 UNK         0.0600 
    192 H192       -2.7855  -18.6972  -46.3375 H         1 UNK         0.0600 
    193 H193       -1.8420  -18.0595  -47.6769 H         1 UNK         0.0600 
    194 H194       -3.5946  -18.0714  -47.7601 H         1 UNK         0.0600 
    195 H195       -3.3646  -21.1390  -45.8639 H         1 UNK         0.3000 
    196 H196       -6.1189  -21.6213  -46.2396 H         1 UNK         0.0600 
    197 H197       -5.0228  -21.5252  -44.0162 H         1 UNK         0.0600 
    198 H198       -4.1221  -22.9990  -44.3659 H         1 UNK         0.0600 
    199 H199       -5.8735  -23.0512  -44.2062 H         1 UNK         0.0600 
    200 H200       -3.3051  -23.7400  -46.8717 H         1 UNK         0.3000 
    201 H201       -4.8467  -26.0034  -47.7944 H         1 UNK         0.0600 
    202 H202       -2.6156  -26.8446  -48.5034 H         1 UNK         0.0600 
    203 H203       -2.5365  -26.2072  -46.8705 H         1 UNK         0.0600 
    204 H204       -1.9026  -25.2620  -48.2175 H         1 UNK         0.0600 
    205 H205       -4.3822  -22.9788  -49.2094 H         1 UNK         0.3000 
    206 H206       -4.5880  -22.0520  -51.1981 H         1 UNK         0.0600 
    207 H207       -6.8337  -23.0938  -51.1308 H         1 UNK         0.0600 
    208 H208       -6.2147  -24.5708  -51.8633 H         1 UNK         0.0600 
    209 H209       -6.2486  -23.0796  -52.7862 H         1 UNK         0.0600 
    210 H210       -2.1297  -23.0500  -50.8803 H         1 UNK         0.3000 
    211 H211       -0.2278  -23.5930  -51.8818 H         1 UNK         0.0600 
    212 H212       -1.0505  -21.8945  -53.6178 H         1 UNK         0.0600 
    213 H213        0.1121  -23.0631  -54.2308 H         1 UNK         0.0600 
    214 H214       -1.5961  -23.2390  -54.5989 H         1 UNK         0.0600 
    215 H215       -1.9806  -25.6690  -51.1126 H         1 UNK         0.3000 
    216 H216       -2.2902  -27.8539  -51.0684 H         1 UNK         0.0600 
    217 H217       -0.0732  -28.2041  -53.1546 H         1 UNK         0.0600 
    218 H218        0.1693  -28.1536  -51.4089 H         1 UNK         0.0600 
    219 H219       -0.7656  -29.4524  -52.1333 H         1 UNK         0.0600 
    220 H220       -4.1287  -26.5312  -52.1584 H         1 UNK         0.3000 
    221 H221       -5.9126  -26.4119  -53.4486 H         1 UNK         0.0600 
    222 H222       -5.3762  -29.3737  -54.0192 H         1 UNK         0.0600 
    223 H223       -6.2063  -28.7337  -52.6017 H         1 UNK         0.0600 
    224 H224       -6.9183  -28.5463  -54.1956 H         1 UNK         0.0600 
    225 H225       -3.9987  -25.1508  -54.6952 H         1 UNK         0.3000 
    226 H226       -4.3692  -25.7675  -57.6019 H         1 UNK         0.0600 
    227 H227       -2.1099  -26.5489  -56.9171 H         1 UNK         0.0600 
    228 H228       -1.9959  -25.1527  -57.9796 H         1 UNK         0.0600 
    229 H229       -1.7440  -24.9617  -56.2489 H         1 UNK         0.0600 
    230 H230       -3.9846  -23.2806  -55.0445 H         1 UNK         0.3000 
    231 H231       -5.2334  -21.2741  -56.7114 H         1 UNK         0.0600 
    232 H232       -3.2715  -19.6789  -56.6077 H         1 UNK         0.0600 
    233 H233       -2.9562  -21.0502  -57.6569 H         1 UNK         0.0600 
    234 H234       -2.2471  -20.9939  -56.0448 H         1 UNK         0.0600 
    235 H235       -6.6842  -20.7219  -55.1613 H         1 UNK         0.3000 
    236 H236       -6.1351  -20.6703  -52.3390 H         1 UNK         0.0600 
    237 H237       -8.4027  -21.1015  -53.2413 H         1 UNK         0.0600 
    238 H238       -8.4190  -19.6732  -52.2193 H         1 UNK         0.0600 
    239 H239       -8.4476  -19.4947  -53.9695 H         1 UNK         0.0600 
    240 H240       -5.7291  -18.9768  -50.9638 H         1 UNK         0.3000 
    241 H241       -5.2986  -16.2510  -52.0526 H         1 UNK         0.0600 
    242 H242       -5.9547  -14.5674  -50.6021 H         1 UNK         0.3800 
    243 H243       -6.7427  -14.9326  -49.0946 H         1 UNK         0.3800 
    244 H244       -3.3089  -16.0406  -50.5154 H         1 UNK         0.0800 
    245 H245       -3.4028  -17.7465  -50.1685 H         1 UNK         0.0800 
    246 H246       -1.6374  -19.4201  -52.9958 H         1 UNK         0.0800 
    247 H247       -2.6592  -19.5923  -51.5973 H         1 UNK         0.0800 
@<TRIPOS>BOND
     1    1    2 1    
     2    1  127 1    
     3    1  128 1    
     4    1  129 1    
     5    2    3 2    
     6    2    4 am   BACKBONE|DICT|INTERRES
     7    4    5 1    
     8    4  130 1    
     9    5    6 1    
    10    5   65 1    
    11    5  131 1    
    12    6    7 1    
    13    6  132 1    
    14    6  133 1    
    15    7    8 1    
    16    8    9 1    
    17    8  134 1    
    18    8  135 1    
    19    9   10 ar   
    20    9   14 ar   
    21   10   11 ar   
    22   10  136 1    
    23   11   12 ar   
    24   11  126 1    
    25   12   13 ar   
    26   12  137 1    
    27   13   14 ar   
    28   13   15 1    
    29   14  138 1    
    30   15   16 1    
    31   15  139 1    
    32   15  140 1    
    33   16   17 1    
    34   17   18 1    
    35   17  141 1    
    36   17  142 1    
    37   18   19 1    
    38   18   67 1    
    39   18  143 1    
    40   19   20 am   BACKBONE|DICT|INTERRES
    41   19  144 1    
    42   20   21 2    
    43   20   22 1    
    44   22   23 1    
    45   22   24 1    
    46   22  145 1    
    47   23  146 1    
    48   23  147 1    
    49   23  148 1    
    50   24   25 am   BACKBONE|DICT|INTERRES
    51   24  149 1    
    52   25   26 2    
    53   25   27 1    
    54   27   28 1    
    55   27   29 1    
    56   27  150 1    
    57   28  151 1    
    58   28  152 1    
    59   28  153 1    
    60   29   30 am   BACKBONE|DICT|INTERRES
    61   29  154 1    
    62   30   31 2    
    63   30   32 1    
    64   32   33 1    
    65   32   34 1    
    66   32  155 1    
    67   33  156 1    
    68   33  157 1    
    69   33  158 1    
    70   34   35 am   BACKBONE|DICT|INTERRES
    71   34  159 1    
    72   35   36 2    
    73   35   37 1    
    74   37   38 1    
    75   37   39 1    
    76   37  160 1    
    77   38  161 1    
    78   38  162 1    
    79   38  163 1    
    80   39   40 am   BACKBONE|DICT|INTERRES
    81   39  164 1    
    82   40   41 2    
    83   40   42 1    
    84   42   43 1    
    85   42   44 1    
    86   42  165 1    
    87   43  166 1    
    88   43  167 1    
    89   43  168 1    
    90   44   45 am   BACKBONE|DICT|INTERRES
    91   44  169 1    
    92   45   46 2    
    93   45   47 1    
    94   47   48 1    
    95   47   49 1    
    96   47  170 1    
    97   48  171 1    
    98   48  172 1    
    99   48  173 1    
   100   49   50 am   BACKBONE|DICT|INTERRES
   101   49  174 1    
   102   50   51 2    
   103   50   52 1    
   104   52   53 1    
   105   52   54 1    
   106   52  175 1    
   107   53  176 1    
   108   53  177 1    
   109   53  178 1    
   110   54   55 am   BACKBONE|DICT|INTERRES
   111   54  179 1    
   112   55   56 2    
   113   55   57 1    
   114   57   58 1    
   115   57   59 1    
   116   57  180 1    
   117   58  181 1    
   118   58  182 1    
   119   58  183 1    
   120   59   60 am   BACKBONE|DICT|INTERRES
   121   59  184 1    
   122   60   61 2    
   123   60   62 1    
   124   62   63 1    
   125   62   64 1    
   126   62  185 1    
   127   63  186 1    
   128   63  187 1    
   129   63  188 1    
   130   64   65 am   BACKBONE|DICT|INTERRES
   131   64  189 1    
   132   65   66 2    
   133   67   68 2    
   134   67   69 am   BACKBONE|DICT|INTERRES
   135   69   70 1    
   136   69  190 1    
   137   70   71 1    
   138   70   72 1    
   139   70  191 1    
   140   71  192 1    
   141   71  193 1    
   142   71  194 1    
   143   72   73 2    
   144   72   74 am   BACKBONE|DICT|INTERRES
   145   74   75 1    
   146   74  195 1    
   147   75   76 1    
   148   75   77 1    
   149   75  196 1    
   150   76  197 1    
   151   76  198 1    
   152   76  199 1    
   153   77   78 2    
   154   77   79 am   BACKBONE|DICT|INTERRES
   155   79   80 1    
   156   79  200 1    
   157   80   81 1    
   158   80   82 1    
   159   80  201 1    
   160   81  202 1    
   161   81  203 1    
   162   81  204 1    
   163   82   83 2    
   164   82   84 am   BACKBONE|DICT|INTERRES
   165   84   85 1    
   166   84  205 1    
   167   85   86 1    
   168   85   87 1    
   169   85  206 1    
   170   86  207 1    
   171   86  208 1    
   172   86  209 1    
   173   87   88 2    
   174   87   89 am   BACKBONE|DICT|INTERRES
   175   89   90 1    
   176   89  210 1    
   177   90   91 1    
   178   90   92 1    
   179   90  211 1    
   180   91  212 1    
   181   91  213 1    
   182   91  214 1    
   183   92   93 2    
   184   92   94 am   BACKBONE|DICT|INTERRES
   185   94   95 1    
   186   94  215 1    
   187   95   96 1    
   188   95   97 1    
   189   95  216 1    
   190   96  217 1    
   191   96  218 1    
   192   96  219 1    
   193   97   98 2    
   194   97   99 am   BACKBONE|DICT|INTERRES
   195   99  100 1    
   196   99  220 1    
   197  100  101 1    
   198  100  102 1    
   199  100  221 1    
   200  101  222 1    
   201  101  223 1    
   202  101  224 1    
   203  102  103 2    
   204  102  104 am   BACKBONE|DICT|INTERRES
   205  104  105 1    
   206  104  225 1    
   207  105  106 1    
   208  105  107 1    
   209  105  226 1    
   210  106  227 1    
   211  106  228 1    
   212  106  229 1    
   213  107  108 2    
   214  107  109 am   BACKBONE|DICT|INTERRES
   215  109  110 1    
   216  109  230 1    
   217  110  111 1    
   218  110  112 1    
   219  110  231 1    
   220  111  232 1    
   221  111  233 1    
   222  111  234 1    
   223  112  113 2    
   224  112  114 am   BACKBONE|DICT|INTERRES
   225  114  115 1    
   226  114  235 1    
   227  115  116 1    
   228  115  117 1    
   229  115  236 1    
   230  116  237 1    
   231  116  238 1    
   232  116  239 1    
   233  117  118 2    
   234  117  119 am   BACKBONE|DICT|INTERRES
   235  119  120 1    
   236  119  240 1    
   237  120  121 1    
   238  120  124 1    
   239  120  241 1    
   240  121  122 am   BACKBONE|DICT|INTERRES
   241  121  123 2    
   242  122  242 1    
   243  122  243 1    
   244  124  125 1    
   245  124  244 1    
   246  124  245 1    
   247  125  126 1    
   248  126  246 1    
   249  126  247 1    
@<TRIPOS>SUBSTRUCTURE
     1 UNK         1 GROUP             0       ****    0 ROOT    
