@<TRIPOS>MOLECULE
3R540
247   249    1
SMALL
USER_CHARGES


@<TRIPOS>ATOM
      1 CA         -4.3361  -15.5944  -46.5886 C.3       0 UNK        -0.1800 
      2 C          -3.5549  -14.4732  -47.2575 C.2       0 UNK         0.5000 
      3 O          -4.1211  -13.4191  -47.5481 O.2       0 UNK        -0.5000 
      4 N          -2.2567  -14.6902  -47.4988 N.am      1 UNK        -0.5000 
      5 CA         -1.3280  -13.7788  -48.1798 C.3       1 UNK         0.1400 
      6 C6         -0.1596  -14.5414  -48.8610 C.3       23 UNK        -0.0398 
      7 S7          0.6704  -15.7820  -47.8076 S.3       23 UNK        -0.2404 
      8 C8          2.0823  -16.2247  -48.8636 C.3       23 UNK        -0.0205 
      9 C9          1.7849  -17.4300  -49.7444 C.ar      23 UNK        -0.0193 
     10 C10         1.1148  -17.2857  -50.9641 C.ar      23 UNK        -0.1150 
     11 C11         0.8967  -18.3935  -51.7913 C.ar      23 UNK        -0.0193 
     12 C12         1.3561  -19.6507  -51.3859 C.ar      23 UNK        -0.1150 
     13 C13         2.0059  -19.8155  -50.1590 C.ar      23 UNK        -0.0193 
     14 C14         2.2215  -18.6959  -49.3488 C.ar      23 UNK        -0.1150 
     15 C15         2.5066  -21.1981  -49.7467 C.3       23 UNK        -0.0205 
     16 S16         2.3053  -21.5565  -47.9683 S.3       23 UNK        -0.2404 
     17 C17         0.4911  -21.5193  -47.7890 C.3       23 UNK        -0.0398 
     18 CA         -0.0283  -22.7629  -47.0345 C.3       11 UNK         0.1400 
     19 N           0.3369  -22.7193  -45.6181 N.am      11 UNK        -0.5000 
     20 C           0.2400  -23.7423  -44.7613 C.2       10 UNK         0.5000 
     21 O          -0.2445  -24.8351  -45.0546 O.2       10 UNK        -0.5000 
     22 CA          0.7609  -23.4912  -43.3373 C.3       10 UNK         0.1400 
     23 CB          2.2970  -23.5228  -43.3033 C.3       10 UNK        -0.1800 
     24 N           0.2911  -22.2056  -42.8250 N.am      10 UNK        -0.5000 
     25 C          -0.8937  -22.0227  -42.2275 C.2       9 UNK         0.5000 
     26 O          -1.6859  -22.9345  -41.9873 O.2       9 UNK        -0.5000 
     27 CA         -1.2693  -20.5769  -41.8440 C.3       9 UNK         0.1400 
     28 CB         -0.7570  -20.2467  -40.4339 C.3       9 UNK        -0.1800 
     29 N          -0.7775  -19.5636  -42.7795 N.am      9 UNK        -0.5000 
     30 C          -1.0934  -19.5031  -44.0806 C.2       8 UNK         0.5000 
     31 O          -1.8386  -20.3021  -44.6429 O.2       8 UNK        -0.5000 
     32 CA         -0.4225  -18.3940  -44.9078 C.3       8 UNK         0.1400 
     33 CB         -1.1795  -17.0708  -44.7211 C.3       8 UNK        -0.1800 
     34 N           0.9966  -18.2072  -44.6012 N.am      8 UNK        -0.5000 
     35 C           1.9343  -19.1673  -44.6274 C.2       7 UNK         0.5000 
     36 O           1.7007  -20.3536  -44.8540 O.2       7 UNK        -0.5000 
     37 CA          3.3668  -18.7360  -44.2860 C.3       7 UNK         0.1400 
     38 CB          4.0069  -17.9686  -45.4537 C.3       7 UNK        -0.1800 
     39 N           3.3742  -17.9158  -43.0772 N.am      7 UNK        -0.5000 
     40 C           3.2734  -18.4144  -41.8363 C.2       6 UNK         0.5000 
     41 O           3.2773  -19.6186  -41.5793 O.2       6 UNK        -0.5000 
     42 CA          3.1166  -17.3989  -40.6886 C.3       6 UNK         0.1400 
     43 CB          4.4914  -16.9754  -40.1501 C.3       6 UNK        -0.1800 
     44 N           2.3642  -16.2053  -41.0778 N.am      6 UNK        -0.5000 
     45 C           1.0651  -16.1970  -41.4083 C.2       5 UNK         0.5000 
     46 O           0.3481  -17.1978  -41.3971 O.2       5 UNK        -0.5000 
     47 CA          0.4828  -14.8482  -41.8697 C.3       5 UNK         0.1400 
     48 CB         -0.0185  -14.0353  -40.6675 C.3       5 UNK        -0.1800 
     49 N           1.4199  -14.0313  -42.6435 N.am      5 UNK        -0.5000 
     50 C           2.0033  -14.3806  -43.7979 C.2       4 UNK         0.5000 
     51 O           1.8776  -15.4961  -44.3038 O.2       4 UNK        -0.5000 
     52 CA          2.8725  -13.3044  -44.4839 C.3       4 UNK         0.1400 
     53 CB          3.3297  -13.7115  -45.8952 C.3       4 UNK        -0.1800 
     54 N           2.1850  -12.0125  -44.5588 N.am      4 UNK        -0.5000 
     55 C           2.1115  -11.1226  -43.5588 C.2       3 UNK         0.5000 
     56 O           2.6302  -11.3063  -42.4567 O.2       3 UNK        -0.5000 
     57 CA          1.3089   -9.8304  -43.7994 C.3       3 UNK         0.1400 
     58 CB          2.2558   -8.6655  -44.1261 C.3       3 UNK        -0.1800 
     59 N           0.3059   -9.9347  -44.8591 N.am      3 UNK        -0.5000 
     60 C          -0.8042  -10.6837  -44.8128 C.2       2 UNK         0.5000 
     61 O          -1.0998  -11.4121  -43.8641 O.2       2 UNK        -0.5000 
     62 CA         -1.7585  -10.5948  -46.0227 C.3       2 UNK         0.1400 
     63 CB         -1.4294   -9.4455  -47.0028 C.3       2 UNK        -0.1800 
     64 N          -1.8643  -11.8552  -46.7598 N.am      2 UNK        -0.5000 
     65 C          -0.8780  -12.5876  -47.2958 C.2       1 UNK         0.5000 
     66 O           0.3186  -12.3308  -47.1452 O.2       1 UNK        -0.5000 
     67 C          -1.5369  -22.9832  -47.2662 C.2       11 UNK         0.5000 
     68 O          -1.8960  -23.6340  -48.2462 O.2       11 UNK        -0.5000 
     69 N          -2.4002  -22.4970  -46.3634 N.am      12 UNK        -0.5000 
     70 CA         -3.8497  -22.7070  -46.4207 C.3       12 UNK         0.1400 
     71 CB         -4.5385  -21.8709  -45.3328 C.3       12 UNK        -0.1800 
     72 C          -4.2474  -24.1905  -46.2989 C.2       12 UNK         0.5000 
     73 O          -5.1745  -24.6283  -46.9805 O.2       12 UNK        -0.5000 
     74 N          -3.5036  -24.9531  -45.4837 N.am      13 UNK        -0.5000 
     75 CA         -3.6673  -26.4013  -45.3261 C.3       13 UNK         0.1400 
     76 CB         -2.9317  -26.8620  -44.0587 C.3       13 UNK        -0.1800 
     77 C          -3.1894  -27.1967  -46.5584 C.2       13 UNK         0.5000 
     78 O          -3.6531  -28.3167  -46.7732 O.2       13 UNK        -0.5000 
     79 N          -2.3019  -26.5939  -47.3610 N.am      14 UNK        -0.5000 
     80 CA         -1.8227  -27.1127  -48.6433 C.3       14 UNK         0.1400 
     81 CB         -0.3634  -26.6655  -48.8398 C.3       14 UNK        -0.1800 
     82 C          -2.7070  -26.6702  -49.8310 C.2       14 UNK         0.5000 
     83 O          -2.3548  -26.9587  -50.9752 O.2       14 UNK        -0.5000 
     84 N          -3.8241  -25.9800  -49.5472 N.am      15 UNK        -0.5000 
     85 CA         -4.7872  -25.4042  -50.4928 C.3       15 UNK         0.1400 
     86 CB         -5.4770  -26.4999  -51.3332 C.3       15 UNK        -0.1800 
     87 C          -4.1915  -24.2666  -51.3482 C.2       15 UNK         0.5000 
     88 O          -4.5635  -24.1077  -52.5116 O.2       15 UNK        -0.5000 
     89 N          -3.2842  -23.4912  -50.7475 N.am      16 UNK        -0.5000 
     90 CA         -2.6817  -22.2880  -51.3052 C.3       16 UNK         0.1400 
     91 CB         -1.1692  -22.5395  -51.4740 C.3       16 UNK        -0.1800 
     92 C          -3.0308  -21.1011  -50.3826 C.2       16 UNK         0.5000 
     93 O          -4.1725  -21.0052  -49.9278 O.2       16 UNK        -0.5000 
     94 N          -2.0589  -20.2127  -50.1302 N.am      17 UNK        -0.5000 
     95 CA         -2.1136  -18.9707  -49.3457 C.3       17 UNK         0.1400 
     96 CB         -2.5939  -19.2112  -47.9032 C.3       17 UNK        -0.1800 
     97 C          -2.9227  -17.8435  -50.0117 C.2       17 UNK         0.5000 
     98 O          -2.4265  -16.7232  -50.1058 O.2       17 UNK        -0.5000 
     99 N          -4.1392  -18.1446  -50.4697 N.am      18 UNK        -0.5000 
    100 CA        -5.0093  -17.2259  -51.1896 C.3       18 UNK         0.1400 
    101 CB        -5.8727  -16.4248  -50.1996 C.3       18 UNK        -0.1800 
    102 C         -5.8613  -18.0460  -52.1617 C.2       18 UNK         0.5000 
    103 O         -6.5937  -18.9344  -51.7200 O.2       18 UNK        -0.5000 
    104 N         -5.7377  -17.7333  -53.4596 N.am      19 UNK        -0.5000 
    105 CA        -6.3570  -18.4259  -54.5958 C.3       19 UNK         0.1400 
    106 CB        -7.8890  -18.2237  -54.5817 C.3       19 UNK        -0.1800 
    107 C         -5.9319  -19.9099  -54.6890 C.2       19 UNK         0.5000 
    108 O         -4.8766  -20.2775  -54.1648 O.2       19 UNK        -0.5000 
    109 N         -6.7405  -20.7262  -55.3822 N.am      20 UNK        -0.5000 
    110 CA        -6.5693  -22.1679  -55.5890 C.3       20 UNK         0.1400 
    111 CB        -6.9230  -22.9287  -54.2953 C.3       20 UNK        -0.1800 
    112 C         -5.1830  -22.5017  -56.1797 C.2       20 UNK         0.5000 
    113 O         -4.9273  -22.1287  -57.3270 O.2       20 UNK        -0.5000 
    114 N         -4.2971  -23.1411  -55.4015 N.am      21 UNK        -0.5000 
    115 CA        -2.9298  -23.4735  -55.8139 C.3       21 UNK         0.1400 
    116 CB        -2.3027  -24.4310  -54.7925 C.3       21 UNK        -0.1800 
    117 C         -2.0171  -22.2518  -56.0625 C.2       21 UNK         0.5000 
    118 O         -1.0037  -22.4043  -56.7465 O.2       21 UNK        -0.5000 
    119 N         -2.3887  -21.0665  -55.5541 N.am      22 UNK        -0.5000 
    120 CA        -1.7563  -19.7856  -55.9213 C.3       22 UNK         0.1400 
    121 C         -2.1522  -19.2717  -57.3396 C.2       22 UNK         0.5000 
    122 N         -3.1340  -19.8505  -58.0234 N.am      22 UNK        -0.7600 
    123 O         -1.5478  -18.3253  -57.8364 O.2       22 UNK        -0.5000 
    124 C124       -1.9891  -18.6720  -54.8662 C.3       23 UNK        -0.0398 
    125 S125       -1.3904  -19.1071  -53.2013 S.3       23 UNK        -0.2404 
    126 C126        0.2043  -18.2298  -53.1395 C.3       23 UNK        -0.0205 
    127 H127       -3.9148  -16.5696  -46.8267 H         1 UNK         0.0600 
    128 H128       -5.3724  -15.5893  -46.9270 H         1 UNK         0.0600 
    129 H129       -4.3286  -15.4660  -45.5063 H         1 UNK         0.0600 
    130 H130       -1.8405  -15.5690  -47.2280 H         1 UNK         0.3000 
    131 H131       -1.8858  -13.3158  -48.9967 H         1 UNK         0.0600 
    132 H132       -0.5426  -15.0624  -49.7367 H         1 UNK         0.0800 
    133 H133        0.5819  -13.8423  -49.2511 H         1 UNK         0.0800 
    134 H134        2.3825  -15.3753  -49.4782 H         1 UNK         0.0800 
    135 H135        2.9355  -16.4376  -48.2177 H         1 UNK         0.0800 
    136 H136        0.7791  -16.3075  -51.2767 H         1 UNK         0.1150 
    137 H137        1.2165  -20.5007  -52.0380 H         1 UNK         0.1150 
    138 H138        2.7439  -18.8054  -48.4095 H         1 UNK         0.1150 
    139 H139        2.0004  -21.9774  -50.3187 H         1 UNK         0.0800 
    140 H140        3.5654  -21.2692  -49.9978 H         1 UNK         0.0800 
    141 H141        0.2181  -20.6034  -47.2652 H         1 UNK         0.0800 
    142 H142        0.0447  -21.4449  -48.7782 H         1 UNK         0.0800 
    143 H143        0.4641  -23.6396  -47.4612 H         1 UNK         0.0600 
    144 H144        0.7802  -21.8587  -45.3019 H         1 UNK         0.3000 
    145 H145        0.3951  -24.2963  -42.6964 H         1 UNK         0.0600 
    146 H146        2.6699  -23.3929  -42.2872 H         1 UNK         0.0600 
    147 H147        2.6750  -24.4780  -43.6697 H         1 UNK         0.0600 
    148 H148        2.7344  -22.7378  -43.9214 H         1 UNK         0.0600 
    149 H149        0.8579  -21.3955  -43.0408 H         1 UNK         0.3000 
    150 H150       -2.3593  -20.5143  -41.8360 H         1 UNK         0.0600 
    151 H151       -1.1042  -20.9821  -39.7070 H         1 UNK         0.0600 
    152 H152       -1.1139  -19.2708  -40.1041 H         1 UNK         0.0600 
    153 H153        0.3333  -20.2336  -40.3968 H         1 UNK         0.0600 
    154 H154       -0.1883  -18.8336  -42.3896 H         1 UNK         0.3000 
    155 H155       -0.4769  -18.6744  -45.9599 H         1 UNK         0.0600 
    156 H156       -0.6990  -16.2492  -45.2503 H         1 UNK         0.0600 
    157 H157       -1.2459  -16.7966  -43.6695 H         1 UNK         0.0600 
    158 H158       -2.1999  -17.1535  -45.0943 H         1 UNK         0.0600 
    159 H159        1.2942  -17.2500  -44.4252 H         1 UNK         0.3000 
    160 H160        3.9613  -19.6353  -44.1103 H         1 UNK         0.0600 
    161 H161        3.4287  -17.0878  -45.7320 H         1 UNK         0.0600 
    162 H162        4.0771  -18.6033  -46.3377 H         1 UNK         0.0600 
    163 H163        5.0172  -17.6430  -45.2063 H         1 UNK         0.0600 
    164 H164        3.2920  -16.9173  -43.2093 H         1 UNK         0.3000 
    165 H165        2.5704  -17.8936  -39.8825 H         1 UNK         0.0600 
    166 H166        5.0772  -16.4521  -40.9069 H         1 UNK         0.0600 
    167 H167        4.3915  -16.3169  -39.2870 H         1 UNK         0.0600 
    168 H168        5.0692  -17.8435  -39.8298 H         1 UNK         0.0600 
    169 H169        2.8747  -15.3356  -41.1199 H         1 UNK         0.3000 
    170 H170       -0.3722  -15.0554  -42.5134 H         1 UNK         0.0600 
    171 H171       -0.7394  -14.6074  -40.0819 H         1 UNK         0.0600 
    172 H172        0.7986  -13.7546  -40.0017 H         1 UNK         0.0600 
    173 H173       -0.5167  -13.1211  -40.9917 H         1 UNK         0.0600 
    174 H174        1.6059  -13.0979  -42.2954 H         1 UNK         0.3000 
    175 H175        3.7712  -13.1926  -43.8741 H         1 UNK         0.0600 
    176 H176        2.4828  -13.8452  -46.5668 H         1 UNK         0.0600 
    177 H177        3.9835  -12.9560  -46.3306 H         1 UNK         0.0600 
    178 H178        3.8867  -14.6486  -45.8758 H         1 UNK         0.0600 
    179 H179        1.6658  -11.8328  -45.4107 H         1 UNK         0.3000 
    180 H180        0.7879   -9.5952  -42.8690 H         1 UNK         0.0600 
    181 H181        1.7108   -7.7252  -44.2126 H         1 UNK         0.0600 
    182 H182        3.0017   -8.5352  -43.3407 H         1 UNK         0.0600 
    183 H183        2.7906   -8.8324  -45.0620 H         1 UNK         0.0600 
    184 H184        0.4734   -9.3860  -45.6899 H         1 UNK         0.3000 
    185 H185       -2.7487  -10.3979  -45.6095 H         1 UNK         0.0600 
    186 H186       -1.4036   -8.4826  -46.4907 H         1 UNK         0.0600 
    187 H187       -0.4694   -9.5891  -47.5002 H         1 UNK         0.0600 
    188 H188       -2.1907   -9.3703  -47.7794 H         1 UNK         0.0600 
    189 H189       -2.8102  -12.1897  -46.9251 H         1 UNK         0.3000 
    190 H190       -2.0574  -21.9054  -45.6098 H         1 UNK         0.3000 
    191 H191       -4.1995  -22.3519  -47.3924 H         1 UNK         0.0600 
    192 H192       -5.6167  -22.0355  -45.3339 H         1 UNK         0.0600 
    193 H193       -4.3747  -20.8055  -45.4958 H         1 UNK         0.0600 
    194 H194       -4.1658  -22.1195  -44.3382 H         1 UNK         0.0600 
    195 H195       -2.7283  -24.5288  -44.9926 H         1 UNK         0.3000 
    196 H196       -4.7309  -26.6104  -45.1931 H         1 UNK         0.0600 
    197 H197       -3.1023  -27.9234  -43.8747 H         1 UNK         0.0600 
    198 H198       -3.2802  -26.3198  -43.1794 H         1 UNK         0.0600 
    199 H199       -1.8547  -26.7149  -44.1391 H         1 UNK         0.0600 
    200 H200       -1.9889  -25.6638  -47.1170 H         1 UNK         0.3000 
    201 H201       -1.8377  -28.2041  -48.6188 H         1 UNK         0.0600 
    202 H202        0.2554  -26.9475  -47.9877 H         1 UNK         0.0600 
    203 H203       -0.2834  -25.5865  -48.9702 H         1 UNK         0.0600 
    204 H204        0.0720  -27.1319  -49.7241 H         1 UNK         0.0600 
    205 H205       -4.0134  -25.7794  -48.5739 H         1 UNK         0.3000 
    206 H206       -5.5583  -24.9363  -49.8793 H         1 UNK         0.0600 
    207 H207       -5.8886  -27.2843  -50.6982 H         1 UNK         0.0600 
    208 H208       -6.3031  -26.0840  -51.9111 H         1 UNK         0.0600 
    209 H209       -4.7892  -26.9641  -52.0402 H         1 UNK         0.0600 
    210 H210       -3.0191  -23.6924  -49.7871 H         1 UNK         0.3000 
    211 H211       -3.1071  -22.0602  -52.2850 H         1 UNK         0.0600 
    212 H212       -0.6627  -22.6466  -50.5168 H         1 UNK         0.0600 
    213 H213       -0.6939  -21.7343  -52.0299 H         1 UNK         0.0600 
    214 H214       -0.9789  -23.4579  -52.0272 H         1 UNK         0.0600 
    215 H215       -1.1870  -20.3451  -50.6227 H         1 UNK         0.3000 
    216 H216       -1.0812  -18.6217  -49.2866 H         1 UNK         0.0600 
    217 H217       -2.4696  -18.3103  -47.3050 H         1 UNK         0.0600 
    218 H218       -2.0219  -19.9981  -47.4204 H         1 UNK         0.0600 
    219 H219       -3.6469  -19.4888  -47.8560 H         1 UNK         0.0600 
    220 H220       -4.4742  -19.1007  -50.3784 H         1 UNK         0.3000 
    221 H221       -4.4012  -16.5250  -51.7661 H         1 UNK         0.0600 
    222 H222       -6.4592  -17.0804  -49.5549 H         1 UNK         0.0600 
    223 H223       -5.2546  -15.7927  -49.5624 H         1 UNK         0.0600 
    224 H224       -6.5681  -15.7719  -50.7282 H         1 UNK         0.0600 
    225 H225       -5.0906  -16.9993  -53.7092 H         1 UNK         0.3000 
    226 H226       -5.9657  -17.9431  -55.4923 H         1 UNK         0.0600 
    227 H227       -8.1445  -17.1742  -54.4346 H         1 UNK         0.0600 
    228 H228       -8.3415  -18.5285  -55.5257 H         1 UNK         0.0600 
    229 H229       -8.3667  -18.7958  -53.7854 H         1 UNK         0.0600 
    230 H230       -7.5607  -20.3240  -55.8127 H         1 UNK         0.3000 
    231 H231       -7.2938  -22.4650  -56.3486 H         1 UNK         0.0600 
    232 H232       -6.7336  -23.9986  -54.3921 H         1 UNK         0.0600 
    233 H233       -7.9799  -22.8115  -54.0566 H         1 UNK         0.0600 
    234 H234       -6.3578  -22.5585  -53.4405 H         1 UNK         0.0600 
    235 H235       -4.5535  -23.3848  -54.4489 H         1 UNK         0.3000 
    236 H236       -2.9997  -24.0084  -56.7633 H         1 UNK         0.0600 
    237 H237       -2.8974  -25.3379  -54.6813 H         1 UNK         0.0600 
    238 H238       -1.2997  -24.7327  -55.0966 H         1 UNK         0.0600 
    239 H239       -2.2230  -23.9633  -53.8145 H         1 UNK         0.0600 
    240 H240       -3.2394  -21.0007  -55.0025 H         1 UNK         0.3000 
    241 H241       -0.6786  -19.9545  -55.9633 H         1 UNK         0.0600 
    242 H242       -3.6477  -20.6434  -57.6534 H         1 UNK         0.3800 
    243 H243       -3.3630  -19.5011  -58.9404 H         1 UNK         0.3800 
    244 H244       -1.5069  -17.7427  -55.1743 H         1 UNK         0.0800 
    245 H245       -3.0518  -18.4414  -54.7906 H         1 UNK         0.0800 
    246 H246        0.0385  -17.1733  -53.3554 H         1 UNK         0.0800 
    247 H247        0.8563  -18.6110  -53.9267 H         1 UNK         0.0800 
@<TRIPOS>BOND
     1    1    2 1    
     2    1  127 1    
     3    1  128 1    
     4    1  129 1    
     5    2    3 2    
     6    2    4 am   BACKBONE|DICT|INTERRES
     7    4    5 1    
     8    4  130 1    
     9    5    6 1    
    10    5   65 1    
    11    5  131 1    
    12    6    7 1    
    13    6  132 1    
    14    6  133 1    
    15    7    8 1    
    16    8    9 1    
    17    8  134 1    
    18    8  135 1    
    19    9   10 ar   
    20    9   14 ar   
    21   10   11 ar   
    22   10  136 1    
    23   11   12 ar   
    24   11  126 1    
    25   12   13 ar   
    26   12  137 1    
    27   13   14 ar   
    28   13   15 1    
    29   14  138 1    
    30   15   16 1    
    31   15  139 1    
    32   15  140 1    
    33   16   17 1    
    34   17   18 1    
    35   17  141 1    
    36   17  142 1    
    37   18   19 1    
    38   18   67 1    
    39   18  143 1    
    40   19   20 am   BACKBONE|DICT|INTERRES
    41   19  144 1    
    42   20   21 2    
    43   20   22 1    
    44   22   23 1    
    45   22   24 1    
    46   22  145 1    
    47   23  146 1    
    48   23  147 1    
    49   23  148 1    
    50   24   25 am   BACKBONE|DICT|INTERRES
    51   24  149 1    
    52   25   26 2    
    53   25   27 1    
    54   27   28 1    
    55   27   29 1    
    56   27  150 1    
    57   28  151 1    
    58   28  152 1    
    59   28  153 1    
    60   29   30 am   BACKBONE|DICT|INTERRES
    61   29  154 1    
    62   30   31 2    
    63   30   32 1    
    64   32   33 1    
    65   32   34 1    
    66   32  155 1    
    67   33  156 1    
    68   33  157 1    
    69   33  158 1    
    70   34   35 am   BACKBONE|DICT|INTERRES
    71   34  159 1    
    72   35   36 2    
    73   35   37 1    
    74   37   38 1    
    75   37   39 1    
    76   37  160 1    
    77   38  161 1    
    78   38  162 1    
    79   38  163 1    
    80   39   40 am   BACKBONE|DICT|INTERRES
    81   39  164 1    
    82   40   41 2    
    83   40   42 1    
    84   42   43 1    
    85   42   44 1    
    86   42  165 1    
    87   43  166 1    
    88   43  167 1    
    89   43  168 1    
    90   44   45 am   BACKBONE|DICT|INTERRES
    91   44  169 1    
    92   45   46 2    
    93   45   47 1    
    94   47   48 1    
    95   47   49 1    
    96   47  170 1    
    97   48  171 1    
    98   48  172 1    
    99   48  173 1    
   100   49   50 am   BACKBONE|DICT|INTERRES
   101   49  174 1    
   102   50   51 2    
   103   50   52 1    
   104   52   53 1    
   105   52   54 1    
   106   52  175 1    
   107   53  176 1    
   108   53  177 1    
   109   53  178 1    
   110   54   55 am   BACKBONE|DICT|INTERRES
   111   54  179 1    
   112   55   56 2    
   113   55   57 1    
   114   57   58 1    
   115   57   59 1    
   116   57  180 1    
   117   58  181 1    
   118   58  182 1    
   119   58  183 1    
   120   59   60 am   BACKBONE|DICT|INTERRES
   121   59  184 1    
   122   60   61 2    
   123   60   62 1    
   124   62   63 1    
   125   62   64 1    
   126   62  185 1    
   127   63  186 1    
   128   63  187 1    
   129   63  188 1    
   130   64   65 am   BACKBONE|DICT|INTERRES
   131   64  189 1    
   132   65   66 2    
   133   67   68 2    
   134   67   69 am   BACKBONE|DICT|INTERRES
   135   69   70 1    
   136   69  190 1    
   137   70   71 1    
   138   70   72 1    
   139   70  191 1    
   140   71  192 1    
   141   71  193 1    
   142   71  194 1    
   143   72   73 2    
   144   72   74 am   BACKBONE|DICT|INTERRES
   145   74   75 1    
   146   74  195 1    
   147   75   76 1    
   148   75   77 1    
   149   75  196 1    
   150   76  197 1    
   151   76  198 1    
   152   76  199 1    
   153   77   78 2    
   154   77   79 am   BACKBONE|DICT|INTERRES
   155   79   80 1    
   156   79  200 1    
   157   80   81 1    
   158   80   82 1    
   159   80  201 1    
   160   81  202 1    
   161   81  203 1    
   162   81  204 1    
   163   82   83 2    
   164   82   84 am   BACKBONE|DICT|INTERRES
   165   84   85 1    
   166   84  205 1    
   167   85   86 1    
   168   85   87 1    
   169   85  206 1    
   170   86  207 1    
   171   86  208 1    
   172   86  209 1    
   173   87   88 2    
   174   87   89 am   BACKBONE|DICT|INTERRES
   175   89   90 1    
   176   89  210 1    
   177   90   91 1    
   178   90   92 1    
   179   90  211 1    
   180   91  212 1    
   181   91  213 1    
   182   91  214 1    
   183   92   93 2    
   184   92   94 am   BACKBONE|DICT|INTERRES
   185   94   95 1    
   186   94  215 1    
   187   95   96 1    
   188   95   97 1    
   189   95  216 1    
   190   96  217 1    
   191   96  218 1    
   192   96  219 1    
   193   97   98 2    
   194   97   99 am   BACKBONE|DICT|INTERRES
   195   99  100 1    
   196   99  220 1    
   197  100  101 1    
   198  100  102 1    
   199  100  221 1    
   200  101  222 1    
   201  101  223 1    
   202  101  224 1    
   203  102  103 2    
   204  102  104 am   BACKBONE|DICT|INTERRES
   205  104  105 1    
   206  104  225 1    
   207  105  106 1    
   208  105  107 1    
   209  105  226 1    
   210  106  227 1    
   211  106  228 1    
   212  106  229 1    
   213  107  108 2    
   214  107  109 am   BACKBONE|DICT|INTERRES
   215  109  110 1    
   216  109  230 1    
   217  110  111 1    
   218  110  112 1    
   219  110  231 1    
   220  111  232 1    
   221  111  233 1    
   222  111  234 1    
   223  112  113 2    
   224  112  114 am   BACKBONE|DICT|INTERRES
   225  114  115 1    
   226  114  235 1    
   227  115  116 1    
   228  115  117 1    
   229  115  236 1    
   230  116  237 1    
   231  116  238 1    
   232  116  239 1    
   233  117  118 2    
   234  117  119 am   BACKBONE|DICT|INTERRES
   235  119  120 1    
   236  119  240 1    
   237  120  121 1    
   238  120  124 1    
   239  120  241 1    
   240  121  122 am   BACKBONE|DICT|INTERRES
   241  121  123 2    
   242  122  242 1    
   243  122  243 1    
   244  124  125 1    
   245  124  244 1    
   246  124  245 1    
   247  125  126 1    
   248  126  246 1    
   249  126  247 1    
@<TRIPOS>SUBSTRUCTURE
     1 UNK         1 GROUP             0       ****    0 ROOT    
