@<TRIPOS>MOLECULE
3R540
247   249    1
SMALL
USER_CHARGES


@<TRIPOS>ATOM
      1 CA          1.6355  -10.4881  -53.9242 C.3       0 UNK        -0.1800 
      2 C           2.6551  -11.0056  -52.9192 C.2       0 UNK         0.5000 
      3 O           3.7509  -10.4529  -52.8185 O.2       0 UNK        -0.5000 
      4 N           2.3030  -12.0666  -52.1824 N.am      1 UNK        -0.5000 
      5 CA          3.1195  -12.6619  -51.1227 C.3       1 UNK         0.1400 
      6 C6          2.6210  -14.0842  -50.7738 C.3       23 UNK        -0.0398 
      7 S7          3.7834  -14.9952  -49.7024 S.3       23 UNK        -0.2404 
      8 C8          2.7100  -15.4116  -48.2961 C.3       23 UNK        -0.0205 
      9 C9          1.8763  -16.6537  -48.5629 C.ar      23 UNK        -0.0193 
     10 C10         0.5566  -16.5451  -49.0118 C.ar      23 UNK        -0.1150 
     11 C11        -0.2106  -17.6928  -49.2301 C.ar      23 UNK        -0.0193 
     12 C12         0.3489  -18.9510  -48.9919 C.ar      23 UNK        -0.1150 
     13 C13         1.6621  -19.0727  -48.5338 C.ar      23 UNK        -0.0193 
     14 C14         2.4241  -17.9193  -48.3305 C.ar      23 UNK        -0.1150 
     15 C15         2.2450  -20.4448  -48.2317 C.3       23 UNK        -0.0205 
     16 S16         2.1547  -20.7779  -46.4470 S.3       23 UNK        -0.2404 
     17 C17         1.6134  -22.5194  -46.3605 C.3       23 UNK        -0.0398 
     18 CA          0.0814  -22.7578  -46.4974 C.3       11 UNK         0.1400 
     19 N          -0.7359  -21.6523  -45.9676 N.am      11 UNK        -0.5000 
     20 C          -2.0701  -21.6417  -45.8329 C.2       10 UNK         0.5000 
     21 O          -2.7944  -22.5816  -46.1658 O.2       10 UNK        -0.5000 
     22 CA         -2.6809  -20.3466  -45.2689 C.3       10 UNK         0.1400 
     23 CB         -4.2094  -20.4243  -45.0782 C.3       10 UNK        -0.1800 
     24 N          -2.0187  -19.8986  -44.0440 N.am      10 UNK        -0.5000 
     25 C          -1.9385  -20.5301  -42.8641 C.2       9 UNK         0.5000 
     26 O          -2.3966  -21.6517  -42.6441 O.2       9 UNK        -0.5000 
     27 CA         -1.2418  -19.7617  -41.7216 C.3       9 UNK         0.1400 
     28 CB          0.2324  -20.1793  -41.6075 C.3       9 UNK        -0.1800 
     29 N          -1.3268  -18.3063  -41.8795 N.am      9 UNK        -0.5000 
     30 C          -2.4566  -17.5945  -41.7489 C.2       8 UNK         0.5000 
     31 O          -3.5270  -18.0765  -41.3763 O.2       8 UNK        -0.5000 
     32 CA         -2.3916  -16.1003  -42.1195 C.3       8 UNK         0.1400 
     33 CB         -1.9476  -15.2601  -40.9126 C.3       8 UNK        -0.1800 
     34 N          -1.5114  -15.8299  -43.2585 N.am      8 UNK        -0.5000 
     35 C          -1.7441  -16.2325  -44.5168 C.2       7 UNK         0.5000 
     36 O          -2.7617  -16.8305  -44.8603 O.2       7 UNK        -0.5000 
     37 CA         -0.6343  -15.9669  -45.5542 C.3       7 UNK         0.1400 
     38 CB         -0.7322  -14.5385  -46.1093 C.3       7 UNK        -0.1800 
     39 N           0.7062  -16.2008  -45.0126 N.am      7 UNK        -0.5000 
     40 C           1.1427  -17.3969  -44.5913 C.2       6 UNK         0.5000 
     41 O           0.4804  -18.4307  -44.6786 O.2       6 UNK        -0.5000 
     42 CA          2.5044  -17.4283  -43.8746 C.3       6 UNK         0.1400 
     43 CB          3.6737  -17.5479  -44.8611 C.3       6 UNK        -0.1800 
     44 N           2.6957  -16.2459  -43.0361 N.am      6 UNK        -0.5000 
     45 C           2.0909  -16.0562  -41.8559 C.2       5 UNK         0.5000 
     46 O           1.3396  -16.8807  -41.3357 O.2       5 UNK        -0.5000 
     47 CA          2.3404  -14.7054  -41.1577 C.3       5 UNK         0.1400 
     48 CB          3.6325  -14.7562  -40.3291 C.3       5 UNK        -0.1800 
     49 N           2.4115  -13.5838  -42.0968 N.am      5 UNK        -0.5000 
     50 C           1.3773  -13.1453  -42.8279 C.2       4 UNK         0.5000 
     51 O           0.2449  -13.6177  -42.7520 O.2       4 UNK        -0.5000 
     52 CA          1.6573  -12.0231  -43.8456 C.3       4 UNK         0.1400 
     53 CB          1.4352  -10.6469  -43.2017 C.3       4 UNK        -0.1800 
     54 N           2.9949  -12.0645  -44.4424 N.am      4 UNK        -0.5000 
     55 C           3.5232  -13.0977  -45.1099 C.2       3 UNK         0.5000 
     56 O           2.9472  -14.1762  -45.2627 O.2       3 UNK        -0.5000 
     57 CA          4.9223  -12.8665  -45.7111 C.3       3 UNK         0.1400 
     58 CB          5.7042  -14.1738  -45.9267 C.3       3 UNK        -0.1800 
     59 N           4.8378  -12.1375  -46.9764 N.am      3 UNK        -0.5000 
     60 C           4.6100  -10.8214  -47.0882 C.2       2 UNK         0.5000 
     61 O           4.4624  -10.0755  -46.1183 O.2       2 UNK        -0.5000 
     62 CA          4.5593  -10.2230  -48.5069 C.3       2 UNK         0.1400 
     63 CB          5.8592   -9.4609  -48.8094 C.3       2 UNK        -0.1800 
     64 N           4.3425  -11.2141  -49.5635 N.am      2 UNK        -0.5000 
     65 C           3.1493  -11.7225  -49.8967 C.2       1 UNK         0.5000 
     66 O           2.1010  -11.4620  -49.3025 O.2       1 UNK        -0.5000 
     67 C          -0.2983  -23.2202  -47.9229 C.2       11 UNK         0.5000 
     68 O           0.0387  -24.3451  -48.2954 O.2       11 UNK        -0.5000 
     69 N          -1.0492  -22.3975  -48.6702 N.am      12 UNK        -0.5000 
     70 CA         -1.6916  -22.7511  -49.9388 C.3       12 UNK         0.1400 
     71 CB         -2.4330  -21.5268  -50.4933 C.3       12 UNK        -0.1800 
     72 C          -2.6382  -23.9641  -49.8318 C.2       12 UNK         0.5000 
     73 O          -2.7448  -24.7254  -50.7920 O.2       12 UNK        -0.5000 
     74 N          -3.2411  -24.1787  -48.6513 N.am      13 UNK        -0.5000 
     75 CA         -4.0507  -25.3579  -48.3313 C.3       13 UNK         0.1400 
     76 CB         -4.6477  -25.1965  -46.9264 C.3       13 UNK        -0.1800 
     77 C          -3.2822  -26.6911  -48.4372 C.2       13 UNK         0.5000 
     78 O          -3.9057  -27.7209  -48.6925 O.2       13 UNK        -0.5000 
     79 N          -1.9546  -26.6463  -48.2644 N.am      14 UNK        -0.5000 
     80 CA         -1.0516  -27.7733  -48.4734 C.3       14 UNK         0.1400 
     81 CB         -0.0126  -27.8089  -47.3409 C.3       14 UNK        -0.1800 
     82 C          -0.3628  -27.6678  -49.8437 C.2       14 UNK         0.5000 
     83 O          -0.3664  -28.6401  -50.5981 O.2       14 UNK        -0.5000 
     84 N           0.2152  -26.4948  -50.1422 N.am      15 UNK        -0.5000 
     85 CA          1.0712  -26.2590  -51.3077 C.3       15 UNK         0.1400 
     86 CB          1.8071  -24.9217  -51.1319 C.3       15 UNK        -0.1800 
     87 C           0.3355  -26.3010  -52.6599 C.2       15 UNK         0.5000 
     88 O           0.9061  -26.7864  -53.6374 O.2       15 UNK        -0.5000 
     89 N          -0.9064  -25.8032  -52.6934 N.am      16 UNK        -0.5000 
     90 CA         -1.7777  -25.7906  -53.8722 C.3       16 UNK         0.1400 
     91 CB         -2.2247  -24.3425  -54.1390 C.3       16 UNK        -0.1800 
     92 C          -2.9930  -26.7224  -53.6934 C.2       16 UNK         0.5000 
     93 O          -3.8398  -26.7845  -54.5850 O.2       16 UNK        -0.5000 
     94 N          -3.0630  -27.4172  -52.5469 N.am      17 UNK        -0.5000 
     95 CA         -4.1164  -28.3375  -52.0992 C.3       17 UNK         0.1400 
     96 CB         -4.2469  -29.5382  -53.0592 C.3       17 UNK        -0.1800 
     97 C          -5.4800  -27.6672  -51.8120 C.2       17 UNK         0.5000 
     98 O          -6.4607  -28.3748  -51.5756 O.2       17 UNK        -0.5000 
     99 N          -5.5273  -26.3303  -51.8097 N.am      18 UNK        -0.5000 
    100 CA        -6.7004  -25.5077  -51.5399 C.3       18 UNK         0.1400 
    101 CB        -7.6980  -25.5657  -52.7120 C.3       18 UNK        -0.1800 
    102 C         -6.2145  -24.0732  -51.3150 C.2       18 UNK         0.5000 
    103 O         -5.3801  -23.5939  -52.0849 O.2       18 UNK        -0.5000 
    104 N         -6.7277  -23.4190  -50.2652 N.am      19 UNK        -0.5000 
    105 CA        -6.3336  -22.0613  -49.8867 C.3       19 UNK         0.1400 
    106 CB        -6.8568  -21.7403  -48.4785 C.3       19 UNK        -0.1800 
    107 C         -6.7979  -21.0017  -50.9000 C.2       19 UNK         0.5000 
    108 O         -6.0175  -20.1154  -51.2471 O.2       19 UNK        -0.5000 
    109 N         -8.0538  -21.1221  -51.3586 N.am      20 UNK        -0.5000 
    110 CA        -8.7323  -20.2250  -52.3006 C.3       20 UNK         0.1400 
    111 CB        -8.1770  -20.4383  -53.7270 C.3       20 UNK        -0.1800 
    112 C         -8.6880  -18.7592  -51.8135 C.2       20 UNK         0.5000 
    113 O         -9.2204  -18.4675  -50.7404 O.2       20 UNK        -0.5000 
    114 N         -8.0114  -17.8794  -52.5651 N.am      21 UNK        -0.5000 
    115 CA        -7.7751  -16.4715  -52.2289 C.3       21 UNK         0.1400 
    116 CB        -7.1023  -15.7834  -53.4266 C.3       21 UNK        -0.1800 
    117 C         -6.9439  -16.2554  -50.9451 C.2       21 UNK         0.5000 
    118 O         -7.0244  -15.1788  -50.3523 O.2       21 UNK        -0.5000 
    119 N         -6.1823  -17.2756  -50.5283 N.am      22 UNK        -0.5000 
    120 CA        -5.4726  -17.3304  -49.2415 C.3       22 UNK         0.1400 
    121 C         -6.4084  -17.5727  -48.0159 C.2       22 UNK         0.5000 
    122 N         -7.6746  -17.9365  -48.1962 N.am      22 UNK        -0.7600 
    123 O         -5.9848  -17.4178  -46.8755 O.2       22 UNK        -0.5000 
    124 C124       -4.3210  -18.3715  -49.2983 C.3       23 UNK        -0.0398 
    125 S125       -2.8272  -17.8815  -48.3749 S.3       23 UNK        -0.2404 
    126 C126       -1.6429  -17.5892  -49.7259 C.3       23 UNK        -0.0205 
    127 H127        2.0493  -10.5260  -54.9319 H         1 UNK         0.0600 
    128 H128        0.7179  -11.0767  -53.9112 H         1 UNK         0.0600 
    129 H129        1.3787   -9.4531  -53.6986 H         1 UNK         0.0600 
    130 H130        1.3775  -12.4553  -52.2934 H         1 UNK         0.3000 
    131 H131        4.1354  -12.7592  -51.5128 H         1 UNK         0.0600 
    132 H132        2.5063  -14.6693  -51.6873 H         1 UNK         0.0800 
    133 H133        1.6295  -14.0432  -50.3210 H         1 UNK         0.0800 
    134 H134        2.0821  -14.5598  -48.0326 H         1 UNK         0.0800 
    135 H135        3.3371  -15.5971  -47.4289 H         1 UNK         0.0800 
    136 H136        0.1241  -15.5700  -49.1836 H         1 UNK         0.1150 
    137 H137       -0.2463  -19.8356  -49.1532 H         1 UNK         0.1150 
    138 H138        3.4405  -18.0063  -47.9735 H         1 UNK         0.1150 
    139 H139        1.7149  -21.2129  -48.7952 H         1 UNK         0.0800 
    140 H140        3.2860  -20.4898  -48.5548 H         1 UNK         0.0800 
    141 H141        1.9254  -22.8773  -45.3785 H         1 UNK         0.0800 
    142 H142        2.1940  -23.1148  -47.0683 H         1 UNK         0.0800 
    143 H143       -0.1560  -23.6176  -45.8673 H         1 UNK         0.0600 
    144 H144       -0.2159  -20.8317  -45.6805 H         1 UNK         0.3000 
    145 H145       -2.4853  -19.5717  -46.0095 H         1 UNK         0.0600 
    146 H146       -4.6066  -19.4746  -44.7188 H         1 UNK         0.0600 
    147 H147       -4.7090  -20.6453  -46.0223 H         1 UNK         0.0600 
    148 H148       -4.4926  -21.2004  -44.3668 H         1 UNK         0.0600 
    149 H149       -1.5359  -19.0111  -44.1209 H         1 UNK         0.3000 
    150 H150       -1.7423  -20.0305  -40.7891 H         1 UNK         0.0600 
    151 H151        0.3193  -21.2499  -41.4183 H         1 UNK         0.0600 
    152 H152        0.7277  -19.6621  -40.7855 H         1 UNK         0.0600 
    153 H153        0.7858  -19.9646  -42.5212 H         1 UNK         0.0600 
    154 H154       -0.4714  -17.8231  -42.1257 H         1 UNK         0.3000 
    155 H155       -3.4000  -15.7858  -42.3962 H         1 UNK         0.0600 
    156 H156       -2.5999  -15.4318  -40.0555 H         1 UNK         0.0600 
    157 H157       -1.9839  -14.1945  -41.1397 H         1 UNK         0.0600 
    158 H158       -0.9303  -15.5023  -40.6051 H         1 UNK         0.0600 
    159 H159       -0.6891  -15.2636  -43.0709 H         1 UNK         0.3000 
    160 H160       -0.7789  -16.6641  -46.3817 H         1 UNK         0.0600 
    161 H161       -0.6624  -13.7927  -45.3184 H         1 UNK         0.0600 
    162 H162       -1.6855  -14.3880  -46.6171 H         1 UNK         0.0600 
    163 H163        0.0567  -14.3361  -46.8321 H         1 UNK         0.0600 
    164 H164        1.3275  -15.4028  -44.9388 H         1 UNK         0.3000 
    165 H165        2.5201  -18.3140  -43.2361 H         1 UNK         0.0600 
    166 H166        3.5582  -18.4199  -45.5029 H         1 UNK         0.0600 
    167 H167        4.6214  -17.6578  -44.3342 H         1 UNK         0.0600 
    168 H168        3.7522  -16.6749  -45.5045 H         1 UNK         0.0600 
    169 H169        3.2290  -15.4886  -43.4405 H         1 UNK         0.3000 
    170 H170        1.5057  -14.5250  -40.4769 H         1 UNK         0.0600 
    171 H171        3.7777  -13.8328  -39.7680 H         1 UNK         0.0600 
    172 H172        3.6001  -15.5726  -39.6063 H         1 UNK         0.0600 
    173 H173        4.5102  -14.9092  -40.9583 H         1 UNK         0.0600 
    174 H174        3.3098  -13.1398  -42.2175 H         1 UNK         0.3000 
    175 H175        0.9395  -12.1354  -44.6598 H         1 UNK         0.0600 
    176 H176        0.4355  -10.5731  -42.7714 H         1 UNK         0.0600 
    177 H177        2.1525  -10.4564  -42.4024 H         1 UNK         0.0600 
    178 H178        1.5309   -9.8475  -43.9368 H         1 UNK         0.0600 
    179 H179        3.5161  -11.1964  -44.4380 H         1 UNK         0.3000 
    180 H180        5.4915  -12.2687  -44.9958 H         1 UNK         0.0600 
    181 H181        5.7083  -14.7843  -45.0227 H         1 UNK         0.0600 
    182 H182        5.2853  -14.7766  -46.7301 H         1 UNK         0.0600 
    183 H183        6.7437  -13.9669  -46.1812 H         1 UNK         0.0600 
    184 H184        4.9189  -12.6831  -47.8216 H         1 UNK         0.3000 
    185 H185        3.7363   -9.5052  -48.5265 H         1 UNK         0.0600 
    186 H186        6.0411   -8.6848  -48.0646 H         1 UNK         0.0600 
    187 H187        6.7247  -10.1247  -48.8096 H         1 UNK         0.0600 
    188 H188        5.8113   -8.9700  -49.7817 H         1 UNK         0.0600 
    189 H189        5.1513  -11.4633  -50.1150 H         1 UNK         0.3000 
    190 H190       -1.3035  -21.5083  -48.2685 H         1 UNK         0.3000 
    191 H191       -0.9084  -23.0194  -50.6487 H         1 UNK         0.0600 
    192 H192       -1.7320  -20.7548  -50.8079 H         1 UNK         0.0600 
    193 H193       -3.1006  -21.0913  -49.7507 H         1 UNK         0.0600 
    194 H194       -3.0340  -21.7882  -51.3662 H         1 UNK         0.0600 
    195 H195       -3.0775  -23.5307  -47.8858 H         1 UNK         0.3000 
    196 H196       -4.8723  -25.4012  -49.0462 H         1 UNK         0.0600 
    197 H197       -5.3074  -26.0303  -46.6832 H         1 UNK         0.0600 
    198 H198       -5.2357  -24.2828  -46.8471 H         1 UNK         0.0600 
    199 H199       -3.8698  -25.1592  -46.1627 H         1 UNK         0.0600 
    200 H200       -1.5184  -25.7498  -48.0892 H         1 UNK         0.3000 
    201 H201       -1.6040  -28.7150  -48.4470 H         1 UNK         0.0600 
    202 H202        0.6820  -28.6391  -47.4750 H         1 UNK         0.0600 
    203 H203        0.5760  -26.8919  -47.2962 H         1 UNK         0.0600 
    204 H204       -0.4946  -27.9421  -46.3722 H         1 UNK         0.0600 
    205 H205        0.1712  -25.7395  -49.4619 H         1 UNK         0.3000 
    206 H206        1.8231  -27.0510  -51.3254 H         1 UNK         0.0600 
    207 H207        2.3961  -24.9132  -50.2145 H         1 UNK         0.0600 
    208 H208        2.4934  -24.7413  -51.9603 H         1 UNK         0.0600 
    209 H209        1.1150  -24.0814  -51.0911 H         1 UNK         0.0600 
    210 H210       -1.3219  -25.4256  -51.8462 H         1 UNK         0.3000 
    211 H211       -1.2391  -26.1437  -54.7535 H         1 UNK         0.0600 
    212 H212       -2.8227  -24.2779  -55.0488 H         1 UNK         0.0600 
    213 H213       -1.3666  -23.6829  -54.2683 H         1 UNK         0.0600 
    214 H214       -2.8306  -23.9473  -53.3233 H         1 UNK         0.0600 
    215 H215       -2.3046  -27.2860  -51.8931 H         1 UNK         0.3000 
    216 H216       -3.7712  -28.7312  -51.1431 H         1 UNK         0.0600 
    217 H217       -4.8985  -30.3053  -52.6392 H         1 UNK         0.0600 
    218 H218       -3.2785  -30.0037  -53.2428 H         1 UNK         0.0600 
    219 H219       -4.6688  -29.2466  -54.0211 H         1 UNK         0.0600 
    220 H220       -4.6781  -25.8054  -51.9867 H         1 UNK         0.3000 
    221 H221       -7.1837  -25.8719  -50.6310 H         1 UNK         0.0600 
    222 H222       -7.2312  -25.2588  -53.6490 H         1 UNK         0.0600 
    223 H223       -8.0960  -26.5707  -52.8509 H         1 UNK         0.0600 
    224 H224       -8.5470  -24.9043  -52.5352 H         1 UNK         0.0600 
    225 H225       -7.4160  -23.8729  -49.6821 H         1 UNK         0.3000 
    226 H226       -5.2443  -22.0282  -49.8508 H         1 UNK         0.0600 
    227 H227       -6.5653  -20.7356  -48.1714 H         1 UNK         0.0600 
    228 H228       -7.9448  -21.7941  -48.4278 H         1 UNK         0.0600 
    229 H229       -6.4513  -22.4308  -47.7398 H         1 UNK         0.0600 
    230 H230       -8.6172  -21.8755  -50.9924 H         1 UNK         0.3000 
    231 H231       -9.7846  -20.5125  -52.3075 H         1 UNK         0.0600 
    232 H232       -8.2998  -21.4762  -54.0372 H         1 UNK         0.0600 
    233 H233       -7.1146  -20.2020  -53.7978 H         1 UNK         0.0600 
    234 H234       -8.7084  -19.8237  -54.4548 H         1 UNK         0.0600 
    235 H235       -7.5773  -18.2151  -53.4126 H         1 UNK         0.3000 
    236 H236       -8.7476  -16.0026  -52.0663 H         1 UNK         0.0600 
    237 H237       -7.7214  -15.8525  -54.3213 H         1 UNK         0.0600 
    238 H238       -6.9388  -14.7233  -53.2280 H         1 UNK         0.0600 
    239 H239       -6.1324  -16.2285  -53.6524 H         1 UNK         0.0600 
    240 H240       -6.1914  -18.1425  -51.0568 H         1 UNK         0.3000 
    241 H241       -5.0281  -16.3447  -49.0911 H         1 UNK         0.0600 
    242 H242       -8.2607  -18.0756  -47.3888 H         1 UNK         0.3800 
    243 H243       -8.0692  -18.0547  -49.1225 H         1 UNK         0.3800 
    244 H244       -4.6492  -19.3434  -48.9275 H         1 UNK         0.0800 
    245 H245       -4.0307  -18.5520  -50.3336 H         1 UNK         0.0800 
    246 H246       -1.8340  -16.6094  -50.1661 H         1 UNK         0.0800 
    247 H247       -1.7866  -18.3191  -50.5230 H         1 UNK         0.0800 
@<TRIPOS>BOND
     1    1    2 1    
     2    1  127 1    
     3    1  128 1    
     4    1  129 1    
     5    2    3 2    
     6    2    4 am   BACKBONE|DICT|INTERRES
     7    4    5 1    
     8    4  130 1    
     9    5    6 1    
    10    5   65 1    
    11    5  131 1    
    12    6    7 1    
    13    6  132 1    
    14    6  133 1    
    15    7    8 1    
    16    8    9 1    
    17    8  134 1    
    18    8  135 1    
    19    9   10 ar   
    20    9   14 ar   
    21   10   11 ar   
    22   10  136 1    
    23   11   12 ar   
    24   11  126 1    
    25   12   13 ar   
    26   12  137 1    
    27   13   14 ar   
    28   13   15 1    
    29   14  138 1    
    30   15   16 1    
    31   15  139 1    
    32   15  140 1    
    33   16   17 1    
    34   17   18 1    
    35   17  141 1    
    36   17  142 1    
    37   18   19 1    
    38   18   67 1    
    39   18  143 1    
    40   19   20 am   BACKBONE|DICT|INTERRES
    41   19  144 1    
    42   20   21 2    
    43   20   22 1    
    44   22   23 1    
    45   22   24 1    
    46   22  145 1    
    47   23  146 1    
    48   23  147 1    
    49   23  148 1    
    50   24   25 am   BACKBONE|DICT|INTERRES
    51   24  149 1    
    52   25   26 2    
    53   25   27 1    
    54   27   28 1    
    55   27   29 1    
    56   27  150 1    
    57   28  151 1    
    58   28  152 1    
    59   28  153 1    
    60   29   30 am   BACKBONE|DICT|INTERRES
    61   29  154 1    
    62   30   31 2    
    63   30   32 1    
    64   32   33 1    
    65   32   34 1    
    66   32  155 1    
    67   33  156 1    
    68   33  157 1    
    69   33  158 1    
    70   34   35 am   BACKBONE|DICT|INTERRES
    71   34  159 1    
    72   35   36 2    
    73   35   37 1    
    74   37   38 1    
    75   37   39 1    
    76   37  160 1    
    77   38  161 1    
    78   38  162 1    
    79   38  163 1    
    80   39   40 am   BACKBONE|DICT|INTERRES
    81   39  164 1    
    82   40   41 2    
    83   40   42 1    
    84   42   43 1    
    85   42   44 1    
    86   42  165 1    
    87   43  166 1    
    88   43  167 1    
    89   43  168 1    
    90   44   45 am   BACKBONE|DICT|INTERRES
    91   44  169 1    
    92   45   46 2    
    93   45   47 1    
    94   47   48 1    
    95   47   49 1    
    96   47  170 1    
    97   48  171 1    
    98   48  172 1    
    99   48  173 1    
   100   49   50 am   BACKBONE|DICT|INTERRES
   101   49  174 1    
   102   50   51 2    
   103   50   52 1    
   104   52   53 1    
   105   52   54 1    
   106   52  175 1    
   107   53  176 1    
   108   53  177 1    
   109   53  178 1    
   110   54   55 am   BACKBONE|DICT|INTERRES
   111   54  179 1    
   112   55   56 2    
   113   55   57 1    
   114   57   58 1    
   115   57   59 1    
   116   57  180 1    
   117   58  181 1    
   118   58  182 1    
   119   58  183 1    
   120   59   60 am   BACKBONE|DICT|INTERRES
   121   59  184 1    
   122   60   61 2    
   123   60   62 1    
   124   62   63 1    
   125   62   64 1    
   126   62  185 1    
   127   63  186 1    
   128   63  187 1    
   129   63  188 1    
   130   64   65 am   BACKBONE|DICT|INTERRES
   131   64  189 1    
   132   65   66 2    
   133   67   68 2    
   134   67   69 am   BACKBONE|DICT|INTERRES
   135   69   70 1    
   136   69  190 1    
   137   70   71 1    
   138   70   72 1    
   139   70  191 1    
   140   71  192 1    
   141   71  193 1    
   142   71  194 1    
   143   72   73 2    
   144   72   74 am   BACKBONE|DICT|INTERRES
   145   74   75 1    
   146   74  195 1    
   147   75   76 1    
   148   75   77 1    
   149   75  196 1    
   150   76  197 1    
   151   76  198 1    
   152   76  199 1    
   153   77   78 2    
   154   77   79 am   BACKBONE|DICT|INTERRES
   155   79   80 1    
   156   79  200 1    
   157   80   81 1    
   158   80   82 1    
   159   80  201 1    
   160   81  202 1    
   161   81  203 1    
   162   81  204 1    
   163   82   83 2    
   164   82   84 am   BACKBONE|DICT|INTERRES
   165   84   85 1    
   166   84  205 1    
   167   85   86 1    
   168   85   87 1    
   169   85  206 1    
   170   86  207 1    
   171   86  208 1    
   172   86  209 1    
   173   87   88 2    
   174   87   89 am   BACKBONE|DICT|INTERRES
   175   89   90 1    
   176   89  210 1    
   177   90   91 1    
   178   90   92 1    
   179   90  211 1    
   180   91  212 1    
   181   91  213 1    
   182   91  214 1    
   183   92   93 2    
   184   92   94 am   BACKBONE|DICT|INTERRES
   185   94   95 1    
   186   94  215 1    
   187   95   96 1    
   188   95   97 1    
   189   95  216 1    
   190   96  217 1    
   191   96  218 1    
   192   96  219 1    
   193   97   98 2    
   194   97   99 am   BACKBONE|DICT|INTERRES
   195   99  100 1    
   196   99  220 1    
   197  100  101 1    
   198  100  102 1    
   199  100  221 1    
   200  101  222 1    
   201  101  223 1    
   202  101  224 1    
   203  102  103 2    
   204  102  104 am   BACKBONE|DICT|INTERRES
   205  104  105 1    
   206  104  225 1    
   207  105  106 1    
   208  105  107 1    
   209  105  226 1    
   210  106  227 1    
   211  106  228 1    
   212  106  229 1    
   213  107  108 2    
   214  107  109 am   BACKBONE|DICT|INTERRES
   215  109  110 1    
   216  109  230 1    
   217  110  111 1    
   218  110  112 1    
   219  110  231 1    
   220  111  232 1    
   221  111  233 1    
   222  111  234 1    
   223  112  113 2    
   224  112  114 am   BACKBONE|DICT|INTERRES
   225  114  115 1    
   226  114  235 1    
   227  115  116 1    
   228  115  117 1    
   229  115  236 1    
   230  116  237 1    
   231  116  238 1    
   232  116  239 1    
   233  117  118 2    
   234  117  119 am   BACKBONE|DICT|INTERRES
   235  119  120 1    
   236  119  240 1    
   237  120  121 1    
   238  120  124 1    
   239  120  241 1    
   240  121  122 am   BACKBONE|DICT|INTERRES
   241  121  123 2    
   242  122  242 1    
   243  122  243 1    
   244  124  125 1    
   245  124  244 1    
   246  124  245 1    
   247  125  126 1    
   248  126  246 1    
   249  126  247 1    
@<TRIPOS>SUBSTRUCTURE
     1 UNK         1 GROUP             0       ****    0 ROOT    
