@<TRIPOS>MOLECULE
3R540
247   249    1
SMALL
USER_CHARGES


@<TRIPOS>ATOM
      1 CA          0.1030  -15.9066  -48.1769 C.3       0 UNK        -0.1800 
      2 C           0.2193  -14.5328  -47.5380 C.2       0 UNK         0.5000 
      3 O           1.1207  -14.3056  -46.7338 O.2       0 UNK        -0.5000 
      4 N          -0.6754  -13.6086  -47.9136 N.am      1 UNK        -0.5000 
      5 CA         -0.7722  -12.2348  -47.3905 C.3       1 UNK         0.1400 
      6 C6         -1.9898  -11.4767  -47.9745 C.3       23 UNK        -0.0398 
      7 S7         -3.5891  -12.2382  -47.5393 S.3       23 UNK        -0.2404 
      8 C8         -4.2355  -12.7250  -49.1706 C.3       23 UNK        -0.0205 
      9 C9         -3.6226  -14.0297  -49.6529 C.ar      23 UNK        -0.0193 
     10 C10        -2.6251  -14.0352  -50.6339 C.ar      23 UNK        -0.1150 
     11 C11        -2.0732  -15.2431  -51.0740 C.ar      23 UNK        -0.0193 
     12 C12        -2.5221  -16.4447  -50.5196 C.ar      23 UNK        -0.1150 
     13 C13        -3.5328  -16.4524  -49.5570 C.ar      23 UNK        -0.0193 
     14 C14        -4.0747  -15.2411  -49.1229 C.ar      23 UNK        -0.1150 
     15 C15        -4.0469  -17.7667  -48.9945 C.3       23 UNK        -0.0205 
     16 S16        -3.0696  -18.2735  -47.5514 S.3       23 UNK        -0.2404 
     17 C17        -4.0565  -19.6635  -46.9058 C.3       23 UNK        -0.0398 
     18 CA         -3.4339  -21.0336  -47.2560 C.3       11 UNK         0.1400 
     19 N          -2.1029  -21.2011  -46.6623 N.am      11 UNK        -0.5000 
     20 C          -1.3297  -22.2926  -46.7598 C.2       10 UNK         0.5000 
     21 O          -1.6213  -23.2774  -47.4402 O.2       10 UNK        -0.5000 
     22 CA         -0.0474  -22.3286  -45.9081 C.3       10 UNK         0.1400 
     23 CB          1.1646  -21.9579  -46.7732 C.3       10 UNK        -0.1800 
     24 N          -0.0823  -21.4716  -44.7168 N.am      10 UNK        -0.5000 
     25 C          -0.9928  -21.5268  -43.7281 C.2       9 UNK         0.5000 
     26 O          -1.9291  -22.3279  -43.7110 O.2       9 UNK        -0.5000 
     27 CA         -0.8799  -20.4874  -42.5925 C.3       9 UNK         0.1400 
     28 CB         -0.1494  -21.0939  -41.3863 C.3       9 UNK        -0.1800 
     29 N          -0.2007  -19.2531  -42.9889 N.am      9 UNK        -0.5000 
     30 C          -0.5961  -18.4331  -43.9728 C.2       8 UNK         0.5000 
     31 O          -1.6573  -18.5739  -44.5778 O.2       8 UNK        -0.5000 
     32 CA          0.3714  -17.3061  -44.3894 C.3       8 UNK         0.1400 
     33 CB         -0.1249  -15.9516  -43.8648 C.3       8 UNK        -0.1800 
     34 N           1.7575  -17.5141  -43.9561 N.am      8 UNK        -0.5000 
     35 C           2.5471  -18.5373  -44.3159 C.2       7 UNK         0.5000 
     36 O           2.1877  -19.4428  -45.0670 O.2       7 UNK        -0.5000 
     37 CA          3.9463  -18.5914  -43.6814 C.3       7 UNK         0.1400 
     38 CB          4.9414  -17.7268  -44.4669 C.3       7 UNK        -0.1800 
     39 N           3.9132  -18.1466  -42.2889 N.am      7 UNK        -0.5000 
     40 C           3.6188  -18.9351  -41.2467 C.2       6 UNK         0.5000 
     41 O           3.4017  -20.1427  -41.3446 O.2       6 UNK        -0.5000 
     42 CA          3.5432  -18.2636  -39.8612 C.3       6 UNK         0.1400 
     43 CB          4.9108  -18.3169  -39.1636 C.3       6 UNK        -0.1800 
     44 N           3.0909  -16.8723  -39.9185 N.am      6 UNK        -0.5000 
     45 C           1.8458  -16.4896  -40.2337 C.2       5 UNK         0.5000 
     46 O           0.9293  -17.2759  -40.4736 O.2       5 UNK        -0.5000 
     47 CA          1.5920  -14.9707  -40.3326 C.3       5 UNK         0.1400 
     48 CB          1.1534  -14.4135  -38.9701 C.3       5 UNK        -0.1800 
     49 N           2.7308  -14.1864  -40.8290 N.am      5 UNK        -0.5000 
     50 C           3.3621  -14.3856  -41.9940 C.2       4 UNK         0.5000 
     51 O           3.1144  -15.3284  -42.7481 O.2       4 UNK        -0.5000 
     52 CA          4.4976  -13.4037  -42.3408 C.3       4 UNK         0.1400 
     53 CB          5.7732  -13.7784  -41.5695 C.3       4 UNK        -0.1800 
     54 N           4.8058  -13.3995  -43.7725 N.am      4 UNK        -0.5000 
     55 C           3.9951  -12.9381  -44.7339 C.2       3 UNK         0.5000 
     56 O           2.9299  -12.3580  -44.5068 O.2       3 UNK        -0.5000 
     57 CA          4.4799  -13.1566  -46.1802 C.3       3 UNK         0.1400 
     58 CB          4.6469  -14.6533  -46.4959 C.3       3 UNK        -0.1800 
     59 N           3.5275  -12.6005  -47.1373 N.am      3 UNK        -0.5000 
     60 C           3.7338  -11.5226  -47.9042 C.2       2 UNK         0.5000 
     61 O           4.7723  -10.8598  -47.8819 O.2       2 UNK        -0.5000 
     62 CA          2.6125  -11.1176  -48.8853 C.3       2 UNK         0.1400 
     63 CB          3.0090  -11.4700  -50.3280 C.3       2 UNK        -0.1800 
     64 N           1.3240  -11.7460  -48.5936 N.am      2 UNK        -0.5000 
     65 C           0.5046  -11.3868  -47.5965 C.2       1 UNK         0.5000 
     66 O           0.7183  -10.4262  -46.8558 O.2       1 UNK        -0.5000 
     67 C          -4.3972  -22.1765  -46.8756 C.2       11 UNK         0.5000 
     68 O          -5.1525  -22.6302  -47.7363 O.2       11 UNK        -0.5000 
     69 N          -4.3066  -22.6432  -45.6224 N.am      12 UNK        -0.5000 
     70 CA         -5.0555  -23.7813  -45.1001 C.3       12 UNK         0.1400 
     71 CB         -5.6573  -23.4030  -43.7377 C.3       12 UNK        -0.1800 
     72 C          -4.1599  -25.0236  -44.9646 C.2       12 UNK         0.5000 
     73 O          -4.5741  -26.1081  -45.3719 O.2       12 UNK        -0.5000 
     74 N          -2.9535  -24.8551  -44.4015 N.am      13 UNK        -0.5000 
     75 CA         -2.0544  -25.9485  -44.0173 C.3       13 UNK         0.1400 
     76 CB         -0.9398  -25.4003  -43.1127 C.3       13 UNK        -0.1800 
     77 C          -1.4552  -26.7239  -45.2041 C.2       13 UNK         0.5000 
     78 O          -1.2544  -27.9336  -45.0909 O.2       13 UNK        -0.5000 
     79 N          -1.1989  -26.0253  -46.3167 N.am      14 UNK        -0.5000 
     80 CA         -0.7402  -26.6050  -47.5824 C.3       14 UNK         0.1400 
     81 CB          0.5271  -25.8614  -48.0390 C.3       14 UNK        -0.1800 
     82 C          -1.8409  -26.5362  -48.6596 C.2       14 UNK         0.5000 
     83 O          -1.5932  -26.9291  -49.8000 O.2       14 UNK        -0.5000 
     84 N          -3.0244  -26.0252  -48.2826 N.am      15 UNK        -0.5000 
     85 CA         -4.2003  -25.7612  -49.1146 C.3       15 UNK         0.1400 
     86 CB         -4.8348  -27.0821  -49.5957 C.3       15 UNK        -0.1800 
     87 C          -3.9205  -24.7768  -50.2696 C.2       15 UNK         0.5000 
     88 O          -4.5412  -24.8869  -51.3291 O.2       15 UNK        -0.5000 
     89 N          -3.0037  -23.8185  -50.0544 N.am      16 UNK        -0.5000 
     90 CA         -2.5565  -22.8633  -51.0734 C.3       16 UNK         0.1400 
     91 CB         -1.3638  -22.0472  -50.5512 C.3       16 UNK        -0.1800 
     92 C          -3.6740  -21.9468  -51.6078 C.2       16 UNK         0.5000 
     93 O          -3.5933  -21.5217  -52.7580 O.2       16 UNK        -0.5000 
     94 N          -4.7153  -21.7041  -50.7954 N.am      17 UNK        -0.5000 
     95 CA         -5.9135  -20.9661  -51.1979 C.3       17 UNK         0.1400 
     96 CB         -6.7604  -20.6445  -49.9589 C.3       17 UNK        -0.1800 
     97 C          -6.7562  -21.7178  -52.2454 C.2       17 UNK         0.5000 
     98 O          -7.3155  -21.0848  -53.1412 O.2       17 UNK        -0.5000 
     99 N          -6.8230  -23.0507  -52.1254 N.am      18 UNK        -0.5000 
    100 CA        -7.5048  -23.9245  -53.0789 C.3       18 UNK         0.1400 
    101 CB        -7.8736  -25.2486  -52.3922 C.3       18 UNK        -0.1800 
    102 C         -6.6351  -24.1733  -54.3215 C.2       18 UNK         0.5000 
    103 O         -7.1466  -24.1513  -55.4422 O.2       18 UNK        -0.5000 
    104 N         -5.3292  -24.3749  -54.1047 N.am      19 UNK        -0.5000 
    105 CA        -4.3174  -24.5869  -55.1371 C.3       19 UNK         0.1400 
    106 CB        -3.1170  -25.3176  -54.5107 C.3       19 UNK        -0.1800 
    107 C         -3.9198  -23.2691  -55.8355 C.2       19 UNK         0.5000 
    108 O         -2.7816  -22.8180  -55.7073 O.2       19 UNK        -0.5000 
    109 N         -4.8735  -22.6885  -56.5761 N.am      20 UNK        -0.5000 
    110 CA        -4.7420  -21.4983  -57.4234 C.3       20 UNK         0.1400 
    111 CB        -3.7755  -21.7666  -58.5970 C.3       20 UNK        -0.1800 
    112 C         -4.3993  -20.2148  -56.6376 C.2       20 UNK         0.5000 
    113 O         -3.5059  -19.4636  -57.0341 O.2       20 UNK        -0.5000 
    114 N         -5.1389  -19.9825  -55.5444 N.am      21 UNK        -0.5000 
    115 CA        -5.1624  -18.7927  -54.6803 C.3       21 UNK         0.1400 
    116 CB        -5.5463  -17.5290  -55.4743 C.3       21 UNK        -0.1800 
    117 C         -3.8982  -18.5455  -53.8348 C.2       21 UNK         0.5000 
    118 O         -4.0370  -18.2070  -52.6607 O.2       21 UNK        -0.5000 
    119 N         -2.7115  -18.7100  -54.4254 N.am      22 UNK        -0.5000 
    120 CA        -1.3984  -18.5003  -53.7943 C.3       22 UNK         0.1400 
    121 C         -0.4383  -19.7120  -53.9765 C.2       22 UNK         0.5000 
    122 N         -0.9106  -20.8902  -54.3591 N.am      22 UNK        -0.7600 
    123 O          0.7631  -19.5938  -53.7514 O.2       22 UNK        -0.5000 
    124 C124       -0.7418  -17.1618  -54.2393 C.3       23 UNK        -0.0398 
    125 S125       -1.6951  -15.6707  -53.7801 S.3       23 UNK        -0.2404 
    126 C126       -0.9953  -15.2580  -52.1471 C.3       23 UNK        -0.0205 
    127 H127       -0.8740  -16.3392  -47.9673 H         1 UNK         0.0600 
    128 H128        0.8655  -16.5817  -47.7882 H         1 UNK         0.0600 
    129 H129        0.2313  -15.8382  -49.2565 H         1 UNK         0.0600 
    130 H130       -1.4047  -13.8729  -48.5626 H         1 UNK         0.3000 
    131 H131       -0.9123  -12.3198  -46.3108 H         1 UNK         0.0600 
    132 H132       -2.0200  -10.4536  -47.5942 H         1 UNK         0.0800 
    133 H133       -1.8996  -11.3888  -49.0584 H         1 UNK         0.0800 
    134 H134       -5.3169  -12.8472  -49.0935 H         1 UNK         0.0800 
    135 H135       -4.0760  -11.9239  -49.8941 H         1 UNK         0.0800 
    136 H136       -2.2836  -13.1022  -51.0600 H         1 UNK         0.1150 
    137 H137       -2.1006  -17.3817  -50.8496 H         1 UNK         0.1150 
    138 H138       -4.8507  -15.2399  -48.3701 H         1 UNK         0.1150 
    139 H139       -4.0046  -18.5462  -49.7576 H         1 UNK         0.0800 
    140 H140       -5.0958  -17.6610  -48.7139 H         1 UNK         0.0800 
    141 H141       -5.0770  -19.5848  -47.2817 H         1 UNK         0.0800 
    142 H142       -4.1289  -19.5464  -45.8228 H         1 UNK         0.0800 
    143 H143       -3.3172  -21.0750  -48.3377 H         1 UNK         0.0600 
    144 H144       -1.7839  -20.4349  -46.0828 H         1 UNK         0.3000 
    145 H145        0.0843  -23.3561  -45.5671 H         1 UNK         0.0600 
    146 H146        1.2371  -22.6044  -47.6485 H         1 UNK         0.0600 
    147 H147        2.0951  -22.0631  -46.2151 H         1 UNK         0.0600 
    148 H148        1.1015  -20.9293  -47.1307 H         1 UNK         0.0600 
    149 H149        0.6417  -20.7620  -44.6666 H         1 UNK         0.3000 
    150 H150       -1.8943  -20.2245  -42.2865 H         1 UNK         0.0600 
    151 H151        0.8755  -21.3714  -41.6362 H         1 UNK         0.0600 
    152 H152       -0.6565  -21.9930  -41.0336 H         1 UNK         0.0600 
    153 H153       -0.1126  -20.3921  -40.5526 H         1 UNK         0.0600 
    154 H154        0.6674  -19.0404  -42.5184 H         1 UNK         0.3000 
    155 H155        0.3749  -17.2695  -45.4798 H         1 UNK         0.0600 
    156 H156       -0.2351  -15.9620  -42.7812 H         1 UNK         0.0600 
    157 H157       -1.0978  -15.7037  -44.2912 H         1 UNK         0.0600 
    158 H158        0.5605  -15.1456  -44.1287 H         1 UNK         0.0600 
    159 H159        2.1622  -16.7793  -43.3808 H         1 UNK         0.3000 
    160 H160        4.2935  -19.6260  -43.7260 H         1 UNK         0.0600 
    161 H161        4.6837  -16.6708  -44.4055 H         1 UNK         0.0600 
    162 H162        4.9573  -18.0038  -45.5218 H         1 UNK         0.0600 
    163 H163        5.9542  -17.8455  -44.0821 H         1 UNK         0.0600 
    164 H164        3.9993  -17.1496  -42.1371 H         1 UNK         0.3000 
    165 H165        2.8297  -18.8297  -39.2584 H         1 UNK         0.0600 
    166 H166        4.8539  -17.9138  -38.1523 H         1 UNK         0.0600 
    167 H167        5.2680  -19.3445  -39.0829 H         1 UNK         0.0600 
    168 H168        5.6646  -17.7492  -39.7105 H         1 UNK         0.0600 
    169 H169        3.7807  -16.1587  -39.7352 H         1 UNK         0.3000 
    170 H170        0.7706  -14.8225  -41.0345 H         1 UNK         0.0600 
    171 H171        0.8632  -13.3654  -39.0464 H         1 UNK         0.0600 
    172 H172        1.9500  -14.4893  -38.2289 H         1 UNK         0.0600 
    173 H173        0.2918  -14.9595  -38.5832 H         1 UNK         0.0600 
    174 H174        3.0123  -13.4047  -40.2548 H         1 UNK         0.3000 
    175 H175        4.1881  -12.3974  -42.0510 H         1 UNK         0.0600 
    176 H176        5.6054  -13.7539  -40.4920 H         1 UNK         0.0600 
    177 H177        6.1181  -14.7815  -41.8249 H         1 UNK         0.0600 
    178 H178        6.5831  -13.0807  -41.7840 H         1 UNK         0.0600 
    179 H179        5.6531  -13.8759  -44.0426 H         1 UNK         0.3000 
    180 H180        5.4527  -12.6717  -46.2821 H         1 UNK         0.0600 
    181 H181        4.8700  -14.8123  -47.5510 H         1 UNK         0.0600 
    182 H182        3.7446  -15.2188  -46.2573 H         1 UNK         0.0600 
    183 H183        5.4726  -15.0839  -45.9302 H         1 UNK         0.0600 
    184 H184        2.6142  -13.0452  -47.1380 H         1 UNK         0.3000 
    185 H185        2.4953  -10.0339  -48.8192 H         1 UNK         0.0600 
    186 H186        3.9492  -10.9908  -50.6040 H         1 UNK         0.0600 
    187 H187        3.1382  -12.5452  -50.4583 H         1 UNK         0.0600 
    188 H188        2.2541  -11.1330  -51.0387 H         1 UNK         0.0600 
    189 H189        1.0752  -12.5511  -49.1490 H         1 UNK         0.3000 
    190 H190       -3.6074  -22.2453  -45.0060 H         1 UNK         0.3000 
    191 H191       -5.8790  -24.0358  -45.7709 H         1 UNK         0.0600 
    192 H192       -6.3465  -22.5638  -43.8337 H         1 UNK         0.0600 
    193 H193       -6.2176  -24.2366  -43.3123 H         1 UNK         0.0600 
    194 H194       -4.8873  -23.1215  -43.0180 H         1 UNK         0.0600 
    195 H195       -2.6694  -23.9241  -44.1034 H         1 UNK         0.3000 
    196 H196       -2.6386  -26.6598  -43.4295 H         1 UNK         0.0600 
    197 H197       -0.2948  -26.2047  -42.7571 H         1 UNK         0.0600 
    198 H198       -1.3525  -24.9031  -42.2346 H         1 UNK         0.0600 
    199 H199       -0.3084  -24.6831  -43.6364 H         1 UNK         0.0600 
    200 H200       -1.4084  -25.0346  -46.3422 H         1 UNK         0.3000 
    201 H201       -0.4853  -27.6588  -47.4552 H         1 UNK         0.0600 
    202 H202        0.9599  -26.3349  -48.9209 H         1 UNK         0.0600 
    203 H203        1.2908  -25.8665  -47.2612 H         1 UNK         0.0600 
    204 H204        0.3183  -24.8240  -48.2985 H         1 UNK         0.0600 
    205 H205       -3.1224  -25.7721  -47.3103 H         1 UNK         0.3000 
    206 H206       -4.9250  -25.2676  -48.4662 H         1 UNK         0.0600 
    207 H207       -5.0219  -27.7562  -48.7599 H         1 UNK         0.0600 
    208 H208       -5.7925  -26.9013  -50.0848 H         1 UNK         0.0600 
    209 H209       -4.1958  -27.6013  -50.3106 H         1 UNK         0.0600 
    210 H210       -2.5380  -23.7771  -49.1530 H         1 UNK         0.3000 
    211 H211       -2.1952  -23.4494  -51.9186 H         1 UNK         0.0600 
    212 H212       -1.6402  -21.3823  -49.7360 H         1 UNK         0.0600 
    213 H213       -0.9467  -21.4254  -51.3441 H         1 UNK         0.0600 
    214 H214       -0.5645  -22.6981  -50.1963 H         1 UNK         0.0600 
    215 H215       -4.7283  -22.1283  -49.8765 H         1 UNK         0.3000 
    216 H216       -5.5985  -20.0218  -51.6418 H         1 UNK         0.0600 
    217 H217       -7.0790  -21.5496  -49.4405 H         1 UNK         0.0600 
    218 H218       -7.6583  -20.0892  -50.2332 H         1 UNK         0.0600 
    219 H219       -6.2051  -20.0295  -49.2536 H         1 UNK         0.0600 
    220 H220       -6.2736  -23.5061  -51.4088 H         1 UNK         0.3000 
    221 H221       -8.4308  -23.4448  -53.4037 H         1 UNK         0.0600 
    222 H222       -6.9905  -25.7930  -52.0569 H         1 UNK         0.0600 
    223 H223       -8.5116  -25.0785  -51.5249 H         1 UNK         0.0600 
    224 H224       -8.4196  -25.9009  -53.0748 H         1 UNK         0.0600 
    225 H225       -4.9998  -24.3959  -53.1438 H         1 UNK         0.3000 
    226 H226       -4.7338  -25.2454  -55.9023 H         1 UNK         0.0600 
    227 H227       -3.4207  -26.2636  -54.0619 H         1 UNK         0.0600 
    228 H228       -2.3600  -25.5416  -55.2631 H         1 UNK         0.0600 
    229 H229       -2.6417  -24.7192  -53.7353 H         1 UNK         0.0600 
    230 H230       -5.7918  -23.1212  -56.5564 H         1 UNK         0.3000 
    231 H231       -5.7293  -21.3270  -57.8546 H         1 UNK         0.0600 
    232 H232       -2.7490  -21.9035  -58.2557 H         1 UNK         0.0600 
    233 H233       -3.7759  -20.9337  -59.3010 H         1 UNK         0.0600 
    234 H234       -4.0665  -22.6585  -59.1519 H         1 UNK         0.0600 
    235 H235       -5.7949  -20.7019  -55.2721 H         1 UNK         0.3000 
    236 H236       -5.9695  -18.9715  -53.9698 H         1 UNK         0.0600 
    237 H237       -4.7843  -17.2581  -56.2055 H         1 UNK         0.0600 
    238 H238       -6.4890  -17.6660  -56.0040 H         1 UNK         0.0600 
    239 H239       -5.6695  -16.6755  -54.8063 H         1 UNK         0.0600 
    240 H240       -2.7062  -18.9984  -55.4000 H         1 UNK         0.3000 
    241 H241       -1.5327  -18.4532  -52.7146 H         1 UNK         0.0600 
    242 H242       -0.2742  -21.6602  -54.4826 H         1 UNK         0.3800 
    243 H243       -1.9019  -21.0509  -54.4869 H         1 UNK         0.3800 
    244 H244       -0.6191  -17.1582  -55.3233 H         1 UNK         0.0800 
    245 H245        0.2650  -17.0605  -53.8316 H         1 UNK         0.0800 
    246 H246       -0.2190  -15.9700  -51.8647 H         1 UNK         0.0800 
    247 H247       -0.5056  -14.2851  -52.2089 H         1 UNK         0.0800 
@<TRIPOS>BOND
     1    1    2 1    
     2    1  127 1    
     3    1  128 1    
     4    1  129 1    
     5    2    3 2    
     6    2    4 am   BACKBONE|DICT|INTERRES
     7    4    5 1    
     8    4  130 1    
     9    5    6 1    
    10    5   65 1    
    11    5  131 1    
    12    6    7 1    
    13    6  132 1    
    14    6  133 1    
    15    7    8 1    
    16    8    9 1    
    17    8  134 1    
    18    8  135 1    
    19    9   10 ar   
    20    9   14 ar   
    21   10   11 ar   
    22   10  136 1    
    23   11   12 ar   
    24   11  126 1    
    25   12   13 ar   
    26   12  137 1    
    27   13   14 ar   
    28   13   15 1    
    29   14  138 1    
    30   15   16 1    
    31   15  139 1    
    32   15  140 1    
    33   16   17 1    
    34   17   18 1    
    35   17  141 1    
    36   17  142 1    
    37   18   19 1    
    38   18   67 1    
    39   18  143 1    
    40   19   20 am   BACKBONE|DICT|INTERRES
    41   19  144 1    
    42   20   21 2    
    43   20   22 1    
    44   22   23 1    
    45   22   24 1    
    46   22  145 1    
    47   23  146 1    
    48   23  147 1    
    49   23  148 1    
    50   24   25 am   BACKBONE|DICT|INTERRES
    51   24  149 1    
    52   25   26 2    
    53   25   27 1    
    54   27   28 1    
    55   27   29 1    
    56   27  150 1    
    57   28  151 1    
    58   28  152 1    
    59   28  153 1    
    60   29   30 am   BACKBONE|DICT|INTERRES
    61   29  154 1    
    62   30   31 2    
    63   30   32 1    
    64   32   33 1    
    65   32   34 1    
    66   32  155 1    
    67   33  156 1    
    68   33  157 1    
    69   33  158 1    
    70   34   35 am   BACKBONE|DICT|INTERRES
    71   34  159 1    
    72   35   36 2    
    73   35   37 1    
    74   37   38 1    
    75   37   39 1    
    76   37  160 1    
    77   38  161 1    
    78   38  162 1    
    79   38  163 1    
    80   39   40 am   BACKBONE|DICT|INTERRES
    81   39  164 1    
    82   40   41 2    
    83   40   42 1    
    84   42   43 1    
    85   42   44 1    
    86   42  165 1    
    87   43  166 1    
    88   43  167 1    
    89   43  168 1    
    90   44   45 am   BACKBONE|DICT|INTERRES
    91   44  169 1    
    92   45   46 2    
    93   45   47 1    
    94   47   48 1    
    95   47   49 1    
    96   47  170 1    
    97   48  171 1    
    98   48  172 1    
    99   48  173 1    
   100   49   50 am   BACKBONE|DICT|INTERRES
   101   49  174 1    
   102   50   51 2    
   103   50   52 1    
   104   52   53 1    
   105   52   54 1    
   106   52  175 1    
   107   53  176 1    
   108   53  177 1    
   109   53  178 1    
   110   54   55 am   BACKBONE|DICT|INTERRES
   111   54  179 1    
   112   55   56 2    
   113   55   57 1    
   114   57   58 1    
   115   57   59 1    
   116   57  180 1    
   117   58  181 1    
   118   58  182 1    
   119   58  183 1    
   120   59   60 am   BACKBONE|DICT|INTERRES
   121   59  184 1    
   122   60   61 2    
   123   60   62 1    
   124   62   63 1    
   125   62   64 1    
   126   62  185 1    
   127   63  186 1    
   128   63  187 1    
   129   63  188 1    
   130   64   65 am   BACKBONE|DICT|INTERRES
   131   64  189 1    
   132   65   66 2    
   133   67   68 2    
   134   67   69 am   BACKBONE|DICT|INTERRES
   135   69   70 1    
   136   69  190 1    
   137   70   71 1    
   138   70   72 1    
   139   70  191 1    
   140   71  192 1    
   141   71  193 1    
   142   71  194 1    
   143   72   73 2    
   144   72   74 am   BACKBONE|DICT|INTERRES
   145   74   75 1    
   146   74  195 1    
   147   75   76 1    
   148   75   77 1    
   149   75  196 1    
   150   76  197 1    
   151   76  198 1    
   152   76  199 1    
   153   77   78 2    
   154   77   79 am   BACKBONE|DICT|INTERRES
   155   79   80 1    
   156   79  200 1    
   157   80   81 1    
   158   80   82 1    
   159   80  201 1    
   160   81  202 1    
   161   81  203 1    
   162   81  204 1    
   163   82   83 2    
   164   82   84 am   BACKBONE|DICT|INTERRES
   165   84   85 1    
   166   84  205 1    
   167   85   86 1    
   168   85   87 1    
   169   85  206 1    
   170   86  207 1    
   171   86  208 1    
   172   86  209 1    
   173   87   88 2    
   174   87   89 am   BACKBONE|DICT|INTERRES
   175   89   90 1    
   176   89  210 1    
   177   90   91 1    
   178   90   92 1    
   179   90  211 1    
   180   91  212 1    
   181   91  213 1    
   182   91  214 1    
   183   92   93 2    
   184   92   94 am   BACKBONE|DICT|INTERRES
   185   94   95 1    
   186   94  215 1    
   187   95   96 1    
   188   95   97 1    
   189   95  216 1    
   190   96  217 1    
   191   96  218 1    
   192   96  219 1    
   193   97   98 2    
   194   97   99 am   BACKBONE|DICT|INTERRES
   195   99  100 1    
   196   99  220 1    
   197  100  101 1    
   198  100  102 1    
   199  100  221 1    
   200  101  222 1    
   201  101  223 1    
   202  101  224 1    
   203  102  103 2    
   204  102  104 am   BACKBONE|DICT|INTERRES
   205  104  105 1    
   206  104  225 1    
   207  105  106 1    
   208  105  107 1    
   209  105  226 1    
   210  106  227 1    
   211  106  228 1    
   212  106  229 1    
   213  107  108 2    
   214  107  109 am   BACKBONE|DICT|INTERRES
   215  109  110 1    
   216  109  230 1    
   217  110  111 1    
   218  110  112 1    
   219  110  231 1    
   220  111  232 1    
   221  111  233 1    
   222  111  234 1    
   223  112  113 2    
   224  112  114 am   BACKBONE|DICT|INTERRES
   225  114  115 1    
   226  114  235 1    
   227  115  116 1    
   228  115  117 1    
   229  115  236 1    
   230  116  237 1    
   231  116  238 1    
   232  116  239 1    
   233  117  118 2    
   234  117  119 am   BACKBONE|DICT|INTERRES
   235  119  120 1    
   236  119  240 1    
   237  120  121 1    
   238  120  124 1    
   239  120  241 1    
   240  121  122 am   BACKBONE|DICT|INTERRES
   241  121  123 2    
   242  122  242 1    
   243  122  243 1    
   244  124  125 1    
   245  124  244 1    
   246  124  245 1    
   247  125  126 1    
   248  126  246 1    
   249  126  247 1    
@<TRIPOS>SUBSTRUCTURE
     1 UNK         1 GROUP             0       ****    0 ROOT    
