@<TRIPOS>MOLECULE
3R540
247   249    1
SMALL
USER_CHARGES


@<TRIPOS>ATOM
      1 CA          5.1602  -13.1568  -43.8407 C.3       0 UNK        -0.1800 
      2 C           3.9481  -13.0333  -44.7505 C.2       0 UNK         0.5000 
      3 O           3.3699  -11.9522  -44.8594 O.2       0 UNK        -0.5000 
      4 N           3.5721  -14.1275  -45.4246 N.am      1 UNK        -0.5000 
      5 CA          2.3917  -14.2635  -46.2948 C.3       1 UNK         0.1400 
      6 C6          2.1256  -15.7435  -46.6566 C.3       23 UNK        -0.0398 
      7 S7          3.5209  -16.5535  -47.5228 S.3       23 UNK        -0.2404 
      8 C8          2.9304  -16.6393  -49.2446 C.3       23 UNK        -0.0205 
      9 C9          1.6368  -17.4301  -49.3948 C.ar      23 UNK        -0.0193 
     10 C10         0.4575  -16.7727  -49.7490 C.ar      23 UNK        -0.1150 
     11 C11        -0.7291  -17.4866  -49.9206 C.ar      23 UNK        -0.0193 
     12 C12        -0.7353  -18.8722  -49.7236 C.ar      23 UNK        -0.1150 
     13 C13         0.4378  -19.5509  -49.3606 C.ar      23 UNK        -0.0193 
     14 C14         1.6191  -18.8155  -49.2072 C.ar      23 UNK        -0.1150 
     15 C15         0.5051  -21.0705  -49.1646 C.3       23 UNK        -0.0205 
     16 S16        -1.0931  -21.9615  -49.1021 S.3       23 UNK        -0.2404 
     17 C17        -1.5635  -21.7156  -47.3571 C.3       23 UNK        -0.0398 
     18 CA         -1.1260  -22.8871  -46.4433 C.3       11 UNK         0.1400 
     19 N          -0.8422  -22.4223  -45.0768 N.am      11 UNK        -0.5000 
     20 C          -0.3182  -23.1596  -44.0832 C.2       10 UNK         0.5000 
     21 O          -0.1440  -24.3765  -44.1545 O.2       10 UNK        -0.5000 
     22 CA          0.0984  -22.3844  -42.8171 C.3       10 UNK         0.1400 
     23 CB          0.8362  -23.2537  -41.7781 C.3       10 UNK        -0.1800 
     24 N           0.8783  -21.1973  -43.1731 N.am      10 UNK        -0.5000 
     25 C           2.0409  -21.1564  -43.8433 C.2       9 UNK         0.5000 
     26 O           2.7346  -22.1420  -44.0944 O.2       9 UNK        -0.5000 
     27 CA          2.4701  -19.7824  -44.3849 C.3       9 UNK         0.1400 
     28 CB          2.1482  -19.7201  -45.8842 C.3       9 UNK        -0.1800 
     29 N           1.7840  -18.6787  -43.7108 N.am      9 UNK        -0.5000 
     30 C           2.1893  -18.1259  -42.5590 C.2       8 UNK         0.5000 
     31 O           3.2427  -18.4183  -41.9928 O.2       8 UNK        -0.5000 
     32 CA          1.2439  -17.0932  -41.9154 C.3       8 UNK         0.1400 
     33 CB          1.6244  -15.6687  -42.3468 C.3       8 UNK        -0.1800 
     34 N          -0.1663  -17.3445  -42.2306 N.am      8 UNK        -0.5000 
     35 C          -0.8732  -18.3772  -41.7412 C.2       7 UNK         0.5000 
     36 O          -0.4157  -19.1907  -40.9394 O.2       7 UNK        -0.5000 
     37 CA         -2.3133  -18.5757  -42.2567 C.3       7 UNK         0.1400 
     38 CB         -3.3219  -17.9470  -41.2841 C.3       7 UNK        -0.1800 
     39 N          -2.5377  -18.0251  -43.5917 N.am      7 UNK        -0.5000 
     40 C          -1.9255  -18.4191  -44.7166 C.2       6 UNK         0.5000 
     41 O          -1.1642  -19.3874  -44.7707 O.2       6 UNK        -0.5000 
     42 CA         -2.1755  -17.5599  -45.9766 C.3       6 UNK         0.1400 
     43 CB         -3.2048  -18.2455  -46.8858 C.3       6 UNK        -0.1800 
     44 N          -2.6503  -16.1980  -45.6921 N.am      6 UNK        -0.5000 
     45 C          -2.0018  -15.2716  -44.9725 C.2       5 UNK         0.5000 
     46 O          -0.9008  -15.4644  -44.4504 O.2       5 UNK        -0.5000 
     47 CA         -2.7657  -13.9531  -44.7317 C.3       5 UNK         0.1400 
     48 CB         -3.9368  -14.1850  -43.7615 C.3       5 UNK        -0.1800 
     49 N          -1.9122  -12.9050  -44.1733 N.am      5 UNK        -0.5000 
     50 C          -0.9485  -12.2667  -44.8457 C.2       4 UNK         0.5000 
     51 O          -0.7391  -12.4296  -46.0493 O.2       4 UNK        -0.5000 
     52 CA         -0.0769  -11.3031  -44.0157 C.3       4 UNK         0.1400 
     53 CB          0.6682  -12.0572  -42.9001 C.3       4 UNK        -0.1800 
     54 N           0.9123  -10.6137  -44.8416 N.am      4 UNK        -0.5000 
     55 C           0.6719   -9.5381  -45.6020 C.2       3 UNK         0.5000 
     56 O          -0.4163   -8.9620  -45.6449 O.2       3 UNK        -0.5000 
     57 CA          1.8376   -9.0151  -46.4586 C.3       3 UNK         0.1400 
     58 CB          2.7834   -8.1478  -45.6125 C.3       3 UNK        -0.1800 
     59 N           2.5988  -10.1149  -47.0526 N.am      3 UNK        -0.5000 
     60 C           2.7809  -10.3081  -48.3670 C.2       2 UNK         0.5000 
     61 O           2.3573   -9.5465  -49.2375 O.2       2 UNK        -0.5000 
     62 CA          3.5715  -11.5646  -48.7917 C.3       2 UNK         0.1400 
     63 CB          5.0496  -11.2176  -49.0255 C.3       2 UNK        -0.1800 
     64 N           3.4889  -12.6404  -47.8049 N.am      2 UNK        -0.5000 
     65 C           2.3864  -13.3585  -47.5525 C.2       1 UNK         0.5000 
     66 O           1.3849  -13.3184  -48.2673 O.2       1 UNK        -0.5000 
     67 C          -2.1003  -24.0863  -46.5338 C.2       11 UNK         0.5000 
     68 O          -2.0846  -24.8050  -47.5329 O.2       11 UNK        -0.5000 
     69 N          -2.8806  -24.3404  -45.4738 N.am      12 UNK        -0.5000 
     70 CA         -3.6898  -25.5497  -45.2980 C.3       12 UNK         0.1400 
     71 CB         -4.4845  -25.4351  -43.9894 C.3       12 UNK        -0.1800 
     72 C          -2.8652  -26.8566  -45.3178 C.2       12 UNK         0.5000 
     73 O          -3.3815  -27.8844  -45.7562 O.2       12 UNK        -0.5000 
     74 N          -1.5880  -26.7929  -44.9072 N.am      13 UNK        -0.5000 
     75 CA         -0.6269  -27.8974  -45.0010 C.3       13 UNK         0.1400 
     76 CB          0.5959  -27.5833  -44.1261 C.3       13 UNK        -0.1800 
     77 C          -0.1905  -28.1966  -46.4510 C.2       13 UNK         0.5000 
     78 O           0.2393  -29.3147  -46.7344 O.2       13 UNK        -0.5000 
     79 N          -0.3441  -27.2111  -47.3459 N.am      14 UNK        -0.5000 
     80 CA         -0.1605  -27.3248  -48.7938 C.3       14 UNK         0.1400 
     81 CB          0.5793  -26.0720  -49.2987 C.3       14 UNK        -0.1800 
     82 C          -1.5155  -27.5167  -49.5100 C.2       14 UNK         0.5000 
     83 O          -1.6283  -27.2123  -50.6983 O.2       14 UNK        -0.5000 
     84 N          -2.5343  -27.9800  -48.7667 N.am      15 UNK        -0.5000 
     85 CA         -3.9161  -28.2381  -49.1871 C.3       15 UNK         0.1400 
     86 CB         -3.9619  -29.3905  -50.2122 C.3       15 UNK        -0.1800 
     87 C          -4.6685  -26.9826  -49.6783 C.2       15 UNK         0.5000 
     88 O          -5.6581  -27.1155  -50.3999 O.2       15 UNK        -0.5000 
     89 N          -4.1835  -25.7907  -49.2919 N.am      16 UNK        -0.5000 
     90 CA         -4.6515  -24.4641  -49.7049 C.3       16 UNK         0.1400 
     91 CB         -6.0761  -24.2006  -49.1715 C.3       16 UNK        -0.1800 
     92 C          -4.5167  -24.2118  -51.2237 C.2       16 UNK         0.5000 
     93 O          -5.2420  -23.3788  -51.7682 O.2       16 UNK        -0.5000 
     94 N          -3.5890  -24.9233  -51.8848 N.am      17 UNK        -0.5000 
     95 CA         -3.3989  -24.9048  -53.3368 C.3       17 UNK         0.1400 
     96 CB         -2.3682  -25.9729  -53.7313 C.3       17 UNK        -0.1800 
     97 C          -2.9958  -23.5251  -53.8847 C.2       17 UNK         0.5000 
     98 O          -3.5498  -23.0868  -54.8933 O.2       17 UNK        -0.5000 
     99 N          -2.0659  -22.8528  -53.1927 N.am      18 UNK        -0.5000 
    100 CA        -1.6641  -21.4821  -53.5086 C.3       18 UNK         0.1400 
    101 CB        -0.2721  -21.1988  -52.9318 C.3       18 UNK        -0.1800 
    102 C         -2.6896  -20.4585  -52.9960 C.2       18 UNK         0.5000 
    103 O         -2.9493  -19.4731  -53.6826 O.2       18 UNK        -0.5000 
    104 N         -3.2964  -20.7259  -51.8296 N.am      19 UNK        -0.5000 
    105 CA        -4.3072  -19.8686  -51.2022 C.3       19 UNK         0.1400 
    106 CB        -4.6339  -20.3896  -49.7970 C.3       19 UNK        -0.1800 
    107 C         -5.5852  -19.6896  -52.0419 C.2       19 UNK         0.5000 
    108 O         -6.2173  -18.6374  -51.9604 O.2       19 UNK        -0.5000 
    109 N         -5.9115  -20.6915  -52.8676 N.am      20 UNK        -0.5000 
    110 CA        -6.9700  -20.6341  -53.8742 C.3       20 UNK         0.1400 
    111 CB        -7.2084  -22.0499  -54.4206 C.3       20 UNK        -0.1800 
    112 C         -6.6714  -19.6518  -55.0280 C.2       20 UNK         0.5000 
    113 O         -7.6138  -19.1538  -55.6453 O.2       20 UNK        -0.5000 
    114 N         -5.3850  -19.3929  -55.3056 N.am      21 UNK        -0.5000 
    115 CA        -4.9279  -18.4539  -56.3312 C.3       21 UNK         0.1400 
    116 CB        -3.6356  -18.9871  -56.9706 C.3       21 UNK        -0.1800 
    117 C         -4.7145  -17.0346  -55.7712 C.2       21 UNK         0.5000 
    118 O         -4.8418  -16.0721  -56.5297 O.2       21 UNK        -0.5000 
    119 N         -4.3966  -16.9210  -54.4730 N.am      22 UNK        -0.5000 
    120 CA        -4.2566  -15.6519  -53.7372 C.3       22 UNK         0.1400 
    121 C         -5.5496  -14.7854  -53.7559 C.2       22 UNK         0.5000 
    122 N         -5.4179  -13.4685  -53.8433 N.am      22 UNK        -0.7600 
    123 O         -6.6655  -15.2885  -53.6467 O.2       22 UNK        -0.5000 
    124 C124       -3.8016  -15.8757  -52.2713 C.3       23 UNK        -0.0398 
    125 S125       -2.1499  -16.6342  -52.1331 S.3       23 UNK        -0.2404 
    126 C126       -1.9973  -16.7514  -50.3240 C.3       23 UNK        -0.0205 
    127 H127        5.5789  -14.1633  -43.8571 H         1 UNK         0.0600 
    128 H128        4.8804  -12.9210  -42.8140 H         1 UNK         0.0600 
    129 H129        5.9363  -12.4584  -44.1532 H         1 UNK         0.0600 
    130 H130        4.1215  -14.9702  -45.3293 H         1 UNK         0.3000 
    131 H131        1.5398  -13.9309  -45.6990 H         1 UNK         0.0600 
    132 H132        1.2035  -15.8369  -47.2303 H         1 UNK         0.0800 
    133 H133        1.9399  -16.3066  -45.7415 H         1 UNK         0.0800 
    134 H134        3.7033  -17.1061  -49.8563 H         1 UNK         0.0800 
    135 H135        2.8114  -15.6255  -49.6300 H         1 UNK         0.0800 
    136 H136        0.4636  -15.7022  -49.9019 H         1 UNK         0.1150 
    137 H137       -1.6563  -19.4130  -49.8713 H         1 UNK         0.1150 
    138 H138        2.5358  -19.3233  -48.9415 H         1 UNK         0.1150 
    139 H139        1.0625  -21.2943  -48.2543 H         1 UNK         0.0800 
    140 H140        1.0945  -21.4899  -49.9803 H         1 UNK         0.0800 
    141 H141       -2.6400  -21.5511  -47.2931 H         1 UNK         0.0800 
    142 H142       -1.1007  -20.7849  -47.0287 H         1 UNK         0.0800 
    143 H143       -0.1682  -23.2585  -46.8142 H         1 UNK         0.0600 
    144 H144       -0.9481  -21.4246  -44.9209 H         1 UNK         0.3000 
    145 H145       -0.8218  -22.0247  -42.3546 H         1 UNK         0.0600 
    146 H146        1.1182  -22.6665  -40.9042 H         1 UNK         0.0600 
    147 H147        0.1990  -24.0679  -41.4313 H         1 UNK         0.0600 
    148 H148        1.7413  -23.7027  -42.1876 H         1 UNK         0.0600 
    149 H149        0.4088  -20.3157  -43.0261 H         1 UNK         0.3000 
    150 H150        3.5496  -19.6805  -44.2553 H         1 UNK         0.0600 
    151 H151        2.7173  -20.4673  -46.4384 H         1 UNK         0.0600 
    152 H152        2.4004  -18.7496  -46.2978 H         1 UNK         0.0600 
    153 H153        1.0916  -19.8976  -46.0838 H         1 UNK         0.0600 
    154 H154        0.8960  -18.3955  -44.1011 H         1 UNK         0.3000 
    155 H155        1.3676  -17.1613  -40.8324 H         1 UNK         0.0600 
    156 H156        1.5460  -15.5367  -43.4257 H         1 UNK         0.0600 
    157 H157        2.6516  -15.4350  -42.0642 H         1 UNK         0.0600 
    158 H158        0.9798  -14.9305  -41.8703 H         1 UNK         0.0600 
    159 H159       -0.5932  -16.7193  -42.9074 H         1 UNK         0.3000 
    160 H160       -2.5015  -19.6504  -42.3025 H         1 UNK         0.0600 
    161 H161       -3.1951  -16.8657  -41.2161 H         1 UNK         0.0600 
    162 H162       -3.2032  -18.3553  -40.2795 H         1 UNK         0.0600 
    163 H163       -4.3476  -18.1466  -41.5949 H         1 UNK         0.0600 
    164 H164       -3.1531  -17.2281  -43.6489 H         1 UNK         0.3000 
    165 H165       -1.2298  -17.4776  -46.5168 H         1 UNK         0.0600 
    166 H166       -3.4607  -17.6210  -47.7398 H         1 UNK         0.0600 
    167 H167       -4.1296  -18.4708  -46.3529 H         1 UNK         0.0600 
    168 H168       -2.8139  -19.1808  -47.2792 H         1 UNK         0.0600 
    169 H169       -3.5577  -15.9637  -46.0683 H         1 UNK         0.3000 
    170 H170       -3.1616  -13.6063  -45.6885 H         1 UNK         0.0600 
    171 H171       -4.6445  -14.9148  -44.1566 H         1 UNK         0.0600 
    172 H172       -3.5918  -14.5524  -42.7939 H         1 UNK         0.0600 
    173 H173       -4.4934  -13.2634  -43.5894 H         1 UNK         0.0600 
    174 H174       -2.0040  -12.7397  -43.1822 H         1 UNK         0.3000 
    175 H175       -0.7330  -10.5613  -43.5556 H         1 UNK         0.0600 
    176 H176        1.2642  -12.8763  -43.3022 H         1 UNK         0.0600 
    177 H177        1.3388  -11.3940  -42.3531 H         1 UNK         0.0600 
    178 H178       -0.0243  -12.4830  -42.1736 H         1 UNK         0.0600 
    179 H179        1.8346  -11.0417  -44.8636 H         1 UNK         0.3000 
    180 H180        1.4054   -8.3831  -47.2371 H         1 UNK         0.0600 
    181 H181        3.2570   -8.7257  -44.8176 H         1 UNK         0.0600 
    182 H182        2.2447   -7.3226  -45.1451 H         1 UNK         0.0600 
    183 H183        3.5730   -7.7148  -46.2268 H         1 UNK         0.0600 
    184 H184        2.9681  -10.8044  -46.4062 H         1 UNK         0.3000 
    185 H185        3.1496  -11.9233  -49.7329 H         1 UNK         0.0600 
    186 H186        5.6069  -12.0842  -49.3818 H         1 UNK         0.0600 
    187 H187        5.1521  -10.4344  -49.7778 H         1 UNK         0.0600 
    188 H188        5.5288  -10.8608  -48.1128 H         1 UNK         0.0600 
    189 H189        4.2741  -12.7462  -47.1795 H         1 UNK         0.3000 
    190 H190       -2.8282  -23.7135  -44.6850 H         1 UNK         0.3000 
    191 H191       -4.3985  -25.5976  -46.1275 H         1 UNK         0.0600 
    192 H192       -5.1186  -26.3101  -43.8395 H         1 UNK         0.0600 
    193 H193       -5.1361  -24.5612  -43.9984 H         1 UNK         0.0600 
    194 H194       -3.8249  -25.3551  -43.1243 H         1 UNK         0.0600 
    195 H195       -1.2141  -25.9053  -44.5794 H         1 UNK         0.3000 
    196 H196       -1.1038  -28.7974  -44.6072 H         1 UNK         0.0600 
    197 H197        1.1450  -26.7175  -44.4981 H         1 UNK         0.0600 
    198 H198        0.3039  -27.3780  -43.0961 H         1 UNK         0.0600 
    199 H199        1.2883  -28.4258  -44.1071 H         1 UNK         0.0600 
    200 H200       -0.7561  -26.3393  -47.0363 H         1 UNK         0.3000 
    201 H201        0.4531  -28.1969  -49.0271 H         1 UNK         0.0600 
    202 H202       -0.0166  -25.1681  -49.1693 H         1 UNK         0.0600 
    203 H203        0.8163  -26.1573  -50.3598 H         1 UNK         0.0600 
    204 H204        1.5211  -25.9303  -48.7686 H         1 UNK         0.0600 
    205 H205       -2.3545  -28.1549  -47.7868 H         1 UNK         0.3000 
    206 H206       -4.4452  -28.5716  -48.2935 H         1 UNK         0.0600 
    207 H207       -3.4277  -30.2667  -49.8448 H         1 UNK         0.0600 
    208 H208       -4.9887  -29.6996  -50.4105 H         1 UNK         0.0600 
    209 H209       -3.5184  -29.1021  -51.1658 H         1 UNK         0.0600 
    210 H210       -3.3556  -25.7769  -48.7037 H         1 UNK         0.3000 
    211 H211       -3.9851  -23.7450  -49.2270 H         1 UNK         0.0600 
    212 H212       -6.3940  -23.1764  -49.3633 H         1 UNK         0.0600 
    213 H213       -6.1258  -24.3561  -48.0938 H         1 UNK         0.0600 
    214 H214       -6.8122  -24.8545  -49.6391 H         1 UNK         0.0600 
    215 H215       -3.0310  -25.5926  -51.3675 H         1 UNK         0.3000 
    216 H216       -4.3537  -25.1721  -53.7944 H         1 UNK         0.0600 
    217 H217       -1.3989  -25.7894  -53.2660 H         1 UNK         0.0600 
    218 H218       -2.2177  -25.9929  -54.8114 H         1 UNK         0.0600 
    219 H219       -2.6984  -26.9676  -53.4304 H         1 UNK         0.0600 
    220 H220       -1.6544  -23.2840  -52.3778 H         1 UNK         0.3000 
    221 H221       -1.6006  -21.3720  -54.5936 H         1 UNK         0.0600 
    222 H222        0.4741  -21.8779  -53.3441 H         1 UNK         0.0600 
    223 H223       -0.2638  -21.3056  -51.8504 H         1 UNK         0.0600 
    224 H224        0.0470  -20.1812  -53.1617 H         1 UNK         0.0600 
    225 H225       -3.0477  -21.5710  -51.3394 H         1 UNK         0.3000 
    226 H226       -3.8660  -18.8796  -51.0976 H         1 UNK         0.0600 
    227 H227       -5.0533  -21.3924  -49.8321 H         1 UNK         0.0600 
    228 H228       -3.7455  -20.4185  -49.1695 H         1 UNK         0.0600 
    229 H229       -5.3604  -19.7458  -49.2996 H         1 UNK         0.0600 
    230 H230       -5.3914  -21.5596  -52.8004 H         1 UNK         0.3000 
    231 H231       -7.8855  -20.2980  -53.3832 H         1 UNK         0.0600 
    232 H232       -6.3171  -22.4464  -54.9085 H         1 UNK         0.0600 
    233 H233       -8.0162  -22.0567  -55.1534 H         1 UNK         0.0600 
    234 H234       -7.4864  -22.7389  -53.6226 H         1 UNK         0.0600 
    235 H235       -4.6622  -19.7997  -54.7233 H         1 UNK         0.3000 
    236 H236       -5.6793  -18.3857  -57.1207 H         1 UNK         0.0600 
    237 H237       -3.7808  -19.9875  -57.3786 H         1 UNK         0.0600 
    238 H238       -3.3157  -18.3442  -57.7914 H         1 UNK         0.0600 
    239 H239       -2.8144  -19.0328  -56.2554 H         1 UNK         0.0600 
    240 H240       -4.2361  -17.7670  -53.9418 H         1 UNK         0.3000 
    241 H241       -3.4754  -15.0850  -54.2475 H         1 UNK         0.0600 
    242 H242       -6.2461  -12.8931  -53.8416 H         1 UNK         0.3800 
    243 H243       -4.5136  -13.0299  -53.9279 H         1 UNK         0.3800 
    244 H244       -4.5246  -16.4971  -51.7409 H         1 UNK         0.0800 
    245 H245       -3.7656  -14.9251  -51.7355 H         1 UNK         0.0800 
    246 H246       -2.8691  -17.2568  -49.9130 H         1 UNK         0.0800 
    247 H247       -1.9981  -15.7476  -49.8961 H         1 UNK         0.0800 
@<TRIPOS>BOND
     1    1    2 1    
     2    1  127 1    
     3    1  128 1    
     4    1  129 1    
     5    2    3 2    
     6    2    4 am   BACKBONE|DICT|INTERRES
     7    4    5 1    
     8    4  130 1    
     9    5    6 1    
    10    5   65 1    
    11    5  131 1    
    12    6    7 1    
    13    6  132 1    
    14    6  133 1    
    15    7    8 1    
    16    8    9 1    
    17    8  134 1    
    18    8  135 1    
    19    9   10 ar   
    20    9   14 ar   
    21   10   11 ar   
    22   10  136 1    
    23   11   12 ar   
    24   11  126 1    
    25   12   13 ar   
    26   12  137 1    
    27   13   14 ar   
    28   13   15 1    
    29   14  138 1    
    30   15   16 1    
    31   15  139 1    
    32   15  140 1    
    33   16   17 1    
    34   17   18 1    
    35   17  141 1    
    36   17  142 1    
    37   18   19 1    
    38   18   67 1    
    39   18  143 1    
    40   19   20 am   BACKBONE|DICT|INTERRES
    41   19  144 1    
    42   20   21 2    
    43   20   22 1    
    44   22   23 1    
    45   22   24 1    
    46   22  145 1    
    47   23  146 1    
    48   23  147 1    
    49   23  148 1    
    50   24   25 am   BACKBONE|DICT|INTERRES
    51   24  149 1    
    52   25   26 2    
    53   25   27 1    
    54   27   28 1    
    55   27   29 1    
    56   27  150 1    
    57   28  151 1    
    58   28  152 1    
    59   28  153 1    
    60   29   30 am   BACKBONE|DICT|INTERRES
    61   29  154 1    
    62   30   31 2    
    63   30   32 1    
    64   32   33 1    
    65   32   34 1    
    66   32  155 1    
    67   33  156 1    
    68   33  157 1    
    69   33  158 1    
    70   34   35 am   BACKBONE|DICT|INTERRES
    71   34  159 1    
    72   35   36 2    
    73   35   37 1    
    74   37   38 1    
    75   37   39 1    
    76   37  160 1    
    77   38  161 1    
    78   38  162 1    
    79   38  163 1    
    80   39   40 am   BACKBONE|DICT|INTERRES
    81   39  164 1    
    82   40   41 2    
    83   40   42 1    
    84   42   43 1    
    85   42   44 1    
    86   42  165 1    
    87   43  166 1    
    88   43  167 1    
    89   43  168 1    
    90   44   45 am   BACKBONE|DICT|INTERRES
    91   44  169 1    
    92   45   46 2    
    93   45   47 1    
    94   47   48 1    
    95   47   49 1    
    96   47  170 1    
    97   48  171 1    
    98   48  172 1    
    99   48  173 1    
   100   49   50 am   BACKBONE|DICT|INTERRES
   101   49  174 1    
   102   50   51 2    
   103   50   52 1    
   104   52   53 1    
   105   52   54 1    
   106   52  175 1    
   107   53  176 1    
   108   53  177 1    
   109   53  178 1    
   110   54   55 am   BACKBONE|DICT|INTERRES
   111   54  179 1    
   112   55   56 2    
   113   55   57 1    
   114   57   58 1    
   115   57   59 1    
   116   57  180 1    
   117   58  181 1    
   118   58  182 1    
   119   58  183 1    
   120   59   60 am   BACKBONE|DICT|INTERRES
   121   59  184 1    
   122   60   61 2    
   123   60   62 1    
   124   62   63 1    
   125   62   64 1    
   126   62  185 1    
   127   63  186 1    
   128   63  187 1    
   129   63  188 1    
   130   64   65 am   BACKBONE|DICT|INTERRES
   131   64  189 1    
   132   65   66 2    
   133   67   68 2    
   134   67   69 am   BACKBONE|DICT|INTERRES
   135   69   70 1    
   136   69  190 1    
   137   70   71 1    
   138   70   72 1    
   139   70  191 1    
   140   71  192 1    
   141   71  193 1    
   142   71  194 1    
   143   72   73 2    
   144   72   74 am   BACKBONE|DICT|INTERRES
   145   74   75 1    
   146   74  195 1    
   147   75   76 1    
   148   75   77 1    
   149   75  196 1    
   150   76  197 1    
   151   76  198 1    
   152   76  199 1    
   153   77   78 2    
   154   77   79 am   BACKBONE|DICT|INTERRES
   155   79   80 1    
   156   79  200 1    
   157   80   81 1    
   158   80   82 1    
   159   80  201 1    
   160   81  202 1    
   161   81  203 1    
   162   81  204 1    
   163   82   83 2    
   164   82   84 am   BACKBONE|DICT|INTERRES
   165   84   85 1    
   166   84  205 1    
   167   85   86 1    
   168   85   87 1    
   169   85  206 1    
   170   86  207 1    
   171   86  208 1    
   172   86  209 1    
   173   87   88 2    
   174   87   89 am   BACKBONE|DICT|INTERRES
   175   89   90 1    
   176   89  210 1    
   177   90   91 1    
   178   90   92 1    
   179   90  211 1    
   180   91  212 1    
   181   91  213 1    
   182   91  214 1    
   183   92   93 2    
   184   92   94 am   BACKBONE|DICT|INTERRES
   185   94   95 1    
   186   94  215 1    
   187   95   96 1    
   188   95   97 1    
   189   95  216 1    
   190   96  217 1    
   191   96  218 1    
   192   96  219 1    
   193   97   98 2    
   194   97   99 am   BACKBONE|DICT|INTERRES
   195   99  100 1    
   196   99  220 1    
   197  100  101 1    
   198  100  102 1    
   199  100  221 1    
   200  101  222 1    
   201  101  223 1    
   202  101  224 1    
   203  102  103 2    
   204  102  104 am   BACKBONE|DICT|INTERRES
   205  104  105 1    
   206  104  225 1    
   207  105  106 1    
   208  105  107 1    
   209  105  226 1    
   210  106  227 1    
   211  106  228 1    
   212  106  229 1    
   213  107  108 2    
   214  107  109 am   BACKBONE|DICT|INTERRES
   215  109  110 1    
   216  109  230 1    
   217  110  111 1    
   218  110  112 1    
   219  110  231 1    
   220  111  232 1    
   221  111  233 1    
   222  111  234 1    
   223  112  113 2    
   224  112  114 am   BACKBONE|DICT|INTERRES
   225  114  115 1    
   226  114  235 1    
   227  115  116 1    
   228  115  117 1    
   229  115  236 1    
   230  116  237 1    
   231  116  238 1    
   232  116  239 1    
   233  117  118 2    
   234  117  119 am   BACKBONE|DICT|INTERRES
   235  119  120 1    
   236  119  240 1    
   237  120  121 1    
   238  120  124 1    
   239  120  241 1    
   240  121  122 am   BACKBONE|DICT|INTERRES
   241  121  123 2    
   242  122  242 1    
   243  122  243 1    
   244  124  125 1    
   245  124  244 1    
   246  124  245 1    
   247  125  126 1    
   248  126  246 1    
   249  126  247 1    
@<TRIPOS>SUBSTRUCTURE
     1 UNK         1 GROUP             0       ****    0 ROOT    
