@<TRIPOS>MOLECULE
3R540
247   249    1
SMALL
USER_CHARGES


@<TRIPOS>ATOM
      1 CA          0.3905  -15.6825  -48.0705 C.3       0 UNK        -0.1800 
      2 C           1.8371  -15.2104  -48.1825 C.2       0 UNK         0.5000 
      3 O           2.7199  -16.0264  -48.4367 O.2       0 UNK        -0.5000 
      4 N           2.1394  -13.9170  -48.0118 N.am      1 UNK        -0.5000 
      5 CA          1.2190  -12.8159  -47.6859 C.3       1 UNK         0.1400 
      6 C6          1.1761  -11.7453  -48.8074 C.3       23 UNK        -0.0398 
      7 S7          0.6458  -12.4103  -50.4218 S.3       23 UNK        -0.2404 
      8 C8         -1.1439  -12.0646  -50.4231 C.3       23 UNK        -0.0205 
      9 C9         -1.9494  -13.3472  -50.5577 C.ar      23 UNK        -0.0193 
     10 C10        -1.9889  -14.0167  -51.7837 C.ar      23 UNK        -0.1150 
     11 C11        -2.7139  -15.2025  -51.9243 C.ar      23 UNK        -0.0193 
     12 C12        -3.4051  -15.7203  -50.8253 C.ar      23 UNK        -0.1150 
     13 C13        -3.3879  -15.0515  -49.5967 C.ar      23 UNK        -0.0193 
     14 C14        -2.6598  -13.8634  -49.4697 C.ar      23 UNK        -0.1150 
     15 C15        -4.1745  -15.6007  -48.4156 C.3       23 UNK        -0.0205 
     16 S16        -3.0735  -16.1568  -47.0760 S.3       23 UNK        -0.2404 
     17 C17        -3.7973  -17.7653  -46.6080 C.3       23 UNK        -0.0398 
     18 CA         -2.9400  -18.9525  -47.1076 C.3       11 UNK         0.1400 
     19 N          -1.6139  -18.9888  -46.4837 N.am      11 UNK        -0.5000 
     20 C          -0.6256  -19.8286  -46.8212 C.2       10 UNK         0.5000 
     21 O          -0.6955  -20.6288  -47.7529 O.2       10 UNK        -0.5000 
     22 CA          0.6226  -19.8239  -45.9243 C.3       10 UNK         0.1400 
     23 CB          1.5903  -18.6934  -46.3027 C.3       10 UNK        -0.1800 
     24 N           0.2617  -19.7177  -44.5119 N.am      10 UNK        -0.5000 
     25 C          -0.2511  -20.7226  -43.7894 C.2       9 UNK         0.5000 
     26 O          -0.4394  -21.8545  -44.2344 O.2       9 UNK        -0.5000 
     27 CA         -0.6596  -20.4023  -42.3395 C.3       9 UNK         0.1400 
     28 CB          0.4990  -20.6687  -41.3686 C.3       9 UNK        -0.1800 
     29 N          -1.1475  -19.0300  -42.1750 N.am      9 UNK        -0.5000 
     30 C          -2.3255  -18.6174  -42.6649 C.2       8 UNK         0.5000 
     31 O          -3.0778  -19.3369  -43.3212 O.2       8 UNK        -0.5000 
     32 CA         -2.7302  -17.1561  -42.4160 C.3       8 UNK         0.1400 
     33 CB         -3.2320  -16.9736  -40.9758 C.3       8 UNK        -0.1800 
     34 N          -1.6916  -16.1650  -42.6876 N.am      8 UNK        -0.5000 
     35 C          -0.9308  -16.0535  -43.7831 C.2       7 UNK         0.5000 
     36 O          -0.8839  -16.8942  -44.6784 O.2       7 UNK        -0.5000 
     37 CA         -0.0630  -14.7862  -43.8915 C.3       7 UNK         0.1400 
     38 CB         -0.9324  -13.5432  -44.1609 C.3       7 UNK        -0.1800 
     39 N           0.8190  -14.5997  -42.7364 N.am      7 UNK        -0.5000 
     40 C           0.4941  -14.3484  -41.4592 C.2       6 UNK         0.5000 
     41 O          -0.6450  -14.0672  -41.0810 O.2       6 UNK        -0.5000 
     42 CA          1.6346  -14.5117  -40.4343 C.3       6 UNK         0.1400 
     43 CB          1.1231  -14.6820  -38.9894 C.3       6 UNK        -0.1800 
     44 N           2.5490  -15.6051  -40.7832 N.am      6 UNK        -0.5000 
     45 C           2.2443  -16.9001  -40.9829 C.2       5 UNK         0.5000 
     46 O           1.1058  -17.3642  -40.8890 O.2       5 UNK        -0.5000 
     47 CA          3.3965  -17.8372  -41.4025 C.3       5 UNK         0.1400 
     48 CB          3.2848  -18.1680  -42.8991 C.3       5 UNK        -0.1800 
     49 N           4.7247  -17.2775  -41.1627 N.am      5 UNK        -0.5000 
     50 C           5.2888  -17.0721  -39.9647 C.2       4 UNK         0.5000 
     51 O           4.7998  -17.4559  -38.9021 O.2       4 UNK        -0.5000 
     52 CA          6.6061  -16.2671  -39.9566 C.3       4 UNK         0.1400 
     53 CB          7.8095  -17.2047  -39.7746 C.3       4 UNK        -0.1800 
     54 N           6.8077  -15.4630  -41.1694 N.am      4 UNK        -0.5000 
     55 C           6.0340  -14.4382  -41.5563 C.2       3 UNK         0.5000 
     56 O           5.0908  -14.0158  -40.8828 O.2       3 UNK        -0.5000 
     57 CA          6.3660  -13.8005  -42.9234 C.3       3 UNK         0.1400 
     58 CB          6.7782  -14.8451  -43.9855 C.3       3 UNK        -0.1800 
     59 N           5.2902  -12.9489  -43.4454 N.am      3 UNK        -0.5000 
     60 C           4.0435  -13.3087  -43.7865 C.2       2 UNK         0.5000 
     61 O           3.5999  -14.4556  -43.6839 O.2       2 UNK        -0.5000 
     62 CA          3.1315  -12.2118  -44.3665 C.3       2 UNK         0.1400 
     63 CB          3.8230  -10.8371  -44.5363 C.3       2 UNK        -0.1800 
     64 N           2.6112  -12.6947  -45.6437 N.am      2 UNK        -0.5000 
     65 C           1.5950  -12.1623  -46.3365 C.2       1 UNK         0.5000 
     66 O           0.9554  -11.1840  -45.9493 O.2       1 UNK        -0.5000 
     67 C          -3.6883  -20.2880  -46.9185 C.2       11 UNK         0.5000 
     68 O          -4.2503  -20.8053  -47.8837 O.2       11 UNK        -0.5000 
     69 N          -3.6437  -20.8462  -45.6991 N.am      12 UNK        -0.5000 
     70 CA         -4.2076  -22.1545  -45.3652 C.3       12 UNK         0.1400 
     71 CB         -4.1292  -22.3887  -43.8496 C.3       12 UNK        -0.1800 
     72 C          -3.5324  -23.3050  -46.1308 C.2       12 UNK         0.5000 
     73 O          -4.2342  -24.1664  -46.6589 O.2       12 UNK        -0.5000 
     74 N          -2.1941  -23.2810  -46.2170 N.am      13 UNK        -0.5000 
     75 CA         -1.4038  -24.2400  -46.9914 C.3       13 UNK         0.1400 
     76 CB          0.0925  -24.0253  -46.7211 C.3       13 UNK        -0.1800 
     77 C          -1.7048  -24.1735  -48.4994 C.2       13 UNK         0.5000 
     78 O          -1.8697  -25.2181  -49.1299 O.2       13 UNK        -0.5000 
     79 N          -1.8178  -22.9522  -49.0408 N.am      14 UNK        -0.5000 
     80 CA         -2.1924  -22.6969  -50.4308 C.3       14 UNK         0.1400 
     81 CB         -2.0347  -21.2034  -50.7509 C.3       14 UNK        -0.1800 
     82 C          -3.6133  -23.1862  -50.7603 C.2       14 UNK         0.5000 
     83 O          -3.8099  -23.8144  -51.8002 O.2       14 UNK        -0.5000 
     84 N          -4.5652  -22.9309  -49.8519 N.am      15 UNK        -0.5000 
     85 CA         -5.9476  -23.4020  -49.9392 C.3       15 UNK         0.1400 
     86 CB         -6.7934  -22.7215  -48.8529 C.3       15 UNK        -0.1800 
     87 C          -6.0680  -24.9345  -49.8473 C.2       15 UNK         0.5000 
     88 O          -6.8634  -25.5184  -50.5829 O.2       15 UNK        -0.5000 
     89 N          -5.2651  -25.5590  -48.9733 N.am      16 UNK        -0.5000 
     90 CA         -5.1786  -27.0122  -48.8130 C.3       16 UNK         0.1400 
     91 CB         -4.3744  -27.3483  -47.5480 C.3       16 UNK        -0.1800 
     92 C          -4.5765  -27.7105  -50.0461 C.2       16 UNK         0.5000 
     93 O          -5.0727  -28.7637  -50.4482 O.2       16 UNK        -0.5000 
     94 N          -3.5402  -27.1006  -50.6397 N.am      17 UNK        -0.5000 
     95 CA         -2.9367  -27.5308  -51.9035 C.3       17 UNK         0.1400 
     96 CB         -1.6057  -26.7917  -52.1023 C.3       17 UNK        -0.1800 
     97 C          -3.8640  -27.3070  -53.1146 C.2       17 UNK         0.5000 
     98 O          -3.7777  -28.0516  -54.0918 O.2       17 UNK        -0.5000 
     99 N          -4.7232  -26.2821  -53.0247 N.am      18 UNK        -0.5000 
    100 CA        -5.7692  -25.8400  -53.9526 C.3       18 UNK         0.1400 
    101 CB        -6.7971  -26.9536  -54.2249 C.3       18 UNK        -0.1800 
    102 C         -5.2320  -25.2325  -55.2593 C.2       18 UNK         0.5000 
    103 O         -5.6736  -24.1525  -55.6489 O.2       18 UNK        -0.5000 
    104 N         -4.2676  -25.9050  -55.8973 N.am      19 UNK        -0.5000 
    105 CA        -3.5911  -25.4533  -57.1151 C.3       19 UNK         0.1400 
    106 CB        -2.7885  -26.6255  -57.6997 C.3       19 UNK        -0.1800 
    107 C         -2.6756  -24.2348  -56.8829 C.2       19 UNK         0.5000 
    108 O         -2.4241  -23.4762  -57.8196 O.2       19 UNK        -0.5000 
    109 N         -2.1951  -24.0731  -55.6431 N.am      20 UNK        -0.5000 
    110 CA        -1.3324  -22.9722  -55.2167 C.3       20 UNK         0.1400 
    111 CB        -0.4586  -23.4625  -54.0533 C.3       20 UNK        -0.1800 
    112 C         -2.1145  -21.7074  -54.8106 C.2       20 UNK         0.5000 
    113 O         -1.5004  -20.6483  -54.6736 O.2       20 UNK        -0.5000 
    114 N         -3.4347  -21.8233  -54.6053 N.am      21 UNK        -0.5000 
    115 CA        -4.3130  -20.7061  -54.2611 C.3       21 UNK         0.1400 
    116 CB        -5.6576  -21.2486  -53.7541 C.3       21 UNK        -0.1800 
    117 C         -4.5200  -19.7683  -55.4642 C.2       21 UNK         0.5000 
    118 O         -4.6712  -20.2407  -56.5934 O.2       21 UNK        -0.5000 
    119 N         -4.5364  -18.4597  -55.1937 N.am      22 UNK        -0.5000 
    120 CA        -4.7132  -17.3958  -56.1960 C.3       22 UNK         0.1400 
    121 C         -6.1961  -17.0317  -56.5069 C.2       22 UNK         0.5000 
    122 N         -7.1823  -17.6199  -55.8403 N.am      22 UNK        -0.7600 
    123 O         -6.4589  -16.2142  -57.3850 O.2       22 UNK        -0.5000 
    124 C124       -3.8500  -16.1519  -55.8585 C.3       23 UNK        -0.0398 
    125 S125       -4.2085  -15.3998  -54.2305 S.3       23 UNK        -0.2404 
    126 C126       -2.7530  -15.9144  -53.2665 C.3       23 UNK        -0.0205 
    127 H127       -0.2380  -15.1655  -48.7942 H         1 UNK         0.0600 
    128 H128       -0.0025  -15.5065  -47.0699 H         1 UNK         0.0600 
    129 H129        0.3130  -16.7502  -48.2755 H         1 UNK         0.0600 
    130 H130        3.1011  -13.6363  -48.1418 H         1 UNK         0.3000 
    131 H131        0.2023  -13.1851  -47.5500 H         1 UNK         0.0600 
    132 H132        0.5225  -10.9145  -48.5363 H         1 UNK         0.0800 
    133 H133        2.1662  -11.3068  -48.9436 H         1 UNK         0.0800 
    134 H134       -1.3749  -11.4039  -51.2599 H         1 UNK         0.0800 
    135 H135       -1.4392  -11.5254  -49.5223 H         1 UNK         0.0800 
    136 H136       -1.4494  -13.6133  -52.6293 H         1 UNK         0.1150 
    137 H137       -3.9693  -16.6359  -50.9338 H         1 UNK         0.1150 
    138 H138       -2.6416  -13.3487  -48.5193 H         1 UNK         0.1150 
    139 H139       -4.8388  -14.8259  -48.0306 H         1 UNK         0.0800 
    140 H140       -4.8178  -16.4169  -48.7460 H         1 UNK         0.0800 
    141 H141       -4.8176  -17.8310  -46.9892 H         1 UNK         0.0800 
    142 H142       -3.8847  -17.7921  -45.5210 H         1 UNK         0.0800 
    143 H143       -2.7866  -18.8262  -48.1817 H         1 UNK         0.0600 
    144 H144       -1.4457  -18.3139  -45.7409 H         1 UNK         0.3000 
    145 H145        1.1438  -20.7710  -46.0794 H         1 UNK         0.0600 
    146 H146        1.1730  -17.7101  -46.0901 H         1 UNK         0.0600 
    147 H147        1.8322  -18.7249  -47.3658 H         1 UNK         0.0600 
    148 H148        2.5289  -18.7809  -45.7560 H         1 UNK         0.0600 
    149 H149        0.2800  -18.7917  -44.1073 H         1 UNK         0.3000 
    150 H150       -1.4722  -21.0812  -42.0723 H         1 UNK         0.0600 
    151 H151        0.8178  -21.7104  -41.4213 H         1 UNK         0.0600 
    152 H152        0.2049  -20.4695  -40.3380 H         1 UNK         0.0600 
    153 H153        1.3661  -20.0518  -41.5942 H         1 UNK         0.0600 
    154 H154       -0.5531  -18.3784  -41.6717 H         1 UNK         0.3000 
    155 H155       -3.5581  -16.9329  -43.0913 H         1 UNK         0.0600 
    156 H156       -2.4288  -17.1138  -40.2510 H         1 UNK         0.0600 
    157 H157       -4.0193  -17.6909  -40.7398 H         1 UNK         0.0600 
    158 H158       -3.6462  -15.9763  -40.8262 H         1 UNK         0.0600 
    159 H159       -1.5836  -15.4299  -41.9940 H         1 UNK         0.3000 
    160 H160        0.6014  -14.9197  -44.7463 H         1 UNK         0.0600 
    161 H161       -0.3410  -12.6299  -44.1266 H         1 UNK         0.0600 
    162 H162       -1.7369  -13.4357  -43.4329 H         1 UNK         0.0600 
    163 H163       -1.3946  -13.6028  -45.1471 H         1 UNK         0.0600 
    164 H164        1.7959  -14.8089  -42.9224 H         1 UNK         0.3000 
    165 H165        2.2208  -13.5927  -40.4768 H         1 UNK         0.0600 
    166 H166        1.9516  -14.7907  -38.2894 H         1 UNK         0.0600 
    167 H167        0.5439  -13.8136  -38.6736 H         1 UNK         0.0600 
    168 H168        0.4818  -15.5583  -38.8885 H         1 UNK         0.0600 
    169 H169        3.5126  -15.3167  -40.9154 H         1 UNK         0.3000 
    170 H170        3.3000  -18.7599  -40.8272 H         1 UNK         0.0600 
    171 H171        2.3019  -18.5666  -43.1419 H         1 UNK         0.0600 
    172 H172        3.4354  -17.2834  -43.5196 H         1 UNK         0.0600 
    173 H173        4.0199  -18.9163  -43.1955 H         1 UNK         0.0600 
    174 H174        5.2122  -16.9298  -41.9747 H         1 UNK         0.3000 
    175 H175        6.5672  -15.5867  -39.1034 H         1 UNK         0.0600 
    176 H176        7.7085  -17.7986  -38.8651 H         1 UNK         0.0600 
    177 H177        8.7396  -16.6421  -39.6910 H         1 UNK         0.0600 
    178 H178        7.9092  -17.8986  -40.6102 H         1 UNK         0.0600 
    179 H179        7.5712  -15.7445  -41.7676 H         1 UNK         0.3000 
    180 H180        7.2181  -13.1411  -42.7534 H         1 UNK         0.0600 
    181 H181        6.0179  -15.6165  -44.1146 H         1 UNK         0.0600 
    182 H182        7.7117  -15.3419  -43.7203 H         1 UNK         0.0600 
    183 H183        6.9385  -14.3742  -44.9555 H         1 UNK         0.0600 
    184 H184        5.5320  -11.9734  -43.5461 H         1 UNK         0.3000 
    185 H185        2.2960  -12.0985  -43.6730 H         1 UNK         0.0600 
    186 H186        4.2142  -10.4681  -43.5874 H         1 UNK         0.0600 
    187 H187        4.6474  -10.8840  -45.2490 H         1 UNK         0.0600 
    188 H188        3.1255  -10.0803  -44.8941 H         1 UNK         0.0600 
    189 H189        3.0438  -13.5428  -45.9851 H         1 UNK         0.3000 
    190 H190       -3.2133  -20.3324  -44.9346 H         1 UNK         0.3000 
    191 H191       -5.2617  -22.1423  -45.6500 H         1 UNK         0.0600 
    192 H192       -3.0996  -22.3755  -43.4922 H         1 UNK         0.0600 
    193 H193       -4.5582  -23.3548  -43.5809 H         1 UNK         0.0600 
    194 H194       -4.6831  -21.6247  -43.3038 H         1 UNK         0.0600 
    195 H195       -1.6785  -22.5662  -45.7150 H         1 UNK         0.3000 
    196 H196       -1.6676  -25.2417  -46.6462 H         1 UNK         0.0600 
    197 H197        0.6965  -24.7426  -47.2782 H         1 UNK         0.0600 
    198 H198        0.3244  -24.1570  -45.6642 H         1 UNK         0.0600 
    199 H199        0.4167  -23.0264  -47.0127 H         1 UNK         0.0600 
    200 H200       -1.6153  -22.1380  -48.4661 H         1 UNK         0.3000 
    201 H201       -1.4951  -23.2527  -51.0578 H         1 UNK         0.0600 
    202 H202       -1.0105  -20.8707  -50.5817 H         1 UNK         0.0600 
    203 H203       -2.6918  -20.5861  -50.1381 H         1 UNK         0.0600 
    204 H204       -2.2715  -21.0015  -51.7951 H         1 UNK         0.0600 
    205 H205       -4.3303  -22.3616  -49.0434 H         1 UNK         0.3000 
    206 H206       -6.3418  -23.0996  -50.9112 H         1 UNK         0.0600 
    207 H207       -6.7795  -21.6372  -48.9655 H         1 UNK         0.0600 
    208 H208       -7.8345  -23.0416  -48.9097 H         1 UNK         0.0600 
    209 H209       -6.4302  -22.9578  -47.8526 H         1 UNK         0.0600 
    210 H210       -4.6911  -24.9987  -48.3494 H         1 UNK         0.3000 
    211 H211       -6.1926  -27.3943  -48.6786 H         1 UNK         0.0600 
    212 H212       -3.3560  -26.9636  -47.6030 H         1 UNK         0.0600 
    213 H213       -4.3110  -28.4271  -47.4002 H         1 UNK         0.0600 
    214 H214       -4.8437  -26.9256  -46.6595 H         1 UNK         0.0600 
    215 H215       -3.1405  -26.2764  -50.1998 H         1 UNK         0.3000 
    216 H216       -2.7286  -28.6007  -51.8394 H         1 UNK         0.0600 
    217 H217       -1.1364  -27.0673  -53.0476 H         1 UNK         0.0600 
    218 H218       -0.9010  -27.0310  -51.3057 H         1 UNK         0.0600 
    219 H219       -1.7482  -25.7117  -52.1043 H         1 UNK         0.0600 
    220 H220       -4.6105  -25.6752  -52.2201 H         1 UNK         0.3000 
    221 H221       -6.2924  -25.0372  -53.4303 H         1 UNK         0.0600 
    222 H222       -7.6256  -26.5774  -54.8263 H         1 UNK         0.0600 
    223 H223       -7.2173  -27.3336  -53.2934 H         1 UNK         0.0600 
    224 H224       -6.3596  -27.7941  -54.7640 H         1 UNK         0.0600 
    225 H225       -3.9670  -26.7883  -55.4933 H         1 UNK         0.3000 
    226 H226       -4.3526  -25.1611  -57.8413 H         1 UNK         0.0600 
    227 H227       -3.4379  -27.4687  -57.9359 H         1 UNK         0.0600 
    228 H228       -2.2860  -26.3342  -58.6230 H         1 UNK         0.0600 
    229 H229       -2.0240  -26.9751  -57.0046 H         1 UNK         0.0600 
    230 H230       -2.4606  -24.7433  -54.9370 H         1 UNK         0.3000 
    231 H231       -0.6710  -22.6942  -56.0401 H         1 UNK         0.0600 
    232 H232        0.1671  -24.3026  -54.3556 H         1 UNK         0.0600 
    233 H233       -1.0690  -23.7853  -53.2126 H         1 UNK         0.0600 
    234 H234        0.2053  -22.6738  -53.6966 H         1 UNK         0.0600 
    235 H235       -3.8834  -22.7087  -54.7919 H         1 UNK         0.3000 
    236 H236       -3.8463  -20.1441  -53.4495 H         1 UNK         0.0600 
    237 H237       -5.5182  -21.9406  -52.9246 H         1 UNK         0.0600 
    238 H238       -6.2954  -20.4390  -53.3980 H         1 UNK         0.0600 
    239 H239       -6.2027  -21.7728  -54.5395 H         1 UNK         0.0600 
    240 H240       -4.4393  -18.1448  -54.2399 H         1 UNK         0.3000 
    241 H241       -4.3267  -17.7722  -57.1452 H         1 UNK         0.0600 
    242 H242       -8.1378  -17.3816  -56.0559 H         1 UNK         0.3800 
    243 H243       -6.9843  -18.2980  -55.1231 H         1 UNK         0.3800 
    244 H244       -3.9745  -15.3829  -56.6228 H         1 UNK         0.0800 
    245 H245       -2.7954  -16.4265  -55.9032 H         1 UNK         0.0800 
    246 H246       -1.8437  -15.6927  -53.8277 H         1 UNK         0.0800 
    247 H247       -2.7689  -16.9951  -53.1187 H         1 UNK         0.0800 
@<TRIPOS>BOND
     1    1    2 1    
     2    1  127 1    
     3    1  128 1    
     4    1  129 1    
     5    2    3 2    
     6    2    4 am   BACKBONE|DICT|INTERRES
     7    4    5 1    
     8    4  130 1    
     9    5    6 1    
    10    5   65 1    
    11    5  131 1    
    12    6    7 1    
    13    6  132 1    
    14    6  133 1    
    15    7    8 1    
    16    8    9 1    
    17    8  134 1    
    18    8  135 1    
    19    9   10 ar   
    20    9   14 ar   
    21   10   11 ar   
    22   10  136 1    
    23   11   12 ar   
    24   11  126 1    
    25   12   13 ar   
    26   12  137 1    
    27   13   14 ar   
    28   13   15 1    
    29   14  138 1    
    30   15   16 1    
    31   15  139 1    
    32   15  140 1    
    33   16   17 1    
    34   17   18 1    
    35   17  141 1    
    36   17  142 1    
    37   18   19 1    
    38   18   67 1    
    39   18  143 1    
    40   19   20 am   BACKBONE|DICT|INTERRES
    41   19  144 1    
    42   20   21 2    
    43   20   22 1    
    44   22   23 1    
    45   22   24 1    
    46   22  145 1    
    47   23  146 1    
    48   23  147 1    
    49   23  148 1    
    50   24   25 am   BACKBONE|DICT|INTERRES
    51   24  149 1    
    52   25   26 2    
    53   25   27 1    
    54   27   28 1    
    55   27   29 1    
    56   27  150 1    
    57   28  151 1    
    58   28  152 1    
    59   28  153 1    
    60   29   30 am   BACKBONE|DICT|INTERRES
    61   29  154 1    
    62   30   31 2    
    63   30   32 1    
    64   32   33 1    
    65   32   34 1    
    66   32  155 1    
    67   33  156 1    
    68   33  157 1    
    69   33  158 1    
    70   34   35 am   BACKBONE|DICT|INTERRES
    71   34  159 1    
    72   35   36 2    
    73   35   37 1    
    74   37   38 1    
    75   37   39 1    
    76   37  160 1    
    77   38  161 1    
    78   38  162 1    
    79   38  163 1    
    80   39   40 am   BACKBONE|DICT|INTERRES
    81   39  164 1    
    82   40   41 2    
    83   40   42 1    
    84   42   43 1    
    85   42   44 1    
    86   42  165 1    
    87   43  166 1    
    88   43  167 1    
    89   43  168 1    
    90   44   45 am   BACKBONE|DICT|INTERRES
    91   44  169 1    
    92   45   46 2    
    93   45   47 1    
    94   47   48 1    
    95   47   49 1    
    96   47  170 1    
    97   48  171 1    
    98   48  172 1    
    99   48  173 1    
   100   49   50 am   BACKBONE|DICT|INTERRES
   101   49  174 1    
   102   50   51 2    
   103   50   52 1    
   104   52   53 1    
   105   52   54 1    
   106   52  175 1    
   107   53  176 1    
   108   53  177 1    
   109   53  178 1    
   110   54   55 am   BACKBONE|DICT|INTERRES
   111   54  179 1    
   112   55   56 2    
   113   55   57 1    
   114   57   58 1    
   115   57   59 1    
   116   57  180 1    
   117   58  181 1    
   118   58  182 1    
   119   58  183 1    
   120   59   60 am   BACKBONE|DICT|INTERRES
   121   59  184 1    
   122   60   61 2    
   123   60   62 1    
   124   62   63 1    
   125   62   64 1    
   126   62  185 1    
   127   63  186 1    
   128   63  187 1    
   129   63  188 1    
   130   64   65 am   BACKBONE|DICT|INTERRES
   131   64  189 1    
   132   65   66 2    
   133   67   68 2    
   134   67   69 am   BACKBONE|DICT|INTERRES
   135   69   70 1    
   136   69  190 1    
   137   70   71 1    
   138   70   72 1    
   139   70  191 1    
   140   71  192 1    
   141   71  193 1    
   142   71  194 1    
   143   72   73 2    
   144   72   74 am   BACKBONE|DICT|INTERRES
   145   74   75 1    
   146   74  195 1    
   147   75   76 1    
   148   75   77 1    
   149   75  196 1    
   150   76  197 1    
   151   76  198 1    
   152   76  199 1    
   153   77   78 2    
   154   77   79 am   BACKBONE|DICT|INTERRES
   155   79   80 1    
   156   79  200 1    
   157   80   81 1    
   158   80   82 1    
   159   80  201 1    
   160   81  202 1    
   161   81  203 1    
   162   81  204 1    
   163   82   83 2    
   164   82   84 am   BACKBONE|DICT|INTERRES
   165   84   85 1    
   166   84  205 1    
   167   85   86 1    
   168   85   87 1    
   169   85  206 1    
   170   86  207 1    
   171   86  208 1    
   172   86  209 1    
   173   87   88 2    
   174   87   89 am   BACKBONE|DICT|INTERRES
   175   89   90 1    
   176   89  210 1    
   177   90   91 1    
   178   90   92 1    
   179   90  211 1    
   180   91  212 1    
   181   91  213 1    
   182   91  214 1    
   183   92   93 2    
   184   92   94 am   BACKBONE|DICT|INTERRES
   185   94   95 1    
   186   94  215 1    
   187   95   96 1    
   188   95   97 1    
   189   95  216 1    
   190   96  217 1    
   191   96  218 1    
   192   96  219 1    
   193   97   98 2    
   194   97   99 am   BACKBONE|DICT|INTERRES
   195   99  100 1    
   196   99  220 1    
   197  100  101 1    
   198  100  102 1    
   199  100  221 1    
   200  101  222 1    
   201  101  223 1    
   202  101  224 1    
   203  102  103 2    
   204  102  104 am   BACKBONE|DICT|INTERRES
   205  104  105 1    
   206  104  225 1    
   207  105  106 1    
   208  105  107 1    
   209  105  226 1    
   210  106  227 1    
   211  106  228 1    
   212  106  229 1    
   213  107  108 2    
   214  107  109 am   BACKBONE|DICT|INTERRES
   215  109  110 1    
   216  109  230 1    
   217  110  111 1    
   218  110  112 1    
   219  110  231 1    
   220  111  232 1    
   221  111  233 1    
   222  111  234 1    
   223  112  113 2    
   224  112  114 am   BACKBONE|DICT|INTERRES
   225  114  115 1    
   226  114  235 1    
   227  115  116 1    
   228  115  117 1    
   229  115  236 1    
   230  116  237 1    
   231  116  238 1    
   232  116  239 1    
   233  117  118 2    
   234  117  119 am   BACKBONE|DICT|INTERRES
   235  119  120 1    
   236  119  240 1    
   237  120  121 1    
   238  120  124 1    
   239  120  241 1    
   240  121  122 am   BACKBONE|DICT|INTERRES
   241  121  123 2    
   242  122  242 1    
   243  122  243 1    
   244  124  125 1    
   245  124  244 1    
   246  124  245 1    
   247  125  126 1    
   248  126  246 1    
   249  126  247 1    
@<TRIPOS>SUBSTRUCTURE
     1 UNK         1 GROUP             0       ****    0 ROOT    
