@<TRIPOS>MOLECULE
3R540
247   249    1
SMALL
USER_CHARGES


@<TRIPOS>ATOM
      1 CA          5.7885  -12.4423  -47.5016 C.3       0 UNK        -0.1800 
      2 C           4.9093  -13.6347  -47.1542 C.2       0 UNK         0.5000 
      3 O           4.6053  -13.8579  -45.9826 O.2       0 UNK        -0.5000 
      4 N           4.4879  -14.3953  -48.1727 N.am      1 UNK        -0.5000 
      5 CA          3.6592  -15.6028  -48.0472 C.3       1 UNK         0.1400 
      6 C6          3.7095  -16.4608  -49.3356 C.3       23 UNK        -0.0398 
      7 S7          2.9664  -15.6412  -50.7938 S.3       23 UNK        -0.2404 
      8 C8          2.4684  -17.0653  -51.8236 C.3       23 UNK        -0.0205 
      9 C9          1.5332  -18.0648  -51.1437 C.ar      23 UNK        -0.0193 
     10 C10         0.5362  -17.6567  -50.2491 C.ar      23 UNK        -0.1150 
     11 C11        -0.3045  -18.5923  -49.6382 C.ar      23 UNK        -0.0193 
     12 C12        -0.1510  -19.9493  -49.9374 C.ar      23 UNK        -0.1150 
     13 C13         0.8353  -20.3719  -50.8341 C.ar      23 UNK        -0.0193 
     14 C14         1.6690  -19.4254  -51.4337 C.ar      23 UNK        -0.1150 
     15 C15         0.9812  -21.8460  -51.1854 C.3       23 UNK        -0.0205 
     16 S16         2.4850  -22.6081  -50.4900 S.3       23 UNK        -0.2404 
     17 C17         2.2323  -22.4510  -48.6905 C.3       23 UNK        -0.0398 
     18 CA          1.5090  -23.6688  -48.0626 C.3       11 UNK         0.1400 
     19 N           1.8555  -23.8441  -46.6512 N.am      11 UNK        -0.5000 
     20 C           1.5730  -24.9321  -45.9209 C.2       10 UNK         0.5000 
     21 O           1.0387  -25.9443  -46.3745 O.2       10 UNK        -0.5000 
     22 CA          1.9052  -24.8519  -44.4190 C.3       10 UNK         0.1400 
     23 CB          3.3777  -25.2098  -44.1690 C.3       10 UNK        -0.1800 
     24 N           1.6223  -23.5309  -43.8517 N.am      10 UNK        -0.5000 
     25 C           0.3905  -23.0190  -43.7206 C.2       9 UNK         0.5000 
     26 O          -0.6348  -23.6249  -44.0281 O.2       9 UNK        -0.5000 
     27 CA          0.2845  -21.5724  -43.2038 C.3       9 UNK         0.1400 
     28 CB          0.2701  -21.5472  -41.6685 C.3       9 UNK        -0.1800 
     29 N           1.3348  -20.6739  -43.6912 N.am      9 UNK        -0.5000 
     30 C           1.6160  -20.4225  -44.9762 C.2       8 UNK         0.5000 
     31 O           1.0660  -20.9927  -45.9191 O.2       8 UNK        -0.5000 
     32 CA          2.6554  -19.3172  -45.2406 C.3       8 UNK         0.1400 
     33 CB          3.2284  -19.3824  -46.6678 C.3       8 UNK        -0.1800 
     34 N           2.0488  -18.0050  -45.0410 N.am      8 UNK        -0.5000 
     35 C           1.7630  -17.4448  -43.8620 C.2       7 UNK         0.5000 
     36 O           2.0772  -17.9281  -42.7700 O.2       7 UNK        -0.5000 
     37 CA          0.9558  -16.1448  -43.9250 C.3       7 UNK         0.1400 
     38 CB         -0.5269  -16.4357  -44.2314 C.3       7 UNK        -0.1800 
     39 N           1.0885  -15.4218  -42.6664 N.am      7 UNK        -0.5000 
     40 C           0.8362  -14.1190  -42.5213 C.2       6 UNK         0.5000 
     41 O           0.4211  -13.4058  -43.4360 O.2       6 UNK        -0.5000 
     42 CA          1.1301  -13.5069  -41.1430 C.3       6 UNK         0.1400 
     43 CB          2.6018  -13.0768  -41.0454 C.3       6 UNK        -0.1800 
     44 N           0.2842  -12.3352  -40.9322 N.am      6 UNK        -0.5000 
     45 C          -0.9018  -12.3583  -40.3113 C.2       5 UNK         0.5000 
     46 O          -1.3616  -13.3562  -39.7538 O.2       5 UNK        -0.5000 
     47 CA         -1.7197  -11.0519  -40.3040 C.3       5 UNK         0.1400 
     48 CB         -1.4866  -10.2787  -38.9968 C.3       5 UNK        -0.1800 
     49 N          -1.4178  -10.1732  -41.4341 N.am      5 UNK        -0.5000 
     50 C          -1.7867  -10.3999  -42.7017 C.2       4 UNK         0.5000 
     51 O          -2.4663  -11.3648  -43.0544 O.2       4 UNK        -0.5000 
     52 CA         -1.3333   -9.3724  -43.7582 C.3       4 UNK         0.1400 
     53 CB         -1.0421   -7.9683  -43.1817 C.3       4 UNK        -0.1800 
     54 N          -0.1927   -9.8549  -44.5395 N.am      4 UNK        -0.5000 
     55 C           1.0191  -10.2124  -44.0937 C.2       3 UNK         0.5000 
     56 O           1.3432  -10.2034  -42.9031 O.2       3 UNK        -0.5000 
     57 CA          2.0337  -10.6441  -45.1767 C.3       3 UNK         0.1400 
     58 CB          3.4671  -10.7552  -44.6273 C.3       3 UNK        -0.1800 
     59 N           1.6781  -11.9136  -45.8137 N.am      3 UNK        -0.5000 
     60 C           0.6663  -12.1171  -46.6686 C.2       2 UNK         0.5000 
     61 O          -0.0692  -11.2156  -47.0766 O.2       2 UNK        -0.5000 
     62 CA          0.4917  -13.5589  -47.1779 C.3       2 UNK         0.1400 
     63 CB         -0.5487  -13.6942  -48.3049 C.3       2 UNK        -0.1800 
     64 N           1.7848  -14.0548  -47.6364 N.am      2 UNK        -0.5000 
     65 C           2.2065  -15.3234  -47.5902 C.2       1 UNK         0.5000 
     66 O           1.5110  -16.2586  -47.1932 O.2       1 UNK        -0.5000 
     67 C          -0.0170  -23.5628  -48.2277 C.2       11 UNK         0.5000 
     68 O          -0.5890  -24.2570  -49.0671 O.2       11 UNK        -0.5000 
     69 N          -0.6482  -22.7253  -47.3917 N.am      12 UNK        -0.5000 
     70 CA         -2.0939  -22.5170  -47.3432 C.3       12 UNK         0.1400 
     71 CB         -2.4279  -21.4385  -46.3024 C.3       12 UNK        -0.1800 
     72 C          -2.8682  -23.8141  -47.0577 C.2       12 UNK         0.5000 
     73 O          -3.8521  -24.0833  -47.7429 O.2       12 UNK        -0.5000 
     74 N          -2.3853  -24.6140  -46.0971 N.am      13 UNK        -0.5000 
     75 CA         -2.9299  -25.9287  -45.7598 C.3       13 UNK         0.1400 
     76 CB         -2.2411  -26.4629  -44.4949 C.3       13 UNK        -0.1800 
     77 C          -2.8119  -26.9415  -46.9133 C.2       13 UNK         0.5000 
     78 O          -3.7804  -27.6472  -47.1957 O.2       13 UNK        -0.5000 
     79 N          -1.6449  -26.9789  -47.5728 N.am      14 UNK        -0.5000 
     80 CA         -1.3672  -27.8551  -48.7135 C.3       14 UNK         0.1400 
     81 CB          0.1356  -27.8218  -49.0310 C.3       14 UNK        -0.1800 
     82 C          -2.1963  -27.4988  -49.9619 C.2       14 UNK         0.5000 
     83 O          -2.7068  -28.3967  -50.6325 O.2       14 UNK        -0.5000 
     84 N          -2.3269  -26.1960  -50.2394 N.am      15 UNK        -0.5000 
     85 CA         -3.0860  -25.6496  -51.3650 C.3       15 UNK         0.1400 
     86 CB         -2.5592  -24.2346  -51.6548 C.3       15 UNK        -0.1800 
     87 C          -4.6072  -25.5978  -51.1232 C.2       15 UNK         0.5000 
     88 O          -5.3527  -25.3135  -52.0630 O.2       15 UNK        -0.5000 
     89 N          -5.0325  -25.7885  -49.8639 N.am      16 UNK        -0.5000 
     90 CA         -6.3809  -25.5390  -49.3347 C.3       16 UNK         0.1400 
     91 CB         -7.3811  -26.5775  -49.8816 C.3       16 UNK        -0.1800 
     92 C          -6.8327  -24.0800  -49.5763 C.2       16 UNK         0.5000 
     93 O          -8.0052  -23.8276  -49.8606 O.2       16 UNK        -0.5000 
     94 N          -5.8566  -23.1600  -49.5279 N.am      17 UNK        -0.5000 
     95 CA         -5.8489  -21.7498  -49.9330 C.3       17 UNK         0.1400 
     96 CB         -6.7816  -20.9144  -49.0403 C.3       17 UNK        -0.1800 
     97 C          -6.1429  -21.5079  -51.4295 C.2       17 UNK         0.5000 
     98 O          -5.4348  -20.7275  -52.0684 O.2       17 UNK        -0.5000 
     99 N          -7.1766  -22.1730  -51.9560 N.am      18 UNK        -0.5000 
    100 CA        -7.7482  -22.0101  -53.2894 C.3       18 UNK         0.1400 
    101 CB        -8.9733  -22.9266  -53.4232 C.3       18 UNK        -0.1800 
    102 C         -6.7657  -22.2535  -54.4454 C.2       18 UNK         0.5000 
    103 O         -6.7566  -21.4642  -55.3903 O.2       18 UNK        -0.5000 
    104 N         -5.9383  -23.3067  -54.3554 N.am      19 UNK        -0.5000 
    105 CA        -4.9854  -23.6704  -55.4137 C.3       19 UNK         0.1400 
    106 CB        -4.4642  -25.0962  -55.1819 C.3       19 UNK        -0.1800 
    107 C         -3.8146  -22.6769  -55.5531 C.2       19 UNK         0.5000 
    108 O         -3.2063  -22.6023  -56.6210 O.2       19 UNK        -0.5000 
    109 N         -3.5377  -21.9224  -54.4827 N.am      20 UNK        -0.5000 
    110 CA        -2.5425  -20.8525  -54.4417 C.3       20 UNK         0.1400 
    111 CB        -1.8905  -20.8629  -53.0511 C.3       20 UNK        -0.1800 
    112 C         -3.1570  -19.4694  -54.7314 C.2       20 UNK         0.5000 
    113 O         -2.4106  -18.4957  -54.8363 O.2       20 UNK        -0.5000 
    114 N         -4.4960  -19.3989  -54.8160 N.am      21 UNK        -0.5000 
    115 CA        -5.3231  -18.1884  -54.8711 C.3       21 UNK         0.1400 
    116 CB        -5.1053  -17.4273  -56.1953 C.3       21 UNK        -0.1800 
    117 C         -5.1517  -17.2977  -53.6191 C.2       21 UNK         0.5000 
    118 O         -5.2391  -16.0720  -53.7132 O.2       21 UNK        -0.5000 
    119 N         -4.9050  -17.9385  -52.4688 N.am      22 UNK        -0.5000 
    120 CA        -4.6670  -17.2996  -51.1661 C.3       22 UNK         0.1400 
    121 C         -5.9669  -17.0645  -50.3374 C.2       22 UNK         0.5000 
    122 N         -7.1385  -17.4810  -50.8045 N.am      22 UNK        -0.7600 
    123 O         -5.9226  -16.4792  -49.2597 O.2       22 UNK        -0.5000 
    124 C124       -3.5791  -18.0738  -50.3685 C.3       23 UNK        -0.0398 
    125 S125       -2.5673  -16.9781  -49.3181 S.3       23 UNK        -0.2404 
    126 C126       -1.3481  -18.1405  -48.6242 C.3       23 UNK        -0.0205 
    127 H127        6.5763  -12.3232  -46.7577 H         1 UNK         0.0600 
    128 H128        6.2611  -12.5648  -48.4764 H         1 UNK         0.0600 
    129 H129        5.1946  -11.5292  -47.5226 H         1 UNK         0.0600 
    130 H130        4.7522  -14.1510  -49.1173 H         1 UNK         0.3000 
    131 H131        4.1052  -16.2029  -47.2514 H         1 UNK         0.0600 
    132 H132        3.2173  -17.4169  -49.1548 H         1 UNK         0.0800 
    133 H133        4.7443  -16.7094  -49.5747 H         1 UNK         0.0800 
    134 H134        1.9751  -16.6891  -52.7204 H         1 UNK         0.0800 
    135 H135        3.3759  -17.5692  -52.1599 H         1 UNK         0.0800 
    136 H136        0.4162  -16.6089  -50.0136 H         1 UNK         0.1150 
    137 H137       -0.7969  -20.6780  -49.4705 H         1 UNK         0.1150 
    138 H138        2.4275  -19.7546  -52.1301 H         1 UNK         0.1150 
    139 H139        0.1016  -22.4072  -50.8715 H         1 UNK         0.0800 
    140 H140        1.0221  -21.9448  -52.2709 H         1 UNK         0.0800 
    141 H141        3.2312  -22.3653  -48.2616 H         1 UNK         0.0800 
    142 H142        1.7376  -21.5085  -48.4536 H         1 UNK         0.0800 
    143 H143        1.8370  -24.5717  -48.5828 H         1 UNK         0.0600 
    144 H144        2.2160  -23.0296  -46.1759 H         1 UNK         0.3000 
    145 H145        1.2831  -25.5854  -43.9016 H         1 UNK         0.0600 
    146 H146        3.6028  -25.2295  -43.1026 H         1 UNK         0.0600 
    147 H147        3.6116  -26.1978  -44.5678 H         1 UNK         0.0600 
    148 H148        4.0535  -24.4963  -44.6422 H         1 UNK         0.0600 
    149 H149        2.4124  -22.9676  -43.5738 H         1 UNK         0.3000 
    150 H150       -0.6676  -21.1714  -43.5554 H         1 UNK         0.0600 
    151 H151       -0.5198  -22.1879  -41.2740 H         1 UNK         0.0600 
    152 H152        0.0881  -20.5400  -41.2927 H         1 UNK         0.0600 
    153 H153        1.2157  -21.8955  -41.2513 H         1 UNK         0.0600 
    154 H154        1.7914  -20.0979  -42.9942 H         1 UNK         0.3000 
    155 H155        3.4799  -19.4458  -44.5364 H         1 UNK         0.0600 
    156 H156        4.0046  -18.6319  -46.8136 H         1 UNK         0.0600 
    157 H157        2.4576  -19.2177  -47.4228 H         1 UNK         0.0600 
    158 H158        3.6811  -20.3547  -46.8623 H         1 UNK         0.0600 
    159 H159        1.7413  -17.5232  -45.8841 H         1 UNK         0.3000 
    160 H160        1.3814  -15.5264  -44.7155 H         1 UNK         0.0600 
    161 H161       -1.1049  -15.5164  -44.3248 H         1 UNK         0.0600 
    162 H162       -0.9852  -17.0417  -43.4492 H         1 UNK         0.0600 
    163 H163       -0.6346  -16.9757  -45.1731 H         1 UNK         0.0600 
    164 H164        1.4664  -15.9703  -41.9035 H         1 UNK         0.3000 
    165 H165        0.9373  -14.2583  -40.3744 H         1 UNK         0.0600 
    166 H166        2.8272  -12.6709  -40.0592 H         1 UNK         0.0600 
    167 H167        3.2710  -13.9220  -41.2104 H         1 UNK         0.0600 
    168 H168        2.8472  -12.3131  -41.7833 H         1 UNK         0.0600 
    169 H169        0.5481  -11.5035  -41.4502 H         1 UNK         0.3000 
    170 H170       -2.7760  -11.3246  -40.3544 H         1 UNK         0.0600 
    171 H171       -1.7293  -10.8949  -38.1300 H         1 UNK         0.0600 
    172 H172       -0.4471   -9.9643  -38.8953 H         1 UNK         0.0600 
    173 H173       -2.1141   -9.3887  -38.9471 H         1 UNK         0.0600 
    174 H174       -0.8354   -9.3709  -41.2425 H         1 UNK         0.3000 
    175 H175       -2.1636   -9.2697  -44.4586 H         1 UNK         0.0600 
    176 H176       -0.1714   -7.9571  -42.5256 H         1 UNK         0.0600 
    177 H177       -0.8560   -7.2528  -43.9828 H         1 UNK         0.0600 
    178 H178       -1.8932   -7.5949  -42.6108 H         1 UNK         0.0600 
    179 H179       -0.3715  -10.0074  -45.5275 H         1 UNK         0.3000 
    180 H180        2.0365   -9.8648  -45.9415 H         1 UNK         0.0600 
    181 H181        3.5658  -11.5810  -43.9228 H         1 UNK         0.0600 
    182 H182        3.7639   -9.8413  -44.1111 H         1 UNK         0.0600 
    183 H183        4.1846  -10.9172  -45.4301 H         1 UNK         0.0600 
    184 H184        2.2084  -12.7180  -45.5088 H         1 UNK         0.3000 
    185 H185        0.1541  -14.1516  -46.3256 H         1 UNK         0.0600 
    186 H186       -1.5311  -13.3544  -47.9754 H         1 UNK         0.0600 
    187 H187       -0.2698  -13.1082  -49.1812 H         1 UNK         0.0600 
    188 H188       -0.6536  -14.7326  -48.6178 H         1 UNK         0.0600 
    189 H189        2.4303  -13.3529  -47.9704 H         1 UNK         0.3000 
    190 H190       -0.0858  -22.1720  -46.7484 H         1 UNK         0.3000 
    191 H191       -2.4032  -22.1527  -48.3247 H         1 UNK         0.0600 
    192 H192       -3.4783  -21.1517  -46.3650 H         1 UNK         0.0600 
    193 H193       -1.8313  -20.5393  -46.4519 H         1 UNK         0.0600 
    194 H194       -2.2455  -21.7887  -45.2868 H         1 UNK         0.0600 
    195 H195       -1.6018  -24.2899  -45.5365 H         1 UNK         0.3000 
    196 H196       -3.9917  -25.8010  -45.5389 H         1 UNK         0.0600 
    197 H197       -2.6310  -27.4439  -44.2207 H         1 UNK         0.0600 
    198 H198       -2.4070  -25.7986  -43.6467 H         1 UNK         0.0600 
    199 H199       -1.1641  -26.5630  -44.6345 H         1 UNK         0.0600 
    200 H200       -0.8877  -26.3779  -47.2679 H         1 UNK         0.3000 
    201 H201       -1.6278  -28.8752  -48.4236 H         1 UNK         0.0600 
    202 H202        0.7253  -28.1591  -48.1785 H         1 UNK         0.0600 
    203 H203        0.4710  -26.8174  -49.2917 H         1 UNK         0.0600 
    204 H204        0.3731  -28.4764  -49.8704 H         1 UNK         0.0600 
    205 H205       -1.8201  -25.5229  -49.6676 H         1 UNK         0.3000 
    206 H206       -2.9122  -26.2713  -52.2454 H         1 UNK         0.0600 
    207 H207       -1.4983  -24.2529  -51.9045 H         1 UNK         0.0600 
    208 H208       -3.0829  -23.7832  -52.4956 H         1 UNK         0.0600 
    209 H209       -2.6900  -23.5729  -50.7974 H         1 UNK         0.0600 
    210 H210       -4.3258  -25.9722  -49.1638 H         1 UNK         0.3000 
    211 H211       -6.3178  -25.6686  -48.2534 H         1 UNK         0.0600 
    212 H212       -7.5384  -26.4634  -50.9546 H         1 UNK         0.0600 
    213 H213       -8.3526  -26.4774  -49.3963 H         1 UNK         0.0600 
    214 H214       -7.0311  -27.5936  -49.6999 H         1 UNK         0.0600 
    215 H215       -4.9639  -23.5059  -49.1866 H         1 UNK         0.3000 
    216 H216       -4.8296  -21.4019  -49.7584 H         1 UNK         0.0600 
    217 H217       -7.8277  -21.1936  -49.1686 H         1 UNK         0.0600 
    218 H218       -6.6960  -19.8534  -49.2731 H         1 UNK         0.0600 
    219 H219       -6.5290  -21.0357  -47.9869 H         1 UNK         0.0600 
    220 H220       -7.6678  -22.8079  -51.3306 H         1 UNK         0.3000 
    221 H221       -8.0897  -20.9759  -53.3663 H         1 UNK         0.0600 
    222 H222       -8.7044  -23.9763  -53.2970 H         1 UNK         0.0600 
    223 H223       -9.7300  -22.6840  -52.6768 H         1 UNK         0.0600 
    224 H224       -9.4388  -22.8203  -54.4041 H         1 UNK         0.0600 
    225 H225       -5.9730  -23.9093  -53.5391 H         1 UNK         0.3000 
    226 H226       -5.5260  -23.6674  -56.3627 H         1 UNK         0.0600 
    227 H227       -5.2840  -25.8055  -55.0670 H         1 UNK         0.0600 
    228 H228       -3.8606  -25.4303  -56.0267 H         1 UNK         0.0600 
    229 H229       -3.8380  -25.1586  -54.2936 H         1 UNK         0.0600 
    230 H230       -4.1129  -22.0300  -53.6585 H         1 UNK         0.3000 
    231 H231       -1.7644  -21.0311  -55.1865 H         1 UNK         0.0600 
    232 H232       -2.6230  -20.7152  -52.2571 H         1 UNK         0.0600 
    233 H233       -1.1433  -20.0735  -52.9610 H         1 UNK         0.0600 
    234 H234       -1.3864  -21.8105  -52.8685 H         1 UNK         0.0600 
    235 H235       -5.0158  -20.2648  -54.7528 H         1 UNK         0.3000 
    236 H236       -6.3585  -18.5313  -54.8568 H         1 UNK         0.0600 
    237 H237       -5.2318  -18.0871  -57.0535 H         1 UNK         0.0600 
    238 H238       -5.8261  -16.6159  -56.3021 H         1 UNK         0.0600 
    239 H239       -4.1093  -16.9877  -56.2531 H         1 UNK         0.0600 
    240 H240       -4.9224  -18.9552  -52.4651 H         1 UNK         0.3000 
    241 H241       -4.2735  -16.3018  -51.3690 H         1 UNK         0.0600 
    242 H242       -7.1978  -17.9474  -51.6944 H         1 UNK         0.3800 
    243 H243       -7.9743  -17.3107  -50.2678 H         1 UNK         0.3800 
    244 H244       -4.0162  -18.8698  -49.7636 H         1 UNK         0.0800 
    245 H245       -2.8891  -18.5638  -51.0571 H         1 UNK         0.0800 
    246 H246       -1.8768  -18.9941  -48.2005 H         1 UNK         0.0800 
    247 H247       -0.8345  -17.6537  -47.7940 H         1 UNK         0.0800 
@<TRIPOS>BOND
     1    1    2 1    
     2    1  127 1    
     3    1  128 1    
     4    1  129 1    
     5    2    3 2    
     6    2    4 am   BACKBONE|DICT|INTERRES
     7    4    5 1    
     8    4  130 1    
     9    5    6 1    
    10    5   65 1    
    11    5  131 1    
    12    6    7 1    
    13    6  132 1    
    14    6  133 1    
    15    7    8 1    
    16    8    9 1    
    17    8  134 1    
    18    8  135 1    
    19    9   10 ar   
    20    9   14 ar   
    21   10   11 ar   
    22   10  136 1    
    23   11   12 ar   
    24   11  126 1    
    25   12   13 ar   
    26   12  137 1    
    27   13   14 ar   
    28   13   15 1    
    29   14  138 1    
    30   15   16 1    
    31   15  139 1    
    32   15  140 1    
    33   16   17 1    
    34   17   18 1    
    35   17  141 1    
    36   17  142 1    
    37   18   19 1    
    38   18   67 1    
    39   18  143 1    
    40   19   20 am   BACKBONE|DICT|INTERRES
    41   19  144 1    
    42   20   21 2    
    43   20   22 1    
    44   22   23 1    
    45   22   24 1    
    46   22  145 1    
    47   23  146 1    
    48   23  147 1    
    49   23  148 1    
    50   24   25 am   BACKBONE|DICT|INTERRES
    51   24  149 1    
    52   25   26 2    
    53   25   27 1    
    54   27   28 1    
    55   27   29 1    
    56   27  150 1    
    57   28  151 1    
    58   28  152 1    
    59   28  153 1    
    60   29   30 am   BACKBONE|DICT|INTERRES
    61   29  154 1    
    62   30   31 2    
    63   30   32 1    
    64   32   33 1    
    65   32   34 1    
    66   32  155 1    
    67   33  156 1    
    68   33  157 1    
    69   33  158 1    
    70   34   35 am   BACKBONE|DICT|INTERRES
    71   34  159 1    
    72   35   36 2    
    73   35   37 1    
    74   37   38 1    
    75   37   39 1    
    76   37  160 1    
    77   38  161 1    
    78   38  162 1    
    79   38  163 1    
    80   39   40 am   BACKBONE|DICT|INTERRES
    81   39  164 1    
    82   40   41 2    
    83   40   42 1    
    84   42   43 1    
    85   42   44 1    
    86   42  165 1    
    87   43  166 1    
    88   43  167 1    
    89   43  168 1    
    90   44   45 am   BACKBONE|DICT|INTERRES
    91   44  169 1    
    92   45   46 2    
    93   45   47 1    
    94   47   48 1    
    95   47   49 1    
    96   47  170 1    
    97   48  171 1    
    98   48  172 1    
    99   48  173 1    
   100   49   50 am   BACKBONE|DICT|INTERRES
   101   49  174 1    
   102   50   51 2    
   103   50   52 1    
   104   52   53 1    
   105   52   54 1    
   106   52  175 1    
   107   53  176 1    
   108   53  177 1    
   109   53  178 1    
   110   54   55 am   BACKBONE|DICT|INTERRES
   111   54  179 1    
   112   55   56 2    
   113   55   57 1    
   114   57   58 1    
   115   57   59 1    
   116   57  180 1    
   117   58  181 1    
   118   58  182 1    
   119   58  183 1    
   120   59   60 am   BACKBONE|DICT|INTERRES
   121   59  184 1    
   122   60   61 2    
   123   60   62 1    
   124   62   63 1    
   125   62   64 1    
   126   62  185 1    
   127   63  186 1    
   128   63  187 1    
   129   63  188 1    
   130   64   65 am   BACKBONE|DICT|INTERRES
   131   64  189 1    
   132   65   66 2    
   133   67   68 2    
   134   67   69 am   BACKBONE|DICT|INTERRES
   135   69   70 1    
   136   69  190 1    
   137   70   71 1    
   138   70   72 1    
   139   70  191 1    
   140   71  192 1    
   141   71  193 1    
   142   71  194 1    
   143   72   73 2    
   144   72   74 am   BACKBONE|DICT|INTERRES
   145   74   75 1    
   146   74  195 1    
   147   75   76 1    
   148   75   77 1    
   149   75  196 1    
   150   76  197 1    
   151   76  198 1    
   152   76  199 1    
   153   77   78 2    
   154   77   79 am   BACKBONE|DICT|INTERRES
   155   79   80 1    
   156   79  200 1    
   157   80   81 1    
   158   80   82 1    
   159   80  201 1    
   160   81  202 1    
   161   81  203 1    
   162   81  204 1    
   163   82   83 2    
   164   82   84 am   BACKBONE|DICT|INTERRES
   165   84   85 1    
   166   84  205 1    
   167   85   86 1    
   168   85   87 1    
   169   85  206 1    
   170   86  207 1    
   171   86  208 1    
   172   86  209 1    
   173   87   88 2    
   174   87   89 am   BACKBONE|DICT|INTERRES
   175   89   90 1    
   176   89  210 1    
   177   90   91 1    
   178   90   92 1    
   179   90  211 1    
   180   91  212 1    
   181   91  213 1    
   182   91  214 1    
   183   92   93 2    
   184   92   94 am   BACKBONE|DICT|INTERRES
   185   94   95 1    
   186   94  215 1    
   187   95   96 1    
   188   95   97 1    
   189   95  216 1    
   190   96  217 1    
   191   96  218 1    
   192   96  219 1    
   193   97   98 2    
   194   97   99 am   BACKBONE|DICT|INTERRES
   195   99  100 1    
   196   99  220 1    
   197  100  101 1    
   198  100  102 1    
   199  100  221 1    
   200  101  222 1    
   201  101  223 1    
   202  101  224 1    
   203  102  103 2    
   204  102  104 am   BACKBONE|DICT|INTERRES
   205  104  105 1    
   206  104  225 1    
   207  105  106 1    
   208  105  107 1    
   209  105  226 1    
   210  106  227 1    
   211  106  228 1    
   212  106  229 1    
   213  107  108 2    
   214  107  109 am   BACKBONE|DICT|INTERRES
   215  109  110 1    
   216  109  230 1    
   217  110  111 1    
   218  110  112 1    
   219  110  231 1    
   220  111  232 1    
   221  111  233 1    
   222  111  234 1    
   223  112  113 2    
   224  112  114 am   BACKBONE|DICT|INTERRES
   225  114  115 1    
   226  114  235 1    
   227  115  116 1    
   228  115  117 1    
   229  115  236 1    
   230  116  237 1    
   231  116  238 1    
   232  116  239 1    
   233  117  118 2    
   234  117  119 am   BACKBONE|DICT|INTERRES
   235  119  120 1    
   236  119  240 1    
   237  120  121 1    
   238  120  124 1    
   239  120  241 1    
   240  121  122 am   BACKBONE|DICT|INTERRES
   241  121  123 2    
   242  122  242 1    
   243  122  243 1    
   244  124  125 1    
   245  124  244 1    
   246  124  245 1    
   247  125  126 1    
   248  126  246 1    
   249  126  247 1    
@<TRIPOS>SUBSTRUCTURE
     1 UNK         1 GROUP             0       ****    0 ROOT    
