@<TRIPOS>MOLECULE
3R540
247   249    1
SMALL
USER_CHARGES


@<TRIPOS>ATOM
      1 CA          3.9905  -10.6797  -50.0696 C.3       0 UNK        -0.1800 
      2 C           5.0203  -11.1956  -49.0741 C.2       0 UNK         0.5000 
      3 O           6.1462  -10.6973  -49.0418 O.2       0 UNK        -0.5000 
      4 N           4.6401  -12.1963  -48.2714 N.am      1 UNK        -0.5000 
      5 CA          5.4674  -12.7899  -47.2143 C.3       1 UNK         0.1400 
      6 C6          4.9246  -14.1683  -46.7542 C.3       23 UNK        -0.0398 
      7 S7          4.6849  -15.3538  -48.1215 S.3       23 UNK        -0.2404 
      8 C8          2.8633  -15.4620  -48.2015 C.3       23 UNK        -0.0205 
      9 C9          2.3798  -16.5730  -49.1246 C.ar      23 UNK        -0.0193 
     10 C10         1.3988  -16.3095  -50.0840 C.ar      23 UNK        -0.1150 
     11 C11         0.9310  -17.3251  -50.9235 C.ar      23 UNK        -0.0193 
     12 C12         1.4542  -18.6160  -50.8020 C.ar      23 UNK        -0.1150 
     13 C13         2.4406  -18.8922  -49.8497 C.ar      23 UNK        -0.0193 
     14 C14         2.8872  -17.8711  -49.0070 C.ar      23 UNK        -0.1150 
     15 C15         3.0566  -20.2804  -49.7501 C.3       23 UNK        -0.0205 
     16 S16         2.5452  -21.1560  -48.2404 S.3       23 UNK        -0.2404 
     17 C17         0.7934  -21.4802  -48.6134 C.3       23 UNK        -0.0398 
     18 CA          0.1764  -22.4970  -47.6270 C.3       11 UNK         0.1400 
     19 N           0.0367  -21.9569  -46.2693 N.am      11 UNK        -0.5000 
     20 C          -0.3332  -22.6747  -45.1988 C.2       10 UNK         0.5000 
     21 O          -0.5612  -23.8825  -45.2318 O.2       10 UNK        -0.5000 
     22 CA         -0.5534  -21.9129  -43.8809 C.3       10 UNK         0.1400 
     23 CB          0.7817  -21.5675  -43.2050 C.3       10 UNK        -0.1800 
     24 N          -1.3553  -20.7050  -44.0703 N.am      10 UNK        -0.5000 
     25 C          -2.6252  -20.7040  -44.5007 C.2       9 UNK         0.5000 
     26 O          -3.2733  -21.7290  -44.7170 O.2       9 UNK        -0.5000 
     27 CA         -3.2677  -19.3319  -44.7747 C.3       9 UNK         0.1400 
     28 CB         -3.8291  -18.7264  -43.4800 C.3       9 UNK        -0.1800 
     29 N          -2.3466  -18.3868  -45.4100 N.am      9 UNK        -0.5000 
     30 C          -1.8083  -18.5553  -46.6279 C.2       8 UNK         0.5000 
     31 O          -2.0648  -19.5094  -47.3609 O.2       8 UNK        -0.5000 
     32 CA         -0.7694  -17.5155  -47.0845 C.3       8 UNK         0.1400 
     33 CB         -1.4600  -16.2357  -47.5767 C.3       8 UNK        -0.1800 
     34 N           0.1974  -17.1923  -46.0335 N.am      8 UNK        -0.5000 
     35 C           1.0399  -18.0841  -45.4909 C.2       7 UNK         0.5000 
     36 O           1.1155  -19.2563  -45.8557 O.2       7 UNK        -0.5000 
     37 CA          1.8877  -17.6186  -44.2934 C.3       7 UNK         0.1400 
     38 CB          3.1511  -16.8675  -44.7347 C.3       7 UNK        -0.1800 
     39 N           1.1291  -16.7877  -43.3630 N.am      7 UNK        -0.5000 
     40 C           0.1069  -17.2251  -42.6178 C.2       6 UNK         0.5000 
     41 O          -0.2886  -18.3905  -42.6118 O.2       6 UNK        -0.5000 
     42 CA         -0.6185  -16.1701  -41.7684 C.3       6 UNK         0.1400 
     43 CB          0.1895  -15.8274  -40.5076 C.3       6 UNK        -0.1800 
     44 N          -0.8895  -14.9487  -42.5262 N.am      6 UNK        -0.5000 
     45 C          -1.7708  -14.8659  -43.5316 C.2       5 UNK         0.5000 
     46 O          -2.4421  -15.8155  -43.9338 O.2       5 UNK        -0.5000 
     47 CA         -1.9139  -13.4963  -44.2177 C.3       5 UNK         0.1400 
     48 CB         -2.8842  -12.5982  -43.4359 C.3       5 UNK        -0.1800 
     49 N          -0.6412  -12.7960  -44.3951 N.am      5 UNK        -0.5000 
     50 C           0.3474  -13.2246  -45.1902 C.2       4 UNK         0.5000 
     51 O           0.3301  -14.2937  -45.7991 O.2       4 UNK        -0.5000 
     52 CA          1.5793  -12.3133  -45.3113 C.3       4 UNK         0.1400 
     53 CB          1.1967  -10.9308  -45.8662 C.3       4 UNK        -0.1800 
     54 N           2.3809  -12.1437  -44.0928 N.am      4 UNK        -0.5000 
     55 C           2.6384  -13.0334  -43.1208 C.2       3 UNK         0.5000 
     56 O           2.1193  -14.1458  -43.0320 O.2       3 UNK        -0.5000 
     57 CA          3.7302  -12.6166  -42.1227 C.3       3 UNK         0.1400 
     58 CB          3.9630  -13.6565  -41.0112 C.3       3 UNK        -0.1800 
     59 N           4.9660  -12.4348  -42.8785 N.am      3 UNK        -0.5000 
     60 C           5.7222  -11.3315  -42.8940 C.2       2 UNK         0.5000 
     61 O           5.5332  -10.3576  -42.1644 O.2       2 UNK        -0.5000 
     62 CA          6.8663  -11.2980  -43.9301 C.3       2 UNK         0.1400 
     63 CB          8.1767  -11.7916  -43.2980 C.3       2 UNK        -0.1800 
     64 N           6.5963  -12.0774  -45.1471 N.am      2 UNK        -0.5000 
     65 C           5.5976  -11.8308  -46.0081 C.2       1 UNK         0.5000 
     66 O           4.7804  -10.9199  -45.8508 O.2       1 UNK        -0.5000 
     67 C          -1.1583  -23.0363  -48.1764 C.2       11 UNK         0.5000 
     68 O          -1.1777  -24.1329  -48.7369 O.2       11 UNK        -0.5000 
     69 N          -2.2508  -22.2848  -47.9757 N.am      12 UNK        -0.5000 
     70 CA         -3.6105  -22.6661  -48.3599 C.3       12 UNK         0.1400 
     71 CB         -4.5850  -21.5265  -48.0307 C.3       12 UNK        -0.1800 
     72 C          -4.0683  -23.9931  -47.7305 C.2       12 UNK         0.5000 
     73 O          -4.6804  -24.8072  -48.4222 O.2       12 UNK        -0.5000 
     74 N          -3.7243  -24.2010  -46.4541 N.am      13 UNK        -0.5000 
     75 CA         -3.9591  -25.4476  -45.7342 C.3       13 UNK         0.1400 
     76 CB         -3.8469  -25.1906  -44.2229 C.3       13 UNK        -0.1800 
     77 C          -3.0039  -26.5716  -46.1785 C.2       13 UNK         0.5000 
     78 O          -3.4689  -27.6523  -46.5413 O.2       13 UNK        -0.5000 
     79 N          -1.6905  -26.3082  -46.1250 N.am      14 UNK        -0.5000 
     80 CA         -0.6336  -27.3075  -46.2994 C.3       14 UNK         0.1400 
     81 CB          0.7107  -26.7227  -45.8394 C.3       14 UNK        -0.1800 
     82 C          -0.5131  -27.8561  -47.7299 C.2       14 UNK         0.5000 
     83 O          -0.3459  -29.0647  -47.8991 O.2       14 UNK        -0.5000 
     84 N          -0.5959  -26.9700  -48.7301 N.am      15 UNK        -0.5000 
     85 CA         -0.4849  -27.3249  -50.1476 C.3       15 UNK         0.1400 
     86 CB          0.2293  -26.1835  -50.8922 C.3       15 UNK        -0.1800 
     87 C          -1.8542  -27.6159  -50.7893 C.2       15 UNK         0.5000 
     88 O          -1.8979  -27.9629  -51.9700 O.2       15 UNK        -0.5000 
     89 N          -2.9417  -27.4317  -50.0226 N.am      16 UNK        -0.5000 
     90 CA         -4.3473  -27.4752  -50.4451 C.3       16 UNK         0.1400 
     91 CB         -4.7484  -28.8879  -50.9174 C.3       16 UNK        -0.1800 
     92 C          -4.6932  -26.3739  -51.4728 C.2       16 UNK         0.5000 
     93 O          -5.6253  -26.5287  -52.2636 O.2       16 UNK        -0.5000 
     94 N          -3.9419  -25.2637  -51.4292 N.am      17 UNK        -0.5000 
     95 CA         -4.0724  -24.1087  -52.3165 C.3       17 UNK         0.1400 
     96 CB         -2.7474  -23.3271  -52.3280 C.3       17 UNK        -0.1800 
     97 C          -5.2720  -23.1992  -51.9833 C.2       17 UNK         0.5000 
     98 O          -5.4922  -22.2211  -52.6962 O.2       17 UNK        -0.5000 
     99 N          -6.0510  -23.5357  -50.9435 N.am      18 UNK        -0.5000 
    100 CA        -7.2804  -22.8564  -50.5137 C.3       18 UNK         0.1400 
    101 CB        -7.8459  -23.5851  -49.2842 C.3       18 UNK        -0.1800 
    102 C         -8.3721  -22.7317  -51.5974 C.2       18 UNK         0.5000 
    103 O         -9.2224  -21.8482  -51.4930 O.2       18 UNK        -0.5000 
    104 N         -8.3208  -23.5909  -52.6252 N.am      19 UNK        -0.5000 
    105 CA        -9.1590  -23.5081  -53.8227 C.3       19 UNK         0.1400 
    106 CB        -8.9792  -24.7918  -54.6470 C.3       19 UNK        -0.1800 
    107 C         -8.8594  -22.2640  -54.6863 C.2       19 UNK         0.5000 
    108 O         -9.7712  -21.7463  -55.3324 O.2       19 UNK        -0.5000 
    109 N         -7.6000  -21.8056  -54.6742 N.am      20 UNK        -0.5000 
    110 CA        -7.1468  -20.5812  -55.3339 C.3       20 UNK         0.1400 
    111 CB        -5.7742  -20.8333  -55.9778 C.3       20 UNK        -0.1800 
    112 C         -7.0600  -19.4127  -54.3378 C.2       20 UNK         0.5000 
    113 O         -7.3564  -18.2776  -54.7124 O.2       20 UNK        -0.5000 
    114 N         -6.6378  -19.7074  -53.0974 N.am      21 UNK        -0.5000 
    115 CA        -6.4822  -18.7915  -51.9598 C.3       21 UNK         0.1400 
    116 CB        -7.8639  -18.3495  -51.4367 C.3       21 UNK        -0.1800 
    117 C         -5.5451  -17.6023  -52.2641 C.2       21 UNK         0.5000 
    118 O         -5.8210  -16.4740  -51.8530 O.2       21 UNK        -0.5000 
    119 N         -4.4721  -17.8852  -53.0160 N.am      22 UNK        -0.5000 
    120 CA        -3.5059  -16.9186  -53.5700 C.3       22 UNK         0.1400 
    121 C         -4.0778  -15.9958  -54.6935 C.2       22 UNK         0.5000 
    122 N         -5.2797  -16.2213  -55.2121 N.am      22 UNK        -0.7600 
    123 O         -3.4021  -15.0714  -55.1376 O.2       22 UNK        -0.5000 
    124 C124       -2.7368  -16.1100  -52.4848 C.3       23 UNK        -0.0398 
    125 S125       -1.8043  -17.1573  -51.3124 S.3       23 UNK        -0.2404 
    126 C126       -0.1166  -17.0090  -51.9786 C.3       23 UNK        -0.0205 
    127 H127        4.3648  -10.7883  -51.0875 H         1 UNK         0.0600 
    128 H128        3.7911   -9.6235  -49.8889 H         1 UNK         0.0600 
    129 H129        3.0470  -11.2211  -49.9948 H         1 UNK         0.0600 
    130 H130        3.7014  -12.5553  -48.3458 H         1 UNK         0.3000 
    131 H131        6.4687  -12.9424  -47.6233 H         1 UNK         0.0600 
    132 H132        3.9931  -14.0603  -46.2026 H         1 UNK         0.0800 
    133 H133        5.6235  -14.6311  -46.0554 H         1 UNK         0.0800 
    134 H134        2.4489  -15.6462  -47.2133 H         1 UNK         0.0800 
    135 H135        2.4685  -14.4975  -48.5229 H         1 UNK         0.0800 
    136 H136        0.9924  -15.3122  -50.1781 H         1 UNK         0.1150 
    137 H137        1.1026  -19.4003  -51.4575 H         1 UNK         0.1150 
    138 H138        3.6407  -18.0881  -48.2630 H         1 UNK         0.1150 
    139 H139        2.8077  -20.8826  -50.6252 H         1 UNK         0.0800 
    140 H140        4.1433  -20.1857  -49.7472 H         1 UNK         0.0800 
    141 H141        0.7361  -21.8531  -49.6380 H         1 UNK         0.0800 
    142 H142        0.2446  -20.5368  -48.5940 H         1 UNK         0.0800 
    143 H143        0.8503  -23.3543  -47.5625 H         1 UNK         0.0600 
    144 H144        0.2510  -20.9697  -46.1509 H         1 UNK         0.3000 
    145 H145       -1.1068  -22.5713  -43.2081 H         1 UNK         0.0600 
    146 H146        0.6219  -21.0755  -42.2455 H         1 UNK         0.0600 
    147 H147        1.3651  -22.4693  -43.0155 H         1 UNK         0.0600 
    148 H148        1.3916  -20.9082  -43.8212 H         1 UNK         0.0600 
    149 H149       -0.9076  -19.8191  -43.8570 H         1 UNK         0.3000 
    150 H150       -4.1028  -19.4886  -45.4597 H         1 UNK         0.0600 
    151 H151       -4.5194  -19.4161  -42.9928 H         1 UNK         0.0600 
    152 H152       -4.3782  -17.8067  -43.6819 H         1 UNK         0.0600 
    153 H153       -3.0378  -18.4939  -42.7670 H         1 UNK         0.0600 
    154 H154       -2.1159  -17.5535  -44.8779 H         1 UNK         0.3000 
    155 H155       -0.2177  -17.9454  -47.9235 H         1 UNK         0.0600 
    156 H156       -1.9725  -15.7166  -46.7666 H         1 UNK         0.0600 
    157 H157       -2.2017  -16.4617  -48.3434 H         1 UNK         0.0600 
    158 H158       -0.7400  -15.5456  -48.0163 H         1 UNK         0.0600 
    159 H159        0.2085  -16.2299  -45.7078 H         1 UNK         0.3000 
    160 H160        2.2071  -18.5157  -43.7592 H         1 UNK         0.0600 
    161 H161        2.9161  -15.8549  -45.0570 H         1 UNK         0.0600 
    162 H162        3.6548  -17.3779  -45.5569 H         1 UNK         0.0600 
    163 H163        3.8626  -16.7887  -43.9128 H         1 UNK         0.0600 
    164 H164        1.3972  -15.8072  -43.2994 H         1 UNK         0.3000 
    165 H165       -1.5743  -16.5946  -41.4534 H         1 UNK         0.0600 
    166 H166       -0.3491  -15.1234  -39.8731 H         1 UNK         0.0600 
    167 H167        0.3799  -16.7216  -39.9128 H         1 UNK         0.0600 
    168 H168        1.1555  -15.3862  -40.7538 H         1 UNK         0.0600 
    169 H169       -0.3204  -14.1424  -42.3127 H         1 UNK         0.3000 
    170 H170       -2.3390  -13.6700  -45.2086 H         1 UNK         0.0600 
    171 H171       -3.8498  -13.0886  -43.3046 H         1 UNK         0.0600 
    172 H172       -2.5007  -12.3573  -42.4436 H         1 UNK         0.0600 
    173 H173       -3.0662  -11.6614  -43.9628 H         1 UNK         0.0600 
    174 H174       -0.5304  -11.9172  -43.9111 H         1 UNK         0.3000 
    175 H175        2.2276  -12.7756  -46.0531 H         1 UNK         0.0600 
    176 H176        0.6426  -10.3390  -45.1370 H         1 UNK         0.0600 
    177 H177        2.0826  -10.3625  -46.1503 H         1 UNK         0.0600 
    178 H178        0.5754  -11.0222  -46.7583 H         1 UNK         0.0600 
    179 H179        2.9114  -11.2839  -44.0640 H         1 UNK         0.3000 
    180 H180        3.4098  -11.6804  -41.6610 H         1 UNK         0.0600 
    181 H181        4.2569  -14.6252  -41.4175 H         1 UNK         0.0600 
    182 H182        3.0582  -13.8055  -40.4213 H         1 UNK         0.0600 
    183 H183        4.7462  -13.3299  -40.3271 H         1 UNK         0.0600 
    184 H184        5.1964  -13.1748  -43.5251 H         1 UNK         0.3000 
    185 H185        7.0032  -10.2565  -44.2285 H         1 UNK         0.0600 
    186 H186        8.4210  -11.2154  -42.4045 H         1 UNK         0.0600 
    187 H187        8.1124  -12.8402  -43.0047 H         1 UNK         0.0600 
    188 H188        9.0134  -11.6856  -43.9889 H         1 UNK         0.0600 
    189 H189        7.2364  -12.8350  -45.3388 H         1 UNK         0.3000 
    190 H190       -2.1440  -21.3657  -47.5518 H         1 UNK         0.3000 
    191 H191       -3.6183  -22.8030  -49.4392 H         1 UNK         0.0600 
    192 H192       -4.3208  -20.6146  -48.5663 H         1 UNK         0.0600 
    193 H193       -5.6039  -21.7836  -48.3134 H         1 UNK         0.0600 
    194 H194       -4.5951  -21.3001  -46.9660 H         1 UNK         0.0600 
    195 H195       -3.2510  -23.4596  -45.9491 H         1 UNK         0.3000 
    196 H196       -4.9798  -25.7767  -45.9409 H         1 UNK         0.0600 
    197 H197       -4.0189  -26.1064  -43.6561 H         1 UNK         0.0600 
    198 H198       -4.5861  -24.4598  -43.8941 H         1 UNK         0.0600 
    199 H199       -2.8622  -24.8116  -43.9469 H         1 UNK         0.0600 
    200 H200       -1.3831  -25.3832  -45.8282 H         1 UNK         0.3000 
    201 H201       -0.8689  -28.1505  -45.6462 H         1 UNK         0.0600 
    202 H202        0.6694  -26.4142  -44.7947 H         1 UNK         0.0600 
    203 H203        0.9955  -25.8538  -46.4341 H         1 UNK         0.0600 
    204 H204        1.5103  -27.4591  -45.9292 H         1 UNK         0.0600 
    205 H205       -0.7589  -25.9870  -48.5240 H         1 UNK         0.3000 
    206 H206        0.1248  -28.2242  -50.2571 H         1 UNK         0.0600 
    207 H207        1.1759  -25.9294  -50.4151 H         1 UNK         0.0600 
    208 H208        0.4514  -26.4695  -51.9210 H         1 UNK         0.0600 
    209 H209       -0.3801  -25.2807  -50.9331 H         1 UNK         0.0600 
    210 H210       -2.7881  -27.1635  -49.0600 H         1 UNK         0.3000 
    211 H211       -4.9358  -27.2527  -49.5542 H         1 UNK         0.0600 
    212 H212       -4.2688  -29.1551  -51.8592 H         1 UNK         0.0600 
    213 H213       -5.8259  -28.9556  -51.0716 H         1 UNK         0.0600 
    214 H214       -4.4800  -29.6416  -50.1772 H         1 UNK         0.0600 
    215 H215       -3.2233  -25.2120  -50.7214 H         1 UNK         0.3000 
    216 H216       -4.2425  -24.4785  -53.3297 H         1 UNK         0.0600 
    217 H217       -2.8062  -22.4603  -52.9877 H         1 UNK         0.0600 
    218 H218       -1.9316  -23.9514  -52.6932 H         1 UNK         0.0600 
    219 H219       -2.4675  -22.9670  -51.3394 H         1 UNK         0.0600 
    220 H220       -5.7725  -24.3366  -50.3912 H         1 UNK         0.3000 
    221 H221       -7.0087  -21.8403  -50.2231 H         1 UNK         0.0600 
    222 H222       -8.0996  -24.6205  -49.5152 H         1 UNK         0.0600 
    223 H223       -7.1356  -23.5938  -48.4587 H         1 UNK         0.0600 
    224 H224       -8.7522  -23.0981  -48.9215 H         1 UNK         0.0600 
    225 H225       -7.6069  -24.3054  -52.6169 H         1 UNK         0.3000 
    226 H226      -10.2019  -23.4480  -53.5043 H         1 UNK         0.0600 
    227 H227       -9.2590  -25.6736  -54.0702 H         1 UNK         0.0600 
    228 H228       -9.6074  -24.7748  -55.5386 H         1 UNK         0.0600 
    229 H229       -7.9465  -24.9186  -54.9747 H         1 UNK         0.0600 
    230 H230       -6.9215  -22.2649  -54.0777 H         1 UNK         0.3000 
    231 H231       -7.8436  -20.2968  -56.1251 H         1 UNK         0.0600 
    232 H232       -5.8314  -21.6246  -56.7253 H         1 UNK         0.0600 
    233 H233       -5.0261  -21.1251  -55.2397 H         1 UNK         0.0600 
    234 H234       -5.4081  -19.9370  -56.4805 H         1 UNK         0.0600 
    235 H235       -6.3313  -20.6623  -52.9234 H         1 UNK         0.3000 
    236 H236       -5.9974  -19.3654  -51.1686 H         1 UNK         0.0600 
    237 H237       -7.7687  -17.7641  -50.5216 H         1 UNK         0.0600 
    238 H238       -8.3940  -17.7360  -52.1658 H         1 UNK         0.0600 
    239 H239       -8.4911  -19.2099  -51.2050 H         1 UNK         0.0600 
    240 H240       -4.3431  -18.8427  -53.3083 H         1 UNK         0.3000 
    241 H241       -2.7658  -17.5303  -54.0869 H         1 UNK         0.0600 
    242 H242       -5.6153  -15.6165  -55.9448 H         1 UNK         0.3800 
    243 H243       -5.8794  -16.9660  -54.8732 H         1 UNK         0.3800 
    244 H244       -3.4249  -15.4897  -51.9103 H         1 UNK         0.0800 
    245 H245       -2.0445  -15.4076  -52.9503 H         1 UNK         0.0800 
    246 H246        0.0551  -15.9983  -52.3515 H         1 UNK         0.0800 
    247 H247       -0.0086  -17.6741  -52.8367 H         1 UNK         0.0800 
@<TRIPOS>BOND
     1    1    2 1    
     2    1  127 1    
     3    1  128 1    
     4    1  129 1    
     5    2    3 2    
     6    2    4 am   BACKBONE|DICT|INTERRES
     7    4    5 1    
     8    4  130 1    
     9    5    6 1    
    10    5   65 1    
    11    5  131 1    
    12    6    7 1    
    13    6  132 1    
    14    6  133 1    
    15    7    8 1    
    16    8    9 1    
    17    8  134 1    
    18    8  135 1    
    19    9   10 ar   
    20    9   14 ar   
    21   10   11 ar   
    22   10  136 1    
    23   11   12 ar   
    24   11  126 1    
    25   12   13 ar   
    26   12  137 1    
    27   13   14 ar   
    28   13   15 1    
    29   14  138 1    
    30   15   16 1    
    31   15  139 1    
    32   15  140 1    
    33   16   17 1    
    34   17   18 1    
    35   17  141 1    
    36   17  142 1    
    37   18   19 1    
    38   18   67 1    
    39   18  143 1    
    40   19   20 am   BACKBONE|DICT|INTERRES
    41   19  144 1    
    42   20   21 2    
    43   20   22 1    
    44   22   23 1    
    45   22   24 1    
    46   22  145 1    
    47   23  146 1    
    48   23  147 1    
    49   23  148 1    
    50   24   25 am   BACKBONE|DICT|INTERRES
    51   24  149 1    
    52   25   26 2    
    53   25   27 1    
    54   27   28 1    
    55   27   29 1    
    56   27  150 1    
    57   28  151 1    
    58   28  152 1    
    59   28  153 1    
    60   29   30 am   BACKBONE|DICT|INTERRES
    61   29  154 1    
    62   30   31 2    
    63   30   32 1    
    64   32   33 1    
    65   32   34 1    
    66   32  155 1    
    67   33  156 1    
    68   33  157 1    
    69   33  158 1    
    70   34   35 am   BACKBONE|DICT|INTERRES
    71   34  159 1    
    72   35   36 2    
    73   35   37 1    
    74   37   38 1    
    75   37   39 1    
    76   37  160 1    
    77   38  161 1    
    78   38  162 1    
    79   38  163 1    
    80   39   40 am   BACKBONE|DICT|INTERRES
    81   39  164 1    
    82   40   41 2    
    83   40   42 1    
    84   42   43 1    
    85   42   44 1    
    86   42  165 1    
    87   43  166 1    
    88   43  167 1    
    89   43  168 1    
    90   44   45 am   BACKBONE|DICT|INTERRES
    91   44  169 1    
    92   45   46 2    
    93   45   47 1    
    94   47   48 1    
    95   47   49 1    
    96   47  170 1    
    97   48  171 1    
    98   48  172 1    
    99   48  173 1    
   100   49   50 am   BACKBONE|DICT|INTERRES
   101   49  174 1    
   102   50   51 2    
   103   50   52 1    
   104   52   53 1    
   105   52   54 1    
   106   52  175 1    
   107   53  176 1    
   108   53  177 1    
   109   53  178 1    
   110   54   55 am   BACKBONE|DICT|INTERRES
   111   54  179 1    
   112   55   56 2    
   113   55   57 1    
   114   57   58 1    
   115   57   59 1    
   116   57  180 1    
   117   58  181 1    
   118   58  182 1    
   119   58  183 1    
   120   59   60 am   BACKBONE|DICT|INTERRES
   121   59  184 1    
   122   60   61 2    
   123   60   62 1    
   124   62   63 1    
   125   62   64 1    
   126   62  185 1    
   127   63  186 1    
   128   63  187 1    
   129   63  188 1    
   130   64   65 am   BACKBONE|DICT|INTERRES
   131   64  189 1    
   132   65   66 2    
   133   67   68 2    
   134   67   69 am   BACKBONE|DICT|INTERRES
   135   69   70 1    
   136   69  190 1    
   137   70   71 1    
   138   70   72 1    
   139   70  191 1    
   140   71  192 1    
   141   71  193 1    
   142   71  194 1    
   143   72   73 2    
   144   72   74 am   BACKBONE|DICT|INTERRES
   145   74   75 1    
   146   74  195 1    
   147   75   76 1    
   148   75   77 1    
   149   75  196 1    
   150   76  197 1    
   151   76  198 1    
   152   76  199 1    
   153   77   78 2    
   154   77   79 am   BACKBONE|DICT|INTERRES
   155   79   80 1    
   156   79  200 1    
   157   80   81 1    
   158   80   82 1    
   159   80  201 1    
   160   81  202 1    
   161   81  203 1    
   162   81  204 1    
   163   82   83 2    
   164   82   84 am   BACKBONE|DICT|INTERRES
   165   84   85 1    
   166   84  205 1    
   167   85   86 1    
   168   85   87 1    
   169   85  206 1    
   170   86  207 1    
   171   86  208 1    
   172   86  209 1    
   173   87   88 2    
   174   87   89 am   BACKBONE|DICT|INTERRES
   175   89   90 1    
   176   89  210 1    
   177   90   91 1    
   178   90   92 1    
   179   90  211 1    
   180   91  212 1    
   181   91  213 1    
   182   91  214 1    
   183   92   93 2    
   184   92   94 am   BACKBONE|DICT|INTERRES
   185   94   95 1    
   186   94  215 1    
   187   95   96 1    
   188   95   97 1    
   189   95  216 1    
   190   96  217 1    
   191   96  218 1    
   192   96  219 1    
   193   97   98 2    
   194   97   99 am   BACKBONE|DICT|INTERRES
   195   99  100 1    
   196   99  220 1    
   197  100  101 1    
   198  100  102 1    
   199  100  221 1    
   200  101  222 1    
   201  101  223 1    
   202  101  224 1    
   203  102  103 2    
   204  102  104 am   BACKBONE|DICT|INTERRES
   205  104  105 1    
   206  104  225 1    
   207  105  106 1    
   208  105  107 1    
   209  105  226 1    
   210  106  227 1    
   211  106  228 1    
   212  106  229 1    
   213  107  108 2    
   214  107  109 am   BACKBONE|DICT|INTERRES
   215  109  110 1    
   216  109  230 1    
   217  110  111 1    
   218  110  112 1    
   219  110  231 1    
   220  111  232 1    
   221  111  233 1    
   222  111  234 1    
   223  112  113 2    
   224  112  114 am   BACKBONE|DICT|INTERRES
   225  114  115 1    
   226  114  235 1    
   227  115  116 1    
   228  115  117 1    
   229  115  236 1    
   230  116  237 1    
   231  116  238 1    
   232  116  239 1    
   233  117  118 2    
   234  117  119 am   BACKBONE|DICT|INTERRES
   235  119  120 1    
   236  119  240 1    
   237  120  121 1    
   238  120  124 1    
   239  120  241 1    
   240  121  122 am   BACKBONE|DICT|INTERRES
   241  121  123 2    
   242  122  242 1    
   243  122  243 1    
   244  124  125 1    
   245  124  244 1    
   246  124  245 1    
   247  125  126 1    
   248  126  246 1    
   249  126  247 1    
@<TRIPOS>SUBSTRUCTURE
     1 UNK         1 GROUP             0       ****    0 ROOT    
