@<TRIPOS>MOLECULE
3R540
247   249    1
SMALL
USER_CHARGES


@<TRIPOS>ATOM
      1 CA          3.6114  -15.6360  -46.3316 C.3       0 UNK        -0.1800 
      2 C           4.5923  -15.0624  -47.3497 C.2       0 UNK         0.5000 
      3 O           5.8000  -15.1870  -47.1592 O.2       0 UNK        -0.5000 
      4 N           4.1365  -14.4375  -48.4441 N.am      1 UNK        -0.5000 
      5 CA          2.7360  -14.1619  -48.8029 C.3       1 UNK         0.1400 
      6 C6          2.6008  -13.7592  -50.2916 C.3       23 UNK        -0.0398 
      7 S7          3.2834  -15.0104  -51.4331 S.3       23 UNK        -0.2404 
      8 C8          1.7898  -15.6027  -52.2839 C.3       23 UNK        -0.0205 
      9 C9          0.9883  -16.5768  -51.4341 C.ar      23 UNK        -0.0193 
     10 C10        -0.1154  -16.1356  -50.6991 C.ar      23 UNK        -0.1150 
     11 C11        -0.9082  -17.0462  -49.9938 C.ar      23 UNK        -0.0193 
     12 C12        -0.5697  -18.4021  -50.0020 C.ar      23 UNK        -0.1150 
     13 C13         0.5479  -18.8522  -50.7117 C.ar      23 UNK        -0.0193 
     14 C14         1.3213  -17.9341  -51.4268 C.ar      23 UNK        -0.1150 
     15 C15         0.8897  -20.3345  -50.7549 C.3       23 UNK        -0.0205 
     16 S16         2.2187  -20.7976  -49.5921 S.3       23 UNK        -0.2404 
     17 C17         1.4503  -20.5349  -47.9561 C.3       23 UNK        -0.0398 
     18 CA          0.7812  -21.8005  -47.3621 C.3       11 UNK         0.1400 
     19 N           0.5497  -21.6691  -45.9214 N.am      11 UNK        -0.5000 
     20 C           0.0778  -22.6335  -45.1179 C.2       10 UNK         0.5000 
     21 O          -0.1478  -23.7853  -45.4882 O.2       10 UNK        -0.5000 
     22 CA         -0.2527  -22.2286  -43.6690 C.3       10 UNK         0.1400 
     23 CB          1.0114  -22.2180  -42.7972 C.3       10 UNK        -0.1800 
     24 N          -0.9264  -20.9304  -43.5894 N.am      10 UNK        -0.5000 
     25 C          -2.1347  -20.6760  -44.1134 C.2       9 UNK         0.5000 
     26 O          -2.8311  -21.5269  -44.6652 O.2       9 UNK        -0.5000 
     27 CA         -2.6316  -19.2207  -44.0601 C.3       9 UNK         0.1400 
     28 CB         -3.2305  -18.8968  -42.6837 C.3       9 UNK        -0.1800 
     29 N          -1.5821  -18.2554  -44.3866 N.am      9 UNK        -0.5000 
     30 C          -0.9641  -18.1766  -45.5735 C.2       8 UNK         0.5000 
     31 O          -1.2527  -18.8814  -46.5396 O.2       8 UNK        -0.5000 
     32 CA          0.2150  -17.1921  -45.6812 C.3       8 UNK         0.1400 
     33 CB         -0.2773  -15.7511  -45.8707 C.3       8 UNK        -0.1800 
     34 N           1.0974  -17.2567  -44.5157 N.am      8 UNK        -0.5000 
     35 C           1.8060  -18.3370  -44.1593 C.2       7 UNK         0.5000 
     36 O           1.8437  -19.3745  -44.8180 O.2       7 UNK        -0.5000 
     37 CA          2.5512  -18.2697  -42.8161 C.3       7 UNK         0.1400 
     38 CB          3.9289  -17.6120  -42.9752 C.3       7 UNK        -0.1800 
     39 N           1.7750  -17.5578  -41.8018 N.am      7 UNK        -0.5000 
     40 C           0.6728  -18.0494  -41.2188 C.2       6 UNK         0.5000 
     41 O           0.2231  -19.1725  -41.4469 O.2       6 UNK        -0.5000 
     42 CA         -0.0729  -17.1107  -40.2522 C.3       6 UNK         0.1400 
     43 CB          0.5759  -17.1380  -38.8604 C.3       6 UNK        -0.1800 
     44 N          -0.1236  -15.7304  -40.7386 N.am      6 UNK        -0.5000 
     45 C          -0.8024  -15.3394  -41.8263 C.2       5 UNK         0.5000 
     46 O          -1.4924  -16.0971  -42.5056 O.2       5 UNK        -0.5000 
     47 CA         -0.6524  -13.8685  -42.2562 C.3       5 UNK         0.1400 
     48 CB         -1.7152  -12.9964  -41.5725 C.3       5 UNK        -0.1800 
     49 N           0.6742  -13.3049  -41.9960 N.am      5 UNK        -0.5000 
     50 C           1.8284  -13.7678  -42.4906 C.2       4 UNK         0.5000 
     51 O           1.9072  -14.7608  -43.2157 O.2       4 UNK        -0.5000 
     52 CA          3.0964  -12.9749  -42.1146 C.3       4 UNK         0.1400 
     53 CB          4.3709  -13.8268  -42.2460 C.3       4 UNK        -0.1800 
     54 N           3.2523  -11.7751  -42.9359 N.am      4 UNK        -0.5000 
     55 C           2.4825  -10.6783  -42.8914 C.2       3 UNK         0.5000 
     56 O           1.5501  -10.5356  -42.0995 O.2       3 UNK        -0.5000 
     57 CA          2.8071   -9.5434  -43.8861 C.3       3 UNK         0.1400 
     58 CB          3.1182   -8.2392  -43.1340 C.3       3 UNK        -0.1800 
     59 N           3.9447   -9.8501  -44.7623 N.am      3 UNK        -0.5000 
     60 C           3.9480  -10.5310  -45.9168 C.2       2 UNK         0.5000 
     61 O           5.0025  -10.7584  -46.5132 O.2       2 UNK        -0.5000 
     62 CA          2.6275  -11.0388  -46.5297 C.3       2 UNK         0.1400 
     63 CB          1.9412   -9.9324  -47.3554 C.3       2 UNK        -0.1800 
     64 N           2.9572  -12.1673  -47.3918 N.am      2 UNK        -0.5000 
     65 C           2.1126  -13.0623  -47.9150 C.2       1 UNK         0.5000 
     66 O           0.8971  -13.0495  -47.7254 O.2       1 UNK        -0.5000 
     67 C          -0.5200  -22.1589  -48.1067 C.2       11 UNK         0.5000 
     68 O          -0.5294  -23.1138  -48.8821 O.2       11 UNK        -0.5000 
     69 N          -1.5997  -21.4108  -47.8372 N.am      12 UNK        -0.5000 
     70 CA         -2.9249  -21.6362  -48.4132 C.3       12 UNK         0.1400 
     71 CB         -3.8696  -20.4967  -48.0058 C.3       12 UNK        -0.1800 
     72 C          -3.5101  -23.0083  -48.0349 C.2       12 UNK         0.5000 
     73 O          -4.0378  -23.6980  -48.9060 O.2       12 UNK        -0.5000 
     74 N          -3.3662  -23.4043  -46.7623 N.am      13 UNK        -0.5000 
     75 CA         -3.7530  -24.7209  -46.2544 C.3       13 UNK         0.1400 
     76 CB         -3.5558  -24.7755  -44.7321 C.3       13 UNK        -0.1800 
     77 C          -2.9994  -25.8668  -46.9535 C.2       13 UNK         0.5000 
     78 O          -3.6371  -26.8173  -47.4111 O.2       13 UNK        -0.5000 
     79 N          -1.6694  -25.7259  -47.0654 N.am      14 UNK        -0.5000 
     80 CA         -0.7807  -26.6551  -47.7667 C.3       14 UNK         0.1400 
     81 CB          0.6815  -26.2437  -47.5396 C.3       14 UNK        -0.1800 
     82 C          -1.0889  -26.7685  -49.2710 C.2       14 UNK         0.5000 
     83 O          -1.0227  -27.8687  -49.8210 O.2       14 UNK        -0.5000 
     84 N          -1.4843  -25.6531  -49.8991 N.am      15 UNK        -0.5000 
     85 CA         -1.9657  -25.5613  -51.2795 C.3       15 UNK         0.1400 
     86 CB         -1.8081  -24.1114  -51.7695 C.3       15 UNK        -0.1800 
     87 C          -3.4111  -26.0862  -51.4425 C.2       15 UNK         0.5000 
     88 O          -4.2545  -25.4058  -52.0315 O.2       15 UNK        -0.5000 
     89 N          -3.6580  -27.2938  -50.9144 N.am      16 UNK        -0.5000 
     90 CA         -4.8898  -28.0846  -50.9703 C.3       16 UNK         0.1400 
     91 CB         -5.0393  -28.7205  -52.3665 C.3       16 UNK        -0.1800 
     92 C          -6.1461  -27.3168  -50.5093 C.2       16 UNK         0.5000 
     93 O          -7.1788  -27.3683  -51.1795 O.2       16 UNK        -0.5000 
     94 N          -6.0234  -26.6205  -49.3686 N.am      17 UNK        -0.5000 
     95 CA         -7.0506  -25.7831  -48.7391 C.3       17 UNK         0.1400 
     96 CB         -8.2135  -26.6468  -48.2070 C.3       17 UNK        -0.1800 
     97 C          -7.5129  -24.6321  -49.6574 C.2       17 UNK         0.5000 
     98 O          -8.7016  -24.5075  -49.9589 O.2       17 UNK        -0.5000 
     99 N          -6.5382  -23.8157  -50.0769 N.am      18 UNK        -0.5000 
    100 CA        -6.6566  -22.6368  -50.9352 C.3       18 UNK         0.1400 
    101 CB        -7.4695  -21.5270  -50.2356 C.3       18 UNK        -0.1800 
    102 C         -7.1671  -22.9691  -52.3507 C.2       18 UNK         0.5000 
    103 O         -8.0100  -22.2487  -52.8903 O.2       18 UNK        -0.5000 
    104 N         -6.6327  -24.0479  -52.9417 N.am      19 UNK        -0.5000 
    105 CA        -6.8473  -24.3897  -54.3495 C.3       19 UNK         0.1400 
    106 CB        -6.4391  -25.8473  -54.6010 C.3       19 UNK        -0.1800 
    107 C         -6.0703  -23.4373  -55.2767 C.2       19 UNK         0.5000 
    108 O         -6.5739  -23.0753  -56.3409 O.2       19 UNK        -0.5000 
    109 N         -4.8778  -23.0191  -54.8316 N.am      20 UNK        -0.5000 
    110 CA        -4.1254  -21.9089  -55.4066 C.3       20 UNK         0.1400 
    111 CB        -2.6237  -22.1394  -55.1782 C.3       20 UNK        -0.1800 
    112 C         -4.5746  -20.6014  -54.7345 C.2       20 UNK         0.5000 
    113 O         -4.7876  -20.5823  -53.5188 O.2       20 UNK        -0.5000 
    114 N         -4.6939  -19.5333  -55.5291 N.am      21 UNK        -0.5000 
    115 CA        -5.0101  -18.1889  -55.0509 C.3       21 UNK         0.1400 
    116 CB        -5.5678  -17.3648  -56.2222 C.3       21 UNK        -0.1800 
    117 C         -3.7667  -17.5046  -54.4543 C.2       21 UNK         0.5000 
    118 O         -2.6462  -17.7701  -54.8970 O.2       21 UNK        -0.5000 
    119 N         -3.9961  -16.6053  -53.4917 N.am      22 UNK        -0.5000 
    120 CA        -2.9540  -15.7930  -52.8390 C.3       22 UNK         0.1400 
    121 C         -2.4358  -14.5949  -53.6906 C.2       22 UNK         0.5000 
    122 N         -3.0355  -14.2711  -54.8300 N.am      22 UNK        -0.7600 
    123 O         -1.4641  -13.9474  -53.3116 O.2       22 UNK        -0.5000 
    124 C124       -3.4057  -15.3138  -51.4347 C.3       23 UNK        -0.0398 
    125 S125       -3.6480  -16.6946  -50.2640 S.3       23 UNK        -0.2404 
    126 C126       -2.1440  -16.5741  -49.2423 C.3       23 UNK        -0.0205 
    127 H127        4.1321  -16.3015  -45.6446 H         1 UNK         0.0600 
    128 H128        2.8323  -16.2200  -46.8176 H         1 UNK         0.0600 
    129 H129        3.1497  -14.8425  -45.7442 H         1 UNK         0.0600 
    130 H130        4.8140  -14.1089  -49.1173 H         1 UNK         0.3000 
    131 H131        2.1524  -15.0726  -48.6564 H         1 UNK         0.0600 
    132 H132        1.5555  -13.5718  -50.5428 H         1 UNK         0.0800 
    133 H133        3.1246  -12.8205  -50.4820 H         1 UNK         0.0800 
    134 H134        2.0912  -16.0971  -53.2085 H         1 UNK         0.0800 
    135 H135        1.1720  -14.7564  -52.5887 H         1 UNK         0.0800 
    136 H136       -0.3784  -15.0877  -50.7075 H         1 UNK         0.1150 
    137 H137       -1.1870  -19.1073  -49.4641 H         1 UNK         0.1150 
    138 H138        2.1739  -18.2799  -51.9947 H         1 UNK         0.1150 
    139 H139       -0.0007  -20.9359  -50.5736 H         1 UNK         0.0800 
    140 H140        1.2137  -20.5947  -51.7636 H         1 UNK         0.0800 
    141 H141        0.7618  -19.6925  -47.9891 H         1 UNK         0.0800 
    142 H142        2.2592  -20.2170  -47.2978 H         1 UNK         0.0800 
    143 H143        1.4710  -22.6377  -47.4881 H         1 UNK         0.0600 
    144 H144        0.7663  -20.7638  -45.5126 H         1 UNK         0.3000 
    145 H145       -0.9337  -22.9793  -43.2630 H         1 UNK         0.0600 
    146 H146        0.7726  -21.9849  -41.7594 H         1 UNK         0.0600 
    147 H147        1.4993  -23.1933  -42.8081 H         1 UNK         0.0600 
    148 H148        1.7380  -21.4849  -43.1460 H         1 UNK         0.0600 
    149 H149       -0.4365  -20.1886  -43.1006 H         1 UNK         0.3000 
    150 H150       -3.4223  -19.1141  -44.8055 H         1 UNK         0.0600 
    151 H151       -4.0236  -19.6003  -42.4272 H         1 UNK         0.0600 
    152 H152       -3.6656  -17.8974  -42.6696 H         1 UNK         0.0600 
    153 H153       -2.4798  -18.9452  -41.8948 H         1 UNK         0.0600 
    154 H154       -1.3321  -17.5936  -43.6567 H         1 UNK         0.3000 
    155 H155        0.8008  -17.4704  -46.5594 H         1 UNK         0.0600 
    156 H156       -0.7886  -15.6371  -46.8253 H         1 UNK         0.0600 
    157 H157        0.5520  -15.0443  -45.8608 H         1 UNK         0.0600 
    158 H158       -0.9759  -15.4547  -45.0893 H         1 UNK         0.0600 
    159 H159        1.1725  -16.4195  -43.9457 H         1 UNK         0.3000 
    160 H160        2.7082  -19.2937  -42.4712 H         1 UNK         0.0600 
    161 H161        3.8468  -16.5767  -43.3023 H         1 UNK         0.0600 
    162 H162        4.5308  -18.1428  -43.7139 H         1 UNK         0.0600 
    163 H163        4.4819  -17.6233  -42.0360 H         1 UNK         0.0600 
    164 H164        2.0421  -16.6029  -41.6138 H         1 UNK         0.3000 
    165 H165       -1.0978  -17.4762  -40.1581 H         1 UNK         0.0600 
    166 H166        0.0092  -16.5362  -38.1497 H         1 UNK         0.0600 
    167 H167        0.6120  -18.1549  -38.4672 H         1 UNK         0.0600 
    168 H168        1.5981  -16.7581  -38.8827 H         1 UNK         0.0600 
    169 H169        0.4163  -15.0430  -40.2340 H         1 UNK         0.3000 
    170 H170       -0.8187  -13.8228  -43.3338 H         1 UNK         0.0600 
    171 H171       -2.7187  -13.3755  -41.7707 H         1 UNK         0.0600 
    172 H172       -1.5804  -12.9715  -40.4905 H         1 UNK         0.0600 
    173 H173       -1.6783  -11.9703  -41.9391 H         1 UNK         0.0600 
    174 H174        0.7012  -12.4287  -41.4883 H         1 UNK         0.3000 
    175 H175        3.0048  -12.6711  -41.0698 H         1 UNK         0.0600 
    176 H176        5.2488  -13.2770  -41.9063 H         1 UNK         0.0600 
    177 H177        4.3013  -14.7297  -41.6382 H         1 UNK         0.0600 
    178 H178        4.5483  -14.1351  -43.2774 H         1 UNK         0.0600 
    179 H179        4.0059  -11.7936  -43.6068 H         1 UNK         0.3000 
    180 H180        1.9098   -9.3716  -44.4807 H         1 UNK         0.0600 
    181 H181        3.9930   -8.3435  -42.4909 H         1 UNK         0.0600 
    182 H182        2.2810   -7.9380  -42.5028 H         1 UNK         0.0600 
    183 H183        3.3076   -7.4198  -43.8279 H         1 UNK         0.0600 
    184 H184        4.8368   -9.5274  -44.4165 H         1 UNK         0.3000 
    185 H185        1.9616  -11.3919  -45.7411 H         1 UNK         0.0600 
    186 H186        1.7471   -9.0433  -46.7558 H         1 UNK         0.0600 
    187 H187        2.5596   -9.6244  -48.1994 H         1 UNK         0.0600 
    188 H188        0.9823  -10.2674  -47.7506 H         1 UNK         0.0600 
    189 H189        3.9506  -12.2569  -47.5729 H         1 UNK         0.3000 
    190 H190       -1.5054  -20.6168  -47.2079 H         1 UNK         0.3000 
    191 H191       -2.8190  -21.6111  -49.4996 H         1 UNK         0.0600 
    192 H192       -4.0008  -20.4478  -46.9248 H         1 UNK         0.0600 
    193 H193       -4.8553  -20.6293  -48.4521 H         1 UNK         0.0600 
    194 H194       -3.4898  -19.5311  -48.3400 H         1 UNK         0.0600 
    195 H195       -2.9665  -22.7555  -46.0886 H         1 UNK         0.3000 
    196 H196       -4.8168  -24.8506  -46.4549 H         1 UNK         0.0600 
    197 H197       -3.8583  -25.7446  -44.3338 H         1 UNK         0.0600 
    198 H198       -4.1559  -24.0160  -44.2306 H         1 UNK         0.0600 
    199 H199       -2.5148  -24.6157  -44.4522 H         1 UNK         0.0600 
    200 H200       -1.2259  -24.9167  -46.6386 H         1 UNK         0.3000 
    201 H201       -0.9267  -27.6436  -47.3267 H         1 UNK         0.0600 
    202 H202        0.9310  -26.2464  -46.4784 H         1 UNK         0.0600 
    203 H203        0.8841  -25.2450  -47.9272 H         1 UNK         0.0600 
    204 H204        1.3642  -26.9342  -48.0362 H         1 UNK         0.0600 
    205 H205       -1.4653  -24.7811  -49.3787 H         1 UNK         0.3000 
    206 H206       -1.3295  -26.1892  -51.9061 H         1 UNK         0.0600 
    207 H207       -0.7786  -23.7677  -51.6676 H         1 UNK         0.0600 
    208 H208       -2.0743  -24.0310  -52.8230 H         1 UNK         0.0600 
    209 H209       -2.4470  -23.4263  -51.2118 H         1 UNK         0.0600 
    210 H210       -2.8777  -27.7390  -50.4413 H         1 UNK         0.3000 
    211 H211       -4.7613  -28.8980  -50.2549 H         1 UNK         0.0600 
    212 H212       -5.1385  -27.9652  -53.1440 H         1 UNK         0.0600 
    213 H213       -5.9179  -29.3646  -52.4167 H         1 UNK         0.0600 
    214 H214       -4.1740  -29.3364  -52.6111 H         1 UNK         0.0600 
    215 H215       -5.1250  -26.6397  -48.8967 H         1 UNK         0.3000 
    216 H216       -6.5790  -25.3124  -47.8770 H         1 UNK         0.0600 
    217 H217       -8.9268  -26.0374  -47.6510 H         1 UNK         0.0600 
    218 H218       -7.8510  -27.4203  -47.5300 H         1 UNK         0.0600 
    219 H219       -8.7618  -27.1361  -49.0124 H         1 UNK         0.0600 
    220 H220       -5.5896  -24.0035  -49.7538 H         1 UNK         0.3000 
    221 H221       -5.6405  -22.2607  -51.0654 H         1 UNK         0.0600 
    222 H222       -8.5212  -21.7965  -50.1348 H         1 UNK         0.0600 
    223 H223       -7.0803  -21.3199  -49.2392 H         1 UNK         0.0600 
    224 H224       -7.4230  -20.5963  -50.8022 H         1 UNK         0.0600 
    225 H225       -5.9291  -24.5897  -52.4445 H         1 UNK         0.3000 
    226 H226       -7.9116  -24.2924  -54.5742 H         1 UNK         0.0600 
    227 H227       -6.9785  -26.5264  -53.9405 H         1 UNK         0.0600 
    228 H228       -6.6634  -26.1423  -55.6267 H         1 UNK         0.0600 
    229 H229       -5.3707  -25.9974  -54.4441 H         1 UNK         0.0600 
    230 H230       -4.5753  -23.3392  -53.9226 H         1 UNK         0.3000 
    231 H231       -4.3087  -21.8536  -56.4819 H         1 UNK         0.0600 
    232 H232       -2.3046  -23.1041  -55.5729 H         1 UNK         0.0600 
    233 H233       -2.3671  -22.1045  -54.1191 H         1 UNK         0.0600 
    234 H234       -2.0346  -21.3701  -55.6790 H         1 UNK         0.0600 
    235 H235       -4.4563  -19.6159  -56.5068 H         1 UNK         0.3000 
    236 H236       -5.7804  -18.2589  -54.2794 H         1 UNK         0.0600 
    237 H237       -5.8559  -16.3647  -55.8961 H         1 UNK         0.0600 
    238 H238       -4.8341  -17.2514  -57.0215 H         1 UNK         0.0600 
    239 H239       -6.4560  -17.8337  -56.6464 H         1 UNK         0.0600 
    240 H240       -4.9430  -16.4409  -53.1827 H         1 UNK         0.3000 
    241 H241       -2.0838  -16.4367  -52.6996 H         1 UNK         0.0600 
    242 H242       -2.6846  -13.4955  -55.3699 H         1 UNK         0.3800 
    243 H243       -3.8320  -14.7911  -55.1593 H         1 UNK         0.3800 
    244 H244       -2.6881  -14.6135  -51.0055 H         1 UNK         0.0800 
    245 H245       -4.3427  -14.7601  -51.5102 H         1 UNK         0.0800 
    246 H246       -2.2835  -17.1817  -48.3478 H         1 UNK         0.0800 
    247 H247       -2.0145  -15.5481  -48.8953 H         1 UNK         0.0800 
@<TRIPOS>BOND
     1    1    2 1    
     2    1  127 1    
     3    1  128 1    
     4    1  129 1    
     5    2    3 2    
     6    2    4 am   BACKBONE|DICT|INTERRES
     7    4    5 1    
     8    4  130 1    
     9    5    6 1    
    10    5   65 1    
    11    5  131 1    
    12    6    7 1    
    13    6  132 1    
    14    6  133 1    
    15    7    8 1    
    16    8    9 1    
    17    8  134 1    
    18    8  135 1    
    19    9   10 ar   
    20    9   14 ar   
    21   10   11 ar   
    22   10  136 1    
    23   11   12 ar   
    24   11  126 1    
    25   12   13 ar   
    26   12  137 1    
    27   13   14 ar   
    28   13   15 1    
    29   14  138 1    
    30   15   16 1    
    31   15  139 1    
    32   15  140 1    
    33   16   17 1    
    34   17   18 1    
    35   17  141 1    
    36   17  142 1    
    37   18   19 1    
    38   18   67 1    
    39   18  143 1    
    40   19   20 am   BACKBONE|DICT|INTERRES
    41   19  144 1    
    42   20   21 2    
    43   20   22 1    
    44   22   23 1    
    45   22   24 1    
    46   22  145 1    
    47   23  146 1    
    48   23  147 1    
    49   23  148 1    
    50   24   25 am   BACKBONE|DICT|INTERRES
    51   24  149 1    
    52   25   26 2    
    53   25   27 1    
    54   27   28 1    
    55   27   29 1    
    56   27  150 1    
    57   28  151 1    
    58   28  152 1    
    59   28  153 1    
    60   29   30 am   BACKBONE|DICT|INTERRES
    61   29  154 1    
    62   30   31 2    
    63   30   32 1    
    64   32   33 1    
    65   32   34 1    
    66   32  155 1    
    67   33  156 1    
    68   33  157 1    
    69   33  158 1    
    70   34   35 am   BACKBONE|DICT|INTERRES
    71   34  159 1    
    72   35   36 2    
    73   35   37 1    
    74   37   38 1    
    75   37   39 1    
    76   37  160 1    
    77   38  161 1    
    78   38  162 1    
    79   38  163 1    
    80   39   40 am   BACKBONE|DICT|INTERRES
    81   39  164 1    
    82   40   41 2    
    83   40   42 1    
    84   42   43 1    
    85   42   44 1    
    86   42  165 1    
    87   43  166 1    
    88   43  167 1    
    89   43  168 1    
    90   44   45 am   BACKBONE|DICT|INTERRES
    91   44  169 1    
    92   45   46 2    
    93   45   47 1    
    94   47   48 1    
    95   47   49 1    
    96   47  170 1    
    97   48  171 1    
    98   48  172 1    
    99   48  173 1    
   100   49   50 am   BACKBONE|DICT|INTERRES
   101   49  174 1    
   102   50   51 2    
   103   50   52 1    
   104   52   53 1    
   105   52   54 1    
   106   52  175 1    
   107   53  176 1    
   108   53  177 1    
   109   53  178 1    
   110   54   55 am   BACKBONE|DICT|INTERRES
   111   54  179 1    
   112   55   56 2    
   113   55   57 1    
   114   57   58 1    
   115   57   59 1    
   116   57  180 1    
   117   58  181 1    
   118   58  182 1    
   119   58  183 1    
   120   59   60 am   BACKBONE|DICT|INTERRES
   121   59  184 1    
   122   60   61 2    
   123   60   62 1    
   124   62   63 1    
   125   62   64 1    
   126   62  185 1    
   127   63  186 1    
   128   63  187 1    
   129   63  188 1    
   130   64   65 am   BACKBONE|DICT|INTERRES
   131   64  189 1    
   132   65   66 2    
   133   67   68 2    
   134   67   69 am   BACKBONE|DICT|INTERRES
   135   69   70 1    
   136   69  190 1    
   137   70   71 1    
   138   70   72 1    
   139   70  191 1    
   140   71  192 1    
   141   71  193 1    
   142   71  194 1    
   143   72   73 2    
   144   72   74 am   BACKBONE|DICT|INTERRES
   145   74   75 1    
   146   74  195 1    
   147   75   76 1    
   148   75   77 1    
   149   75  196 1    
   150   76  197 1    
   151   76  198 1    
   152   76  199 1    
   153   77   78 2    
   154   77   79 am   BACKBONE|DICT|INTERRES
   155   79   80 1    
   156   79  200 1    
   157   80   81 1    
   158   80   82 1    
   159   80  201 1    
   160   81  202 1    
   161   81  203 1    
   162   81  204 1    
   163   82   83 2    
   164   82   84 am   BACKBONE|DICT|INTERRES
   165   84   85 1    
   166   84  205 1    
   167   85   86 1    
   168   85   87 1    
   169   85  206 1    
   170   86  207 1    
   171   86  208 1    
   172   86  209 1    
   173   87   88 2    
   174   87   89 am   BACKBONE|DICT|INTERRES
   175   89   90 1    
   176   89  210 1    
   177   90   91 1    
   178   90   92 1    
   179   90  211 1    
   180   91  212 1    
   181   91  213 1    
   182   91  214 1    
   183   92   93 2    
   184   92   94 am   BACKBONE|DICT|INTERRES
   185   94   95 1    
   186   94  215 1    
   187   95   96 1    
   188   95   97 1    
   189   95  216 1    
   190   96  217 1    
   191   96  218 1    
   192   96  219 1    
   193   97   98 2    
   194   97   99 am   BACKBONE|DICT|INTERRES
   195   99  100 1    
   196   99  220 1    
   197  100  101 1    
   198  100  102 1    
   199  100  221 1    
   200  101  222 1    
   201  101  223 1    
   202  101  224 1    
   203  102  103 2    
   204  102  104 am   BACKBONE|DICT|INTERRES
   205  104  105 1    
   206  104  225 1    
   207  105  106 1    
   208  105  107 1    
   209  105  226 1    
   210  106  227 1    
   211  106  228 1    
   212  106  229 1    
   213  107  108 2    
   214  107  109 am   BACKBONE|DICT|INTERRES
   215  109  110 1    
   216  109  230 1    
   217  110  111 1    
   218  110  112 1    
   219  110  231 1    
   220  111  232 1    
   221  111  233 1    
   222  111  234 1    
   223  112  113 2    
   224  112  114 am   BACKBONE|DICT|INTERRES
   225  114  115 1    
   226  114  235 1    
   227  115  116 1    
   228  115  117 1    
   229  115  236 1    
   230  116  237 1    
   231  116  238 1    
   232  116  239 1    
   233  117  118 2    
   234  117  119 am   BACKBONE|DICT|INTERRES
   235  119  120 1    
   236  119  240 1    
   237  120  121 1    
   238  120  124 1    
   239  120  241 1    
   240  121  122 am   BACKBONE|DICT|INTERRES
   241  121  123 2    
   242  122  242 1    
   243  122  243 1    
   244  124  125 1    
   245  124  244 1    
   246  124  245 1    
   247  125  126 1    
   248  126  246 1    
   249  126  247 1    
@<TRIPOS>SUBSTRUCTURE
     1 UNK         1 GROUP             0       ****    0 ROOT    
