@<TRIPOS>MOLECULE
3R540
247   249    1
SMALL
USER_CHARGES


@<TRIPOS>ATOM
      1 CA         -1.9198  -11.2988  -51.5384 C.3       0 UNK        -0.1800 
      2 C          -1.1391  -12.3786  -50.8016 C.2       0 UNK         0.5000 
      3 O          -0.3049  -13.0515  -51.4079 O.2       0 UNK        -0.5000 
      4 N          -1.4132  -12.5486  -49.5025 N.am      1 UNK        -0.5000 
      5 CA         -0.7451  -13.5119  -48.6216 C.3       1 UNK         0.1400 
      6 C6         -1.5112  -13.7039  -47.2887 C.3       23 UNK        -0.0398 
      7 S7         -3.1442  -14.4804  -47.5183 S.3       23 UNK        -0.2404 
      8 C8         -2.8013  -16.2157  -47.0741 C.3       23 UNK        -0.0205 
      9 C9         -1.9768  -16.9234  -48.1400 C.ar      23 UNK        -0.0193 
     10 C10        -2.6029  -17.3976  -49.2953 C.ar      23 UNK        -0.1150 
     11 C11        -1.8597  -18.0160  -50.3031 C.ar      23 UNK        -0.0193 
     12 C12        -0.4789  -18.1612  -50.1499 C.ar      23 UNK        -0.1150 
     13 C13         0.1618  -17.6914  -49.0003 C.ar      23 UNK        -0.0193 
     14 C14        -0.5955  -17.0890  -47.9881 C.ar      23 UNK        -0.1150 
     15 C15         1.6780  -17.7854  -48.8910 C.3       23 UNK        -0.0205 
     16 S16         2.2644  -19.4688  -48.5309 S.3       23 UNK        -0.2404 
     17 C17         1.7194  -19.6687  -46.8027 C.3       23 UNK        -0.0398 
     18 CA          0.9801  -20.9964  -46.5288 C.3       11 UNK         0.1400 
     19 N           0.7433  -21.1774  -45.0969 N.am      11 UNK        -0.5000 
     20 C           0.4879  -22.3525  -44.5077 C.2       10 UNK         0.5000 
     21 O           0.4611  -23.4257  -45.1082 O.2       10 UNK        -0.5000 
     22 CA          0.1690  -22.3111  -43.0011 C.3       10 UNK         0.1400 
     23 CB          1.4650  -22.3209  -42.1788 C.3       10 UNK        -0.1800 
     24 N          -0.6286  -21.1410  -42.6290 N.am      10 UNK        -0.5000 
     25 C          -1.8817  -20.9187  -43.0510 C.2       9 UNK         0.5000 
     26 O          -2.5155  -21.7132  -43.7433 O.2       9 UNK        -0.5000 
     27 CA         -2.5181  -19.5658  -42.6858 C.3       9 UNK         0.1400 
     28 CB         -3.2826  -19.6722  -41.3587 C.3       9 UNK        -0.1800 
     29 N          -1.5539  -18.4699  -42.5939 N.am      9 UNK        -0.5000 
     30 C          -0.7525  -18.0289  -43.5702 C.2       8 UNK         0.5000 
     31 O          -0.7389  -18.5208  -44.6992 O.2       8 UNK        -0.5000 
     32 CA          0.2276  -16.8848  -43.2301 C.3       8 UNK         0.1400 
     33 CB         -0.3657  -15.5149  -43.5975 C.3       8 UNK        -0.1800 
     34 N           0.7460  -16.8788  -41.8534 N.am      8 UNK        -0.5000 
     35 C           0.0905  -16.7195  -40.6921 C.2       7 UNK         0.5000 
     36 O          -1.1245  -16.5315  -40.6210 O.2       7 UNK        -0.5000 
     37 CA          0.9131  -16.7941  -39.3885 C.3       7 UNK         0.1400 
     38 CB          0.1585  -17.5334  -38.2635 C.3       7 UNK        -0.1800 
     39 N           2.2649  -17.3388  -39.5567 N.am      7 UNK        -0.5000 
     40 C           2.6254  -18.5825  -39.9143 C.2       6 UNK         0.5000 
     41 O           1.8190  -19.4799  -40.1631 O.2       6 UNK        -0.5000 
     42 CA          4.1400  -18.8548  -40.0486 C.3       6 UNK         0.1400 
     43 CB          4.4498  -19.7508  -41.2609 C.3       6 UNK        -0.1800 
     44 N           4.8876  -17.6040  -40.1917 N.am      6 UNK        -0.5000 
     45 C           5.6156  -17.0081  -39.2372 C.2       5 UNK         0.5000 
     46 O           5.8211  -17.4997  -38.1273 O.2       5 UNK        -0.5000 
     47 CA          6.1866  -15.6101  -39.5627 C.3       5 UNK         0.1400 
     48 CB          7.6523  -15.7213  -40.0094 C.3       5 UNK        -0.1800 
     49 N           5.4298  -14.8926  -40.5938 N.am      5 UNK        -0.5000 
     50 C           4.1630  -14.4694  -40.4702 C.2       4 UNK         0.5000 
     51 O           3.5135  -14.5688  -39.4296 O.2       4 UNK        -0.5000 
     52 CA          3.4826  -13.9079  -41.7366 C.3       4 UNK         0.1400 
     53 CB          3.5556  -12.3743  -41.7548 C.3       4 UNK        -0.1800 
     54 N           4.0325  -14.4312  -42.9929 N.am      4 UNK        -0.5000 
     55 C           4.0509  -15.7233  -43.3499 C.2       3 UNK         0.5000 
     56 O           3.5996  -16.6269  -42.6421 O.2       3 UNK        -0.5000 
     57 CA          4.7124  -16.0442  -44.7048 C.3       3 UNK         0.1400 
     58 CB          4.5259  -17.5178  -45.1216 C.3       3 UNK        -0.1800 
     59 N           4.2887  -15.1301  -45.7740 N.am      3 UNK        -0.5000 
     60 C           3.0543  -15.0168  -46.2839 C.2       2 UNK         0.5000 
     61 O           2.0861  -15.6754  -45.8948 O.2       2 UNK        -0.5000 
     62 CA          2.8731  -14.0151  -47.4389 C.3       2 UNK         0.1400 
     63 CB          3.8312  -14.2967  -48.6115 C.3       2 UNK        -0.1800 
     64 N           1.4984  -14.1186  -47.9122 N.am      2 UNK        -0.5000 
     65 C           0.7204  -13.1198  -48.3333 C.2       1 UNK         0.5000 
     66 O           1.0986  -11.9507  -48.4461 O.2       1 UNK        -0.5000 
     67 C          -0.3330  -21.1470  -47.3243 C.2       11 UNK         0.5000 
     68 O          -0.3356  -21.8056  -48.3645 O.2       11 UNK        -0.5000 
     69 N          -1.4395  -20.6118  -46.7864 N.am      12 UNK        -0.5000 
     70 CA         -2.7860  -20.7871  -47.3372 C.3       12 UNK         0.1400 
     71 CB         -3.7879  -19.9472  -46.5329 C.3       12 UNK        -0.1800 
     72 C          -3.2206  -22.2655  -47.3670 C.2       12 UNK         0.5000 
     73 O          -3.7769  -22.7163  -48.3689 O.2       12 UNK        -0.5000 
     74 N          -2.9191  -22.9983  -46.2852 N.am      13 UNK        -0.5000 
     75 CA         -3.1387  -24.4377  -46.1572 C.3       13 UNK         0.1400 
     76 CB         -2.9146  -24.8685  -44.7002 C.3       13 UNK        -0.1800 
     77 C          -2.2583  -25.2622  -47.1129 C.2       13 UNK         0.5000 
     78 O          -2.7568  -26.2163  -47.7088 O.2       13 UNK        -0.5000 
     79 N          -0.9869  -24.8669  -47.2785 N.am      14 UNK        -0.5000 
     80 CA         -0.0444  -25.4781  -48.2220 C.3       14 UNK         0.1400 
     81 CB          1.3704  -24.9341  -47.9739 C.3       14 UNK        -0.1800 
     82 C          -0.4578  -25.2786  -49.6930 C.2       14 UNK         0.5000 
     83 O          -0.3177  -26.2029  -50.4945 O.2       14 UNK        -0.5000 
     84 N          -1.0017  -24.0952  -50.0097 N.am      15 UNK        -0.5000 
     85 CA         -1.6147  -23.7711  -51.3007 C.3       15 UNK         0.1400 
     86 CB         -1.7579  -22.2445  -51.4140 C.3       15 UNK        -0.1800 
     87 C          -2.9815  -24.4559  -51.5177 C.2       15 UNK         0.5000 
     88 O          -3.4581  -24.4941  -52.6511 O.2       15 UNK        -0.5000 
     89 N          -3.5815  -24.9727  -50.4349 N.am      16 UNK        -0.5000 
     90 CA         -4.9012  -25.6033  -50.3444 C.3       16 UNK         0.1400 
     91 CB         -4.9531  -26.9041  -51.1730 C.3       16 UNK        -0.1800 
     92 C          -6.0534  -24.6282  -50.6635 C.2       16 UNK         0.5000 
     93 O          -7.0700  -25.0435  -51.2231 O.2       16 UNK        -0.5000 
     94 N          -5.8723  -23.3530  -50.2819 N.am      17 UNK        -0.5000 
     95 CA         -6.7666  -22.2156  -50.5117 C.3       17 UNK         0.1400 
     96 CB         -8.0143  -22.3222  -49.6063 C.3       17 UNK        -0.1800 
     97 C          -7.0825  -22.0360  -52.0131 C.2       17 UNK         0.5000 
     98 O          -6.1834  -21.6685  -52.7708 O.2       17 UNK        -0.5000 
     99 N          -8.3413  -22.2835  -52.4107 N.am      18 UNK        -0.5000 
    100 CA        -8.8877  -22.3730  -53.7758 C.3       18 UNK         0.1400 
    101 CB        -8.2190  -23.5315  -54.5443 C.3       18 UNK        -0.1800 
    102 C         -8.8672  -21.0797  -54.6192 C.2       18 UNK         0.5000 
    103 O         -9.5380  -21.0366  -55.6515 O.2       18 UNK        -0.5000 
    104 N         -8.1030  -20.0652  -54.1948 N.am      19 UNK        -0.5000 
    105 CA        -7.8450  -18.7626  -54.8215 C.3       19 UNK         0.1400 
    106 CB        -9.1393  -17.9551  -55.0365 C.3       19 UNK        -0.1800 
    107 C         -7.0134  -18.8620  -56.1136 C.2       19 UNK         0.5000 
    108 O         -5.9862  -18.1936  -56.2202 O.2       19 UNK        -0.5000 
    109 N         -7.4324  -19.7224  -57.0500 N.am      20 UNK        -0.5000 
    110 CA        -6.7420  -20.0057  -58.3109 C.3       20 UNK         0.1400 
    111 CB        -7.6322  -20.9023  -59.1839 C.3       20 UNK        -0.1800 
    112 C         -5.3585  -20.6507  -58.1022 C.2       20 UNK         0.5000 
    113 O         -4.4121  -20.3148  -58.8160 O.2       20 UNK        -0.5000 
    114 N         -5.2516  -21.5208  -57.0864 N.am      21 UNK        -0.5000 
    115 CA        -4.0068  -22.1737  -56.6662 C.3       21 UNK         0.1400 
    116 CB        -4.3423  -23.3058  -55.6843 C.3       21 UNK        -0.1800 
    117 C         -2.9815  -21.2023  -56.0430 C.2       21 UNK         0.5000 
    118 O         -1.7955  -21.5296  -55.9844 O.2       21 UNK        -0.5000 
    119 N         -3.4499  -20.0241  -55.6125 N.am      22 UNK        -0.5000 
    120 CA        -2.6272  -18.9011  -55.1459 C.3       22 UNK         0.1400 
    121 C         -1.9624  -18.0850  -56.2995 C.2       22 UNK         0.5000 
    122 N         -2.2943  -18.3171  -57.5661 N.am      22 UNK        -0.7600 
    123 O         -1.1126  -17.2346  -56.0470 O.2       22 UNK        -0.5000 
    124 C124       -3.4452  -18.0002  -54.1809 C.3       23 UNK        -0.0398 
    125 S125       -2.4361  -17.2313  -52.8733 S.3       23 UNK        -0.2404 
    126 C126       -2.5441  -18.4950  -51.5710 C.3       23 UNK        -0.0205 
    127 H127       -2.6301  -10.7930  -50.8837 H         1 UNK         0.0600 
    128 H128       -2.4750  -11.7371  -52.3679 H         1 UNK         0.0600 
    129 H129       -1.2367  -10.5509  -51.9412 H         1 UNK         0.0600 
    130 H130       -2.1028  -11.9585  -49.0603 H         1 UNK         0.3000 
    131 H131       -0.7236  -14.4683  -49.1486 H         1 UNK         0.0600 
    132 H132       -0.9384  -14.3146  -46.5908 H         1 UNK         0.0800 
    133 H133       -1.6548  -12.7435  -46.7903 H         1 UNK         0.0800 
    134 H134       -2.3121  -16.2720  -46.1014 H         1 UNK         0.0800 
    135 H135       -3.7580  -16.7262  -46.9593 H         1 UNK         0.0800 
    136 H136       -3.6686  -17.2645  -49.4186 H         1 UNK         0.1150 
    137 H137        0.1020  -18.6223  -50.9365 H         1 UNK         0.1150 
    138 H138       -0.1105  -16.7306  -47.0909 H         1 UNK         0.1150 
    139 H139        2.1238  -17.4535  -49.8298 H         1 UNK         0.0800 
    140 H140        2.0550  -17.1109  -48.1245 H         1 UNK         0.0800 
    141 H141        2.6170  -19.6337  -46.1863 H         1 UNK         0.0800 
    142 H142        1.1132  -18.8166  -46.4965 H         1 UNK         0.0800 
    143 H143        1.6419  -21.8029  -46.8518 H         1 UNK         0.0600 
    144 H144        0.6631  -20.3337  -44.5470 H         1 UNK         0.3000 
    145 H145       -0.4040  -23.2072  -42.7537 H         1 UNK         0.0600 
    146 H146        1.2555  -22.3430  -41.1092 H         1 UNK         0.0600 
    147 H147        2.0700  -23.1982  -42.4112 H         1 UNK         0.0600 
    148 H148        2.0723  -21.4384  -42.3820 H         1 UNK         0.0600 
    149 H149       -0.1791  -20.4443  -42.0513 H         1 UNK         0.3000 
    150 H150       -3.2294  -19.3113  -43.4734 H         1 UNK         0.0600 
    151 H151       -4.0280  -20.4677  -41.3989 H         1 UNK         0.0600 
    152 H152       -3.8092  -18.7449  -41.1319 H         1 UNK         0.0600 
    153 H153       -2.6127  -19.8892  -40.5255 H         1 UNK         0.0600 
    154 H154       -1.5237  -17.9577  -41.7164 H         1 UNK         0.3000 
    155 H155        1.1007  -17.0443  -43.8635 H         1 UNK         0.0600 
    156 H156        0.3574  -14.7164  -43.4299 H         1 UNK         0.0600 
    157 H157       -1.2639  -15.2878  -43.0227 H         1 UNK         0.0600 
    158 H158       -0.6339  -15.4883  -44.6517 H         1 UNK         0.0600 
    159 H159        1.7487  -17.0229  -41.7989 H         1 UNK         0.3000 
    160 H160        1.0465  -15.7609  -39.0655 H         1 UNK         0.0600 
    161 H161       -0.0959  -18.5550  -38.5474 H         1 UNK         0.0600 
    162 H162       -0.7737  -17.0240  -38.0160 H         1 UNK         0.0600 
    163 H163        0.7533  -17.5760  -37.3512 H         1 UNK         0.0600 
    164 H164        3.0051  -16.6655  -39.4003 H         1 UNK         0.3000 
    165 H165        4.4533  -19.3837  -39.1466 H         1 UNK         0.0600 
    166 H166        4.0518  -19.3312  -42.1856 H         1 UNK         0.0600 
    167 H167        5.5241  -19.8848  -41.3886 H         1 UNK         0.0600 
    168 H168        4.0160  -20.7429  -41.1331 H         1 UNK         0.0600 
    169 H169        4.7286  -17.1127  -41.0651 H         1 UNK         0.3000 
    170 H170        6.1505  -15.0187  -38.6454 H         1 UNK         0.0600 
    171 H171        8.2546  -16.2250  -39.2520 H         1 UNK         0.0600 
    172 H172        7.7488  -16.2888  -40.9360 H         1 UNK         0.0600 
    173 H173        8.0923  -14.7367  -40.1699 H         1 UNK         0.0600 
    174 H174        5.8893  -14.7643  -41.4831 H         1 UNK         0.3000 
    175 H175        2.4308  -14.1990  -41.6933 H         1 UNK         0.0600 
    176 H176        4.5850  -12.0213  -41.8301 H         1 UNK         0.0600 
    177 H177        2.9959  -11.9626  -42.5948 H         1 UNK         0.0600 
    178 H178        3.1289  -11.9516  -40.8440 H         1 UNK         0.0600 
    179 H179        4.4180  -13.7518  -43.6325 H         1 UNK         0.3000 
    180 H180        5.7819  -15.8790  -44.5676 H         1 UNK         0.0600 
    181 H181        3.4719  -17.7901  -45.1551 H         1 UNK         0.0600 
    182 H182        5.0106  -18.1882  -44.4110 H         1 UNK         0.0600 
    183 H183        4.9577  -17.7136  -46.1031 H         1 UNK         0.0600 
    184 H184        5.0190  -14.5467  -46.1578 H         1 UNK         0.3000 
    185 H185        3.0577  -13.0142  -47.0435 H         1 UNK         0.0600 
    186 H186        3.6409  -13.6197  -49.4446 H         1 UNK         0.0600 
    187 H187        4.8724  -14.1579  -48.3196 H         1 UNK         0.0600 
    188 H188        3.7251  -15.3170  -48.9819 H         1 UNK         0.0600 
    189 H189        1.0894  -15.0286  -47.7501 H         1 UNK         0.3000 
    190 H190       -1.3494  -20.0473  -45.9490 H         1 UNK         0.3000 
    191 H191       -2.7697  -20.4147  -48.3636 H         1 UNK         0.0600 
    192 H192       -3.4240  -18.9327  -46.3848 H         1 UNK         0.0600 
    193 H193       -4.7440  -19.8836  -47.0534 H         1 UNK         0.0600 
    194 H194       -3.9809  -20.3743  -45.5493 H         1 UNK         0.0600 
    195 H195       -2.5316  -22.5270  -45.4723 H         1 UNK         0.3000 
    196 H196       -4.1815  -24.6383  -46.4120 H         1 UNK         0.0600 
    197 H197       -3.0933  -25.9373  -44.5765 H         1 UNK         0.0600 
    198 H198       -3.5932  -24.3451  -44.0264 H         1 UNK         0.0600 
    199 H199       -1.8953  -24.6651  -44.3714 H         1 UNK         0.0600 
    200 H200       -0.6297  -24.1094  -46.7065 H         1 UNK         0.3000 
    201 H201       -0.0303  -26.5523  -48.0262 H         1 UNK         0.0600 
    202 H202        1.6938  -25.1261  -46.9508 H         1 UNK         0.0600 
    203 H203        1.4264  -23.8600  -48.1483 H         1 UNK         0.0600 
    204 H204        2.0926  -25.4110  -48.6377 H         1 UNK         0.0600 
    205 H205       -0.9998  -23.3565  -49.3107 H         1 UNK         0.3000 
    206 H206       -0.9470  -24.1113  -52.0948 H         1 UNK         0.0600 
    207 H207       -0.7918  -21.7484  -51.3172 H         1 UNK         0.0600 
    208 H208       -2.1749  -21.9613  -52.3817 H         1 UNK         0.0600 
    209 H209       -2.4165  -21.8441  -50.6425 H         1 UNK         0.0600 
    210 H210       -3.0969  -24.8762  -49.5526 H         1 UNK         0.3000 
    211 H211       -5.0289  -25.8799  -49.2971 H         1 UNK         0.0600 
    212 H212       -4.9114  -26.7056  -52.2443 H         1 UNK         0.0600 
    213 H213       -5.8749  -27.4538  -50.9793 H         1 UNK         0.0600 
    214 H214       -4.1234  -27.5645  -50.9201 H         1 UNK         0.0600 
    215 H215       -5.0080  -23.1313  -49.7938 H         1 UNK         0.3000 
    216 H216       -6.2141  -21.3251  -50.2073 H         1 UNK         0.0600 
    217 H217       -7.7255  -22.3521  -48.5552 H         1 UNK         0.0600 
    218 H218       -8.5999  -23.2195  -49.8096 H         1 UNK         0.0600 
    219 H219       -8.6687  -21.4583  -49.7319 H         1 UNK         0.0600 
    220 H220       -8.9944  -22.5473  -51.6856 H         1 UNK         0.3000 
    221 H221       -9.9422  -22.6287  -53.6527 H         1 UNK         0.0600 
    222 H222       -7.1594  -23.3428  -54.7184 H         1 UNK         0.0600 
    223 H223       -8.3040  -24.4690  -53.9939 H         1 UNK         0.0600 
    224 H224       -8.6882  -23.6841  -55.5177 H         1 UNK         0.0600 
    225 H225       -7.5138  -20.2770  -53.3979 H         1 UNK         0.3000 
    226 H226       -7.2375  -18.2104  -54.1025 H         1 UNK         0.0600 
    227 H227       -8.9119  -16.9490  -55.3915 H         1 UNK         0.0600 
    228 H228       -9.7967  -18.4163  -55.7737 H         1 UNK         0.0600 
    229 H229       -9.6985  -17.8528  -54.1063 H         1 UNK         0.0600 
    230 H230       -8.2827  -20.2440  -56.8546 H         1 UNK         0.3000 
    231 H231       -6.5915  -19.0578  -58.8320 H         1 UNK         0.0600 
    232 H232       -7.1508  -21.1205  -60.1383 H         1 UNK         0.0600 
    233 H233       -8.5839  -20.4175  -59.4034 H         1 UNK         0.0600 
    234 H234       -7.8461  -21.8550  -58.6971 H         1 UNK         0.0600 
    235 H235       -6.0759  -21.7244  -56.5409 H         1 UNK         0.3000 
    236 H236       -3.5433  -22.6156  -57.5507 H         1 UNK         0.0600 
    237 H237       -4.7716  -22.9203  -54.7589 H         1 UNK         0.0600 
    238 H238       -3.4450  -23.8656  -55.4151 H         1 UNK         0.0600 
    239 H239       -5.0484  -24.0153  -56.1177 H         1 UNK         0.0600 
    240 H240       -4.4311  -19.8208  -55.7434 H         1 UNK         0.3000 
    241 H241       -1.8021  -19.3361  -54.5773 H         1 UNK         0.0600 
    242 H242       -1.8471  -17.7840  -58.2958 H         1 UNK         0.3800 
    243 H243       -2.9873  -19.0134  -57.8113 H         1 UNK         0.3800 
    244 H244       -4.2330  -18.5762  -53.6931 H         1 UNK         0.0800 
    245 H245       -3.9653  -17.2117  -54.7274 H         1 UNK         0.0800 
    246 H246       -2.0787  -19.4163  -51.9215 H         1 UNK         0.0800 
    247 H247       -3.5893  -18.7309  -51.3670 H         1 UNK         0.0800 
@<TRIPOS>BOND
     1    1    2 1    
     2    1  127 1    
     3    1  128 1    
     4    1  129 1    
     5    2    3 2    
     6    2    4 am   BACKBONE|DICT|INTERRES
     7    4    5 1    
     8    4  130 1    
     9    5    6 1    
    10    5   65 1    
    11    5  131 1    
    12    6    7 1    
    13    6  132 1    
    14    6  133 1    
    15    7    8 1    
    16    8    9 1    
    17    8  134 1    
    18    8  135 1    
    19    9   10 ar   
    20    9   14 ar   
    21   10   11 ar   
    22   10  136 1    
    23   11   12 ar   
    24   11  126 1    
    25   12   13 ar   
    26   12  137 1    
    27   13   14 ar   
    28   13   15 1    
    29   14  138 1    
    30   15   16 1    
    31   15  139 1    
    32   15  140 1    
    33   16   17 1    
    34   17   18 1    
    35   17  141 1    
    36   17  142 1    
    37   18   19 1    
    38   18   67 1    
    39   18  143 1    
    40   19   20 am   BACKBONE|DICT|INTERRES
    41   19  144 1    
    42   20   21 2    
    43   20   22 1    
    44   22   23 1    
    45   22   24 1    
    46   22  145 1    
    47   23  146 1    
    48   23  147 1    
    49   23  148 1    
    50   24   25 am   BACKBONE|DICT|INTERRES
    51   24  149 1    
    52   25   26 2    
    53   25   27 1    
    54   27   28 1    
    55   27   29 1    
    56   27  150 1    
    57   28  151 1    
    58   28  152 1    
    59   28  153 1    
    60   29   30 am   BACKBONE|DICT|INTERRES
    61   29  154 1    
    62   30   31 2    
    63   30   32 1    
    64   32   33 1    
    65   32   34 1    
    66   32  155 1    
    67   33  156 1    
    68   33  157 1    
    69   33  158 1    
    70   34   35 am   BACKBONE|DICT|INTERRES
    71   34  159 1    
    72   35   36 2    
    73   35   37 1    
    74   37   38 1    
    75   37   39 1    
    76   37  160 1    
    77   38  161 1    
    78   38  162 1    
    79   38  163 1    
    80   39   40 am   BACKBONE|DICT|INTERRES
    81   39  164 1    
    82   40   41 2    
    83   40   42 1    
    84   42   43 1    
    85   42   44 1    
    86   42  165 1    
    87   43  166 1    
    88   43  167 1    
    89   43  168 1    
    90   44   45 am   BACKBONE|DICT|INTERRES
    91   44  169 1    
    92   45   46 2    
    93   45   47 1    
    94   47   48 1    
    95   47   49 1    
    96   47  170 1    
    97   48  171 1    
    98   48  172 1    
    99   48  173 1    
   100   49   50 am   BACKBONE|DICT|INTERRES
   101   49  174 1    
   102   50   51 2    
   103   50   52 1    
   104   52   53 1    
   105   52   54 1    
   106   52  175 1    
   107   53  176 1    
   108   53  177 1    
   109   53  178 1    
   110   54   55 am   BACKBONE|DICT|INTERRES
   111   54  179 1    
   112   55   56 2    
   113   55   57 1    
   114   57   58 1    
   115   57   59 1    
   116   57  180 1    
   117   58  181 1    
   118   58  182 1    
   119   58  183 1    
   120   59   60 am   BACKBONE|DICT|INTERRES
   121   59  184 1    
   122   60   61 2    
   123   60   62 1    
   124   62   63 1    
   125   62   64 1    
   126   62  185 1    
   127   63  186 1    
   128   63  187 1    
   129   63  188 1    
   130   64   65 am   BACKBONE|DICT|INTERRES
   131   64  189 1    
   132   65   66 2    
   133   67   68 2    
   134   67   69 am   BACKBONE|DICT|INTERRES
   135   69   70 1    
   136   69  190 1    
   137   70   71 1    
   138   70   72 1    
   139   70  191 1    
   140   71  192 1    
   141   71  193 1    
   142   71  194 1    
   143   72   73 2    
   144   72   74 am   BACKBONE|DICT|INTERRES
   145   74   75 1    
   146   74  195 1    
   147   75   76 1    
   148   75   77 1    
   149   75  196 1    
   150   76  197 1    
   151   76  198 1    
   152   76  199 1    
   153   77   78 2    
   154   77   79 am   BACKBONE|DICT|INTERRES
   155   79   80 1    
   156   79  200 1    
   157   80   81 1    
   158   80   82 1    
   159   80  201 1    
   160   81  202 1    
   161   81  203 1    
   162   81  204 1    
   163   82   83 2    
   164   82   84 am   BACKBONE|DICT|INTERRES
   165   84   85 1    
   166   84  205 1    
   167   85   86 1    
   168   85   87 1    
   169   85  206 1    
   170   86  207 1    
   171   86  208 1    
   172   86  209 1    
   173   87   88 2    
   174   87   89 am   BACKBONE|DICT|INTERRES
   175   89   90 1    
   176   89  210 1    
   177   90   91 1    
   178   90   92 1    
   179   90  211 1    
   180   91  212 1    
   181   91  213 1    
   182   91  214 1    
   183   92   93 2    
   184   92   94 am   BACKBONE|DICT|INTERRES
   185   94   95 1    
   186   94  215 1    
   187   95   96 1    
   188   95   97 1    
   189   95  216 1    
   190   96  217 1    
   191   96  218 1    
   192   96  219 1    
   193   97   98 2    
   194   97   99 am   BACKBONE|DICT|INTERRES
   195   99  100 1    
   196   99  220 1    
   197  100  101 1    
   198  100  102 1    
   199  100  221 1    
   200  101  222 1    
   201  101  223 1    
   202  101  224 1    
   203  102  103 2    
   204  102  104 am   BACKBONE|DICT|INTERRES
   205  104  105 1    
   206  104  225 1    
   207  105  106 1    
   208  105  107 1    
   209  105  226 1    
   210  106  227 1    
   211  106  228 1    
   212  106  229 1    
   213  107  108 2    
   214  107  109 am   BACKBONE|DICT|INTERRES
   215  109  110 1    
   216  109  230 1    
   217  110  111 1    
   218  110  112 1    
   219  110  231 1    
   220  111  232 1    
   221  111  233 1    
   222  111  234 1    
   223  112  113 2    
   224  112  114 am   BACKBONE|DICT|INTERRES
   225  114  115 1    
   226  114  235 1    
   227  115  116 1    
   228  115  117 1    
   229  115  236 1    
   230  116  237 1    
   231  116  238 1    
   232  116  239 1    
   233  117  118 2    
   234  117  119 am   BACKBONE|DICT|INTERRES
   235  119  120 1    
   236  119  240 1    
   237  120  121 1    
   238  120  124 1    
   239  120  241 1    
   240  121  122 am   BACKBONE|DICT|INTERRES
   241  121  123 2    
   242  122  242 1    
   243  122  243 1    
   244  124  125 1    
   245  124  244 1    
   246  124  245 1    
   247  125  126 1    
   248  126  246 1    
   249  126  247 1    
@<TRIPOS>SUBSTRUCTURE
     1 UNK         1 GROUP             0       ****    0 ROOT    
