@<TRIPOS>MOLECULE
3R540
247   249    1
SMALL
USER_CHARGES


@<TRIPOS>ATOM
      1 CA         -2.0550  -13.9726  -49.1863 C.3       0 UNK        -0.1800 
      2 C          -0.6166  -13.4868  -49.2883 C.2       0 UNK         0.5000 
      3 O          -0.3753  -12.2792  -49.2602 O.2       0 UNK        -0.5000 
      4 N           0.3349  -14.4185  -49.4130 N.am      1 UNK        -0.5000 
      5 CA          1.7747  -14.1449  -49.4542 C.3       1 UNK         0.1400 
      6 C6          2.5567  -15.3279  -50.0766 C.3       23 UNK        -0.0398 
      7 S7          2.3306  -15.3766  -51.8874 S.3       23 UNK        -0.2404 
      8 C8          3.6486  -16.5289  -52.3863 C.3       23 UNK        -0.0205 
      9 C9          3.2713  -17.9579  -52.0402 C.ar      23 UNK        -0.0193 
     10 C10         2.4352  -18.6825  -52.8930 C.ar      23 UNK        -0.1150 
     11 C11         2.0035  -19.9632  -52.5409 C.ar      23 UNK        -0.0193 
     12 C12         2.4428  -20.5317  -51.3414 C.ar      23 UNK        -0.1150 
     13 C13         3.2817  -19.8156  -50.4823 C.ar      23 UNK        -0.0193 
     14 C14         3.7072  -18.5352  -50.8448 C.ar      23 UNK        -0.1150 
     15 C15         3.6733  -20.4006  -49.1334 C.3       23 UNK        -0.0205 
     16 S16         2.8871  -19.5221  -47.7384 S.3       23 UNK        -0.2404 
     17 C17         1.1099  -19.6349  -48.1470 C.3       23 UNK        -0.0398 
     18 CA          0.4682  -20.9472  -47.6490 C.3       11 UNK         0.1400 
     19 N           0.2983  -20.9572  -46.1972 N.am      11 UNK        -0.5000 
     20 C          -0.0283  -22.0335  -45.4726 C.2       10 UNK         0.5000 
     21 O          -0.1672  -23.1606  -45.9476 O.2       10 UNK        -0.5000 
     22 CA         -0.3006  -21.7959  -43.9765 C.3       10 UNK         0.1400 
     23 CB          1.0124  -21.7142  -43.1841 C.3       10 UNK        -0.1800 
     24 N          -1.1004  -20.5907  -43.7433 N.am      10 UNK        -0.5000 
     25 C          -2.3644  -20.4369  -44.1631 C.2       9 UNK         0.5000 
     26 O          -2.9984  -21.3208  -44.7388 O.2       9 UNK        -0.5000 
     27 CA         -3.0239  -19.0652  -43.9350 C.3       9 UNK         0.1400 
     28 CB         -3.5528  -18.9490  -42.4981 C.3       9 UNK        -0.1800 
     29 N          -2.1248  -17.9478  -44.2228 N.am      9 UNK        -0.5000 
     30 C          -1.6690  -17.6286  -45.4430 C.2       8 UNK         0.5000 
     31 O          -2.0029  -18.2130  -46.4729 O.2       8 UNK        -0.5000 
     32 CA         -0.6373  -16.4881  -45.5266 C.3       8 UNK         0.1400 
     33 CB         -1.3405  -15.1230  -45.5102 C.3       8 UNK        -0.1800 
     34 N           0.3566  -16.5434  -44.4534 N.am      8 UNK        -0.5000 
     35 C           1.1888  -17.5721  -44.2366 C.2       7 UNK         0.5000 
     36 O           1.2272  -18.5817  -44.9361 O.2       7 UNK        -0.5000 
     37 CA          2.0710  -17.4970  -42.9803 C.3       7 UNK         0.1400 
     38 CB          3.2842  -16.5802  -43.2008 C.3       7 UNK        -0.1800 
     39 N           1.3052  -17.0517  -41.8161 N.am      7 UNK        -0.5000 
     40 C           0.3480  -17.7796  -41.2220 C.2       6 UNK         0.5000 
     41 O           0.0457  -18.9221  -41.5649 O.2       6 UNK        -0.5000 
     42 CA         -0.4295  -17.1008  -40.0795 C.3       6 UNK         0.1400 
     43 CB          0.3347  -17.2284  -38.7533 C.3       6 UNK        -0.1800 
     44 N          -0.7007  -15.6884  -40.3491 N.am      6 UNK        -0.5000 
     45 C          -1.5105  -15.2435  -41.3208 C.2       5 UNK         0.5000 
     46 O          -2.1594  -15.9816  -42.0602 O.2       5 UNK        -0.5000 
     47 CA         -1.5581  -13.7186  -41.5357 C.3       5 UNK         0.1400 
     48 CB         -2.6171  -13.0771  -40.6271 C.3       5 UNK        -0.1800 
     49 N          -0.2628  -13.0691  -41.3104 N.am      5 UNK        -0.5000 
     50 C           0.8413  -13.3180  -42.0259 C.2       4 UNK         0.5000 
     51 O           0.8818  -14.1116  -42.9692 O.2       4 UNK        -0.5000 
     52 CA          2.1234  -12.6117  -41.5731 C.3       4 UNK         0.1400 
     53 CB          2.7022  -13.2894  -40.3168 C.3       4 UNK        -0.1800 
     54 N           3.1029  -12.6654  -42.6534 N.am      4 UNK        -0.5000 
     55 C           4.1076  -11.8006  -42.8266 C.2       3 UNK         0.5000 
     56 O           4.3113  -10.8463  -42.0744 O.2       3 UNK        -0.5000 
     57 CA          5.0440  -12.0284  -44.0298 C.3       3 UNK         0.1400 
     58 CB          6.5186  -11.8283  -43.6344 C.3       3 UNK        -0.1800 
     59 N           4.9013  -13.3738  -44.6038 N.am      3 UNK        -0.5000 
     60 C           4.6076  -13.7228  -45.8656 C.2       2 UNK         0.5000 
     61 O           4.6558  -14.9020  -46.2177 O.2       2 UNK        -0.5000 
     62 CA          4.2472  -12.6349  -46.9088 C.3       2 UNK         0.1400 
     63 CB          5.5175  -11.9422  -47.4356 C.3       2 UNK        -0.1800 
     64 N           3.5173  -13.1450  -48.0720 N.am      2 UNK        -0.5000 
     65 C           2.3259  -13.7585  -48.0628 C.2       1 UNK         0.5000 
     66 O           1.6816  -13.9947  -47.0382 O.2       1 UNK        -0.5000 
     67 C          -0.8502  -21.2530  -48.3914 C.2       11 UNK         0.5000 
     68 O          -0.8143  -21.9823  -49.3818 O.2       11 UNK        -0.5000 
     69 N          -1.9897  -20.7466  -47.8932 N.am      12 UNK        -0.5000 
     70 CA         -3.3245  -21.0763  -48.4013 C.3       12 UNK         0.1400 
     71 CB         -4.3945  -20.1949  -47.7367 C.3       12 UNK        -0.1800 
     72 C          -3.6674  -22.5613  -48.2024 C.2       12 UNK         0.5000 
     73 O          -4.1484  -23.2008  -49.1365 O.2       12 UNK        -0.5000 
     74 N          -3.3862  -23.0931  -47.0042 N.am      13 UNK        -0.5000 
     75 CA         -3.5632  -24.5048  -46.6622 C.3       13 UNK         0.1400 
     76 CB         -3.2546  -24.7279  -45.1742 C.3       13 UNK        -0.1800 
     77 C          -2.7222  -25.4345  -47.5555 C.2       13 UNK         0.5000 
     78 O          -3.2564  -26.4133  -48.0810 O.2       13 UNK        -0.5000 
     79 N          -1.4459  -25.0711  -47.7545 N.am      14 UNK        -0.5000 
     80 CA         -0.5058  -25.7445  -48.6525 C.3       14 UNK         0.1400 
     81 CB          0.8867  -25.1130  -48.5059 C.3       14 UNK        -0.1800 
     82 C          -0.9570  -25.7288  -50.1252 C.2       14 UNK         0.5000 
     83 O          -0.7907  -26.7322  -50.8201 O.2       14 UNK        -0.5000 
     84 N          -1.5720  -24.6223  -50.5640 N.am      15 UNK        -0.5000 
     85 CA         -2.1906  -24.4466  -51.8796 C.3       15 UNK         0.1400 
     86 CB         -2.2752  -22.9447  -52.1942 C.3       15 UNK        -0.1800 
     87 C          -3.5625  -25.1472  -51.9859 C.2       15 UNK         0.5000 
     88 O          -4.5491  -24.5182  -52.3734 O.2       15 UNK        -0.5000 
     89 N          -3.5892  -26.4418  -51.6382 N.am      16 UNK        -0.5000 
     90 CA         -4.7105  -27.3817  -51.7231 C.3       16 UNK         0.1400 
     91 CB         -4.9229  -27.8073  -53.1898 C.3       16 UNK        -0.1800 
     92 C          -6.0014  -26.8764  -51.0445 C.2       16 UNK         0.5000 
     93 O          -7.0833  -26.9828  -51.6248 O.2       16 UNK        -0.5000 
     94 N          -5.8516  -26.3335  -49.8265 N.am      17 UNK        -0.5000 
     95 CA         -6.9063  -25.7381  -48.9990 C.3       17 UNK         0.1400 
     96 CB         -7.9065  -26.8124  -48.5221 C.3       17 UNK        -0.1800 
     97 C          -7.5821  -24.5329  -49.6867 C.2       17 UNK         0.5000 
     98 O          -8.7991  -24.5233  -49.8824 O.2       17 UNK        -0.5000 
     99 N          -6.7555  -23.5365  -50.0289 N.am      18 UNK        -0.5000 
    100 CA        -7.0981  -22.2552  -50.6473 C.3       18 UNK         0.1400 
    101 CB        -7.9780  -21.4070  -49.7048 C.3       18 UNK        -0.1800 
    102 C         -7.6862  -22.4006  -52.0644 C.2       18 UNK         0.5000 
    103 O         -8.6460  -21.7086  -52.4108 O.2       18 UNK        -0.5000 
    104 N         -7.0797  -23.2766  -52.8781 N.am      19 UNK        -0.5000 
    105 CA        -7.3780  -23.4077  -54.3078 C.3       19 UNK         0.1400 
    106 CB        -6.8353  -24.7483  -54.8222 C.3       19 UNK        -0.1800 
    107 C         -6.8024  -22.2367  -55.1310 C.2       19 UNK         0.5000 
    108 O         -7.2985  -21.9576  -56.2234 O.2       19 UNK        -0.5000 
    109 N         -5.7868  -21.5643  -54.5792 N.am      20 UNK        -0.5000 
    110 CA        -5.2151  -20.3125  -55.0553 C.3       20 UNK         0.1400 
    111 CB        -3.8368  -20.5922  -55.6747 C.3       20 UNK        -0.1800 
    112 C         -5.0927  -19.3633  -53.8544 C.2       20 UNK         0.5000 
    113 O         -5.0128  -19.8258  -52.7114 O.2       20 UNK        -0.5000 
    114 N         -5.0432  -18.0534  -54.1275 N.am      21 UNK        -0.5000 
    115 CA        -4.9364  -16.9697  -53.1414 C.3       21 UNK         0.1400 
    116 CB        -5.4682  -15.6721  -53.7767 C.3       21 UNK        -0.1800 
    117 C         -3.5097  -16.8078  -52.5651 C.2       21 UNK         0.5000 
    118 O         -2.9886  -15.6944  -52.4834 O.2       21 UNK        -0.5000 
    119 N         -2.9010  -17.9350  -52.1926 N.am      22 UNK        -0.5000 
    120 CA        -1.5558  -18.0458  -51.6164 C.3       22 UNK         0.1400 
    121 C         -1.4730  -17.6201  -50.1248 C.2       22 UNK         0.5000 
    122 N         -2.5550  -17.6806  -49.3618 N.am      22 UNK        -0.7600 
    123 O         -0.4121  -17.2253  -49.6526 O.2       22 UNK        -0.5000 
    124 C124       -1.0264  -19.4886  -51.7966 C.3       23 UNK        -0.0398 
    125 S125       -0.6062  -19.8449  -53.5408 S.3       23 UNK        -0.2404 
    126 C126        1.0026  -20.7051  -53.4158 C.3       23 UNK        -0.0205 
    127 H127       -2.6261  -13.3340  -48.5125 H         1 UNK         0.0600 
    128 H128       -2.1026  -14.9899  -48.8013 H         1 UNK         0.0600 
    129 H129       -2.5308  -13.9527  -50.1668 H         1 UNK         0.0600 
    130 H130        0.0760  -15.4024  -49.4330 H         1 UNK         0.3000 
    131 H131        1.9249  -13.2698  -50.0909 H         1 UNK         0.0600 
    132 H132        3.6270  -15.2442  -49.8805 H         1 UNK         0.0800 
    133 H133        2.2390  -16.2773  -49.6411 H         1 UNK         0.0800 
    134 H134        4.5923  -16.2491  -51.9155 H         1 UNK         0.0800 
    135 H135        3.8063  -16.4424  -53.4624 H         1 UNK         0.0800 
    136 H136        2.0765  -18.2295  -53.8067 H         1 UNK         0.1150 
    137 H137        2.0906  -21.5123  -51.0524 H         1 UNK         0.1150 
    138 H138        4.3372  -17.9713  -50.1712 H         1 UNK         0.1150 
    139 H139        3.4134  -21.4589  -49.0798 H         1 UNK         0.0800 
    140 H140        4.7568  -20.3462  -49.0199 H         1 UNK         0.0800 
    141 H141        0.9883  -19.5133  -49.2206 H         1 UNK         0.0800 
    142 H142        0.6030  -18.7773  -47.7020 H         1 UNK         0.0800 
    143 H143        1.1485  -21.7644  -47.8969 H         1 UNK         0.0600 
    144 H144        0.4617  -20.0731  -45.7190 H         1 UNK         0.3000 
    145 H145       -0.8677  -22.6510  -43.6030 H         1 UNK         0.0600 
    146 H146        0.8214  -21.6194  -42.1151 H         1 UNK         0.0600 
    147 H147        1.6122  -22.6134  -43.3296 H         1 UNK         0.0600 
    148 H148        1.6183  -20.8619  -43.4918 H         1 UNK         0.0600 
    149 H149       -0.6526  -19.8367  -43.2325 H         1 UNK         0.3000 
    150 H150       -3.8756  -18.9911  -44.6142 H         1 UNK         0.0600 
    151 H151       -4.2354  -19.7672  -42.2652 H         1 UNK         0.0600 
    152 H152       -4.1010  -18.0177  -42.3550 H         1 UNK         0.0600 
    153 H153       -2.7444  -18.9764  -41.7672 H         1 UNK         0.0600 
    154 H154       -1.8560  -17.3672  -43.4346 H         1 UNK         0.3000 
    155 H155       -0.1052  -16.5863  -46.4754 H         1 UNK         0.0600 
    156 H156       -1.8848  -14.9609  -44.5806 H         1 UNK         0.0600 
    157 H157       -2.0584  -15.0447  -46.3267 H         1 UNK         0.0600 
    158 H158       -0.6256  -14.3084  -45.6250 H         1 UNK         0.0600 
    159 H159        0.4218  -15.7284  -43.8497 H         1 UNK         0.3000 
    160 H160        2.4453  -18.5019  -42.7732 H         1 UNK         0.0600 
    161 H161        2.9869  -15.5647  -43.4571 H         1 UNK         0.0600 
    162 H162        3.9022  -16.9501  -44.0201 H         1 UNK         0.0600 
    163 H163        3.9138  -16.5341  -42.3122 H         1 UNK         0.0600 
    164 H164        1.4507  -16.1013  -41.5127 H         1 UNK         0.3000 
    165 H165       -1.3862  -17.6171  -39.9743 H         1 UNK         0.0600 
    166 H166       -0.2425  -16.8176  -37.9248 H         1 UNK         0.0600 
    167 H167        0.5373  -18.2745  -38.5196 H         1 UNK         0.0600 
    168 H168        1.2926  -16.7078  -38.7866 H         1 UNK         0.0600 
    169 H169       -0.2113  -15.0119  -39.7826 H         1 UNK         0.3000 
    170 H170       -1.8458  -13.5394  -42.5735 H         1 UNK         0.0600 
    171 H171       -3.5961  -13.5303  -40.7895 H         1 UNK         0.0600 
    172 H172       -2.3705  -13.1976  -39.5715 H         1 UNK         0.0600 
    173 H173       -2.7170  -12.0106  -40.8297 H         1 UNK         0.0600 
    174 H174       -0.2171  -12.4081  -40.5481 H         1 UNK         0.3000 
    175 H175        1.8768  -11.5710  -41.3523 H         1 UNK         0.0600 
    176 H176        2.9643  -14.3310  -40.5070 H         1 UNK         0.0600 
    177 H177        3.6013  -12.7786  -39.9716 H         1 UNK         0.0600 
    178 H178        1.9886  -13.2733  -39.4924 H         1 UNK         0.0600 
    179 H179        2.9286  -13.3839  -43.3448 H         1 UNK         0.3000 
    180 H180        4.7879  -11.2493  -44.7451 H         1 UNK         0.0600 
    181 H181        6.8191  -12.5194  -42.8459 H         1 UNK         0.0600 
    182 H182        6.6976  -10.8158  -43.2702 H         1 UNK         0.0600 
    183 H183        7.1831  -11.9850  -44.4840 H         1 UNK         0.0600 
    184 H184        5.1208  -14.1205  -43.9608 H         1 UNK         0.3000 
    185 H185        3.5927  -11.8991  -46.4400 H         1 UNK         0.0600 
    186 H186        6.1079  -11.5013  -46.6337 H         1 UNK         0.0600 
    187 H187        6.1652  -12.6453  -47.9610 H         1 UNK         0.0600 
    188 H188        5.2696  -11.1361  -48.1265 H         1 UNK         0.0600 
    189 H189        3.9766  -13.0081  -48.9602 H         1 UNK         0.3000 
    190 H190       -1.9452  -20.0880  -47.1224 H         1 UNK         0.3000 
    191 H191       -3.3327  -20.8683  -49.4731 H         1 UNK         0.0600 
    192 H192       -4.4896  -20.4007  -46.6715 H         1 UNK         0.0600 
    193 H193       -5.3709  -20.3703  -48.1883 H         1 UNK         0.0600 
    194 H194       -4.1777  -19.1350  -47.8459 H         1 UNK         0.0600 
    195 H195       -3.0381  -22.4836  -46.2687 H         1 UNK         0.3000 
    196 H196       -4.6134  -24.7499  -46.8217 H         1 UNK         0.0600 
    197 H197       -3.4224  -25.7684  -44.8938 H         1 UNK         0.0600 
    198 H198       -3.8963  -24.1128  -44.5431 H         1 UNK         0.0600 
    199 H199       -2.2202  -24.4864  -44.9321 H         1 UNK         0.0600 
    200 H200       -1.0872  -24.2682  -47.2443 H         1 UNK         0.3000 
    201 H201       -0.4418  -26.7879  -48.3376 H         1 UNK         0.0600 
    202 H202        1.2414  -25.1729  -47.4768 H         1 UNK         0.0600 
    203 H203        0.8850  -24.0630  -48.7986 H         1 UNK         0.0600 
    204 H204        1.6165  -25.6269  -49.1326 H         1 UNK         0.0600 
    205 H205       -1.6475  -23.8320  -49.9331 H         1 UNK         0.3000 
    206 H206       -1.5419  -24.9019  -52.6304 H         1 UNK         0.0600 
    207 H207       -1.2904  -22.4844  -52.1353 H         1 UNK         0.0600 
    208 H208       -2.6562  -22.7718  -53.2010 H         1 UNK         0.0600 
    209 H209       -2.9328  -22.4235  -51.4981 H         1 UNK         0.0600 
    210 H210       -2.7127  -26.8350  -51.3101 H         1 UNK         0.3000 
    211 H211       -4.4080  -28.2692  -51.1655 H         1 UNK         0.0600 
    212 H212       -5.2147  -26.9645  -53.8148 H         1 UNK         0.0600 
    213 H213       -5.7024  -28.5655  -53.2727 H         1 UNK         0.0600 
    214 H214       -4.0125  -28.2340  -53.6106 H         1 UNK         0.0600 
    215 H215       -4.9141  -26.2869  -49.4414 H         1 UNK         0.3000 
    216 H216       -6.4143  -25.3432  -48.1109 H         1 UNK         0.0600 
    217 H217       -8.6279  -26.3876  -47.8232 H         1 UNK         0.0600 
    218 H218       -7.3949  -27.6248  -48.0061 H         1 UNK         0.0600 
    219 H219       -8.4709  -27.2434  -49.3494 H         1 UNK         0.0600 
    220 H220       -5.7633  -23.6456  -49.8231 H         1 UNK         0.3000 
    221 H221       -6.1523  -21.7250  -50.7704 H         1 UNK         0.0600 
    222 H222       -8.9788  -21.8263  -49.5975 H         1 UNK         0.0600 
    223 H223       -7.5385  -21.3348  -48.7104 H         1 UNK         0.0600 
    224 H224       -8.0884  -20.3912  -50.0859 H         1 UNK         0.0600 
    225 H225       -6.2766  -23.8016  -52.5357 H         1 UNK         0.3000 
    226 H226       -8.4620  -23.4083  -54.4387 H         1 UNK         0.0600 
    227 H227       -7.2301  -25.5820  -54.2411 H         1 UNK         0.0600 
    228 H228       -7.1207  -24.9108  -55.8622 H         1 UNK         0.0600 
    229 H229       -5.7467  -24.7858  -54.7727 H         1 UNK         0.0600 
    230 H230       -5.4858  -21.8333  -53.6516 H         1 UNK         0.3000 
    231 H231       -5.8674  -19.8506  -55.7994 H         1 UNK         0.0600 
    232 H232       -3.9185  -21.2692  -56.5251 H         1 UNK         0.0600 
    233 H233       -3.1560  -21.0441  -54.9526 H         1 UNK         0.0600 
    234 H234       -3.3717  -19.6731  -56.0330 H         1 UNK         0.0600 
    235 H235       -5.0677  -17.7621  -55.0942 H         1 UNK         0.3000 
    236 H236       -5.5866  -17.2107  -52.2978 H         1 UNK         0.0600 
    237 H237       -5.4740  -14.8543  -53.0548 H         1 UNK         0.0600 
    238 H238       -4.8565  -15.3596  -54.6239 H         1 UNK         0.0600 
    239 H239       -6.4924  -15.7960  -54.1289 H         1 UNK         0.0600 
    240 H240       -3.4236  -18.7988  -52.2951 H         1 UNK         0.3000 
    241 H241       -0.8939  -17.3678  -52.1597 H         1 UNK         0.0600 
    242 H242       -2.4616  -17.5080  -48.3694 H         1 UNK         0.3800 
    243 H243       -3.4400  -17.9671  -49.7437 H         1 UNK         0.3800 
    244 H244       -0.1561  -19.6592  -51.1689 H         1 UNK         0.0800 
    245 H245       -1.7700  -20.2095  -51.4566 H         1 UNK         0.0800 
    246 H246        1.4200  -20.8217  -54.4166 H         1 UNK         0.0800 
    247 H247        0.8332  -21.7136  -53.0361 H         1 UNK         0.0800 
@<TRIPOS>BOND
     1    1    2 1    
     2    1  127 1    
     3    1  128 1    
     4    1  129 1    
     5    2    3 2    
     6    2    4 am   BACKBONE|DICT|INTERRES
     7    4    5 1    
     8    4  130 1    
     9    5    6 1    
    10    5   65 1    
    11    5  131 1    
    12    6    7 1    
    13    6  132 1    
    14    6  133 1    
    15    7    8 1    
    16    8    9 1    
    17    8  134 1    
    18    8  135 1    
    19    9   10 ar   
    20    9   14 ar   
    21   10   11 ar   
    22   10  136 1    
    23   11   12 ar   
    24   11  126 1    
    25   12   13 ar   
    26   12  137 1    
    27   13   14 ar   
    28   13   15 1    
    29   14  138 1    
    30   15   16 1    
    31   15  139 1    
    32   15  140 1    
    33   16   17 1    
    34   17   18 1    
    35   17  141 1    
    36   17  142 1    
    37   18   19 1    
    38   18   67 1    
    39   18  143 1    
    40   19   20 am   BACKBONE|DICT|INTERRES
    41   19  144 1    
    42   20   21 2    
    43   20   22 1    
    44   22   23 1    
    45   22   24 1    
    46   22  145 1    
    47   23  146 1    
    48   23  147 1    
    49   23  148 1    
    50   24   25 am   BACKBONE|DICT|INTERRES
    51   24  149 1    
    52   25   26 2    
    53   25   27 1    
    54   27   28 1    
    55   27   29 1    
    56   27  150 1    
    57   28  151 1    
    58   28  152 1    
    59   28  153 1    
    60   29   30 am   BACKBONE|DICT|INTERRES
    61   29  154 1    
    62   30   31 2    
    63   30   32 1    
    64   32   33 1    
    65   32   34 1    
    66   32  155 1    
    67   33  156 1    
    68   33  157 1    
    69   33  158 1    
    70   34   35 am   BACKBONE|DICT|INTERRES
    71   34  159 1    
    72   35   36 2    
    73   35   37 1    
    74   37   38 1    
    75   37   39 1    
    76   37  160 1    
    77   38  161 1    
    78   38  162 1    
    79   38  163 1    
    80   39   40 am   BACKBONE|DICT|INTERRES
    81   39  164 1    
    82   40   41 2    
    83   40   42 1    
    84   42   43 1    
    85   42   44 1    
    86   42  165 1    
    87   43  166 1    
    88   43  167 1    
    89   43  168 1    
    90   44   45 am   BACKBONE|DICT|INTERRES
    91   44  169 1    
    92   45   46 2    
    93   45   47 1    
    94   47   48 1    
    95   47   49 1    
    96   47  170 1    
    97   48  171 1    
    98   48  172 1    
    99   48  173 1    
   100   49   50 am   BACKBONE|DICT|INTERRES
   101   49  174 1    
   102   50   51 2    
   103   50   52 1    
   104   52   53 1    
   105   52   54 1    
   106   52  175 1    
   107   53  176 1    
   108   53  177 1    
   109   53  178 1    
   110   54   55 am   BACKBONE|DICT|INTERRES
   111   54  179 1    
   112   55   56 2    
   113   55   57 1    
   114   57   58 1    
   115   57   59 1    
   116   57  180 1    
   117   58  181 1    
   118   58  182 1    
   119   58  183 1    
   120   59   60 am   BACKBONE|DICT|INTERRES
   121   59  184 1    
   122   60   61 2    
   123   60   62 1    
   124   62   63 1    
   125   62   64 1    
   126   62  185 1    
   127   63  186 1    
   128   63  187 1    
   129   63  188 1    
   130   64   65 am   BACKBONE|DICT|INTERRES
   131   64  189 1    
   132   65   66 2    
   133   67   68 2    
   134   67   69 am   BACKBONE|DICT|INTERRES
   135   69   70 1    
   136   69  190 1    
   137   70   71 1    
   138   70   72 1    
   139   70  191 1    
   140   71  192 1    
   141   71  193 1    
   142   71  194 1    
   143   72   73 2    
   144   72   74 am   BACKBONE|DICT|INTERRES
   145   74   75 1    
   146   74  195 1    
   147   75   76 1    
   148   75   77 1    
   149   75  196 1    
   150   76  197 1    
   151   76  198 1    
   152   76  199 1    
   153   77   78 2    
   154   77   79 am   BACKBONE|DICT|INTERRES
   155   79   80 1    
   156   79  200 1    
   157   80   81 1    
   158   80   82 1    
   159   80  201 1    
   160   81  202 1    
   161   81  203 1    
   162   81  204 1    
   163   82   83 2    
   164   82   84 am   BACKBONE|DICT|INTERRES
   165   84   85 1    
   166   84  205 1    
   167   85   86 1    
   168   85   87 1    
   169   85  206 1    
   170   86  207 1    
   171   86  208 1    
   172   86  209 1    
   173   87   88 2    
   174   87   89 am   BACKBONE|DICT|INTERRES
   175   89   90 1    
   176   89  210 1    
   177   90   91 1    
   178   90   92 1    
   179   90  211 1    
   180   91  212 1    
   181   91  213 1    
   182   91  214 1    
   183   92   93 2    
   184   92   94 am   BACKBONE|DICT|INTERRES
   185   94   95 1    
   186   94  215 1    
   187   95   96 1    
   188   95   97 1    
   189   95  216 1    
   190   96  217 1    
   191   96  218 1    
   192   96  219 1    
   193   97   98 2    
   194   97   99 am   BACKBONE|DICT|INTERRES
   195   99  100 1    
   196   99  220 1    
   197  100  101 1    
   198  100  102 1    
   199  100  221 1    
   200  101  222 1    
   201  101  223 1    
   202  101  224 1    
   203  102  103 2    
   204  102  104 am   BACKBONE|DICT|INTERRES
   205  104  105 1    
   206  104  225 1    
   207  105  106 1    
   208  105  107 1    
   209  105  226 1    
   210  106  227 1    
   211  106  228 1    
   212  106  229 1    
   213  107  108 2    
   214  107  109 am   BACKBONE|DICT|INTERRES
   215  109  110 1    
   216  109  230 1    
   217  110  111 1    
   218  110  112 1    
   219  110  231 1    
   220  111  232 1    
   221  111  233 1    
   222  111  234 1    
   223  112  113 2    
   224  112  114 am   BACKBONE|DICT|INTERRES
   225  114  115 1    
   226  114  235 1    
   227  115  116 1    
   228  115  117 1    
   229  115  236 1    
   230  116  237 1    
   231  116  238 1    
   232  116  239 1    
   233  117  118 2    
   234  117  119 am   BACKBONE|DICT|INTERRES
   235  119  120 1    
   236  119  240 1    
   237  120  121 1    
   238  120  124 1    
   239  120  241 1    
   240  121  122 am   BACKBONE|DICT|INTERRES
   241  121  123 2    
   242  122  242 1    
   243  122  243 1    
   244  124  125 1    
   245  124  244 1    
   246  124  245 1    
   247  125  126 1    
   248  126  246 1    
   249  126  247 1    
@<TRIPOS>SUBSTRUCTURE
     1 UNK         1 GROUP             0       ****    0 ROOT    
