@<TRIPOS>MOLECULE
3R540
247   249    1
SMALL
USER_CHARGES


@<TRIPOS>ATOM
      1 CA          2.6817  -17.0833  -44.3894 C.3       0 UNK        -0.1800 
      2 C           2.4021  -16.0279  -45.4478 C.2       0 UNK         0.5000 
      3 O           1.9716  -14.9236  -45.1113 O.2       0 UNK        -0.5000 
      4 N           2.6623  -16.3653  -46.7190 N.am      1 UNK        -0.5000 
      5 CA          2.3648  -15.5749  -47.9234 C.3       1 UNK         0.1400 
      6 C6          2.8470  -16.2767  -49.2176 C.3       23 UNK        -0.0398 
      7 S7          2.3033  -18.0124  -49.3651 S.3       23 UNK        -0.2404 
      8 C8          1.1045  -17.9293  -50.7315 C.3       23 UNK        -0.0205 
      9 C9         -0.2897  -17.5588  -50.2506 C.ar      23 UNK        -0.0193 
     10 C10        -0.8942  -16.3638  -50.6507 C.ar      23 UNK        -0.1150 
     11 C11        -2.2199  -16.0935  -50.2959 C.ar      23 UNK        -0.0193 
     12 C12        -2.9122  -16.9880  -49.4754 C.ar      23 UNK        -0.1150 
     13 C13        -2.3167  -18.1822  -49.0636 C.ar      23 UNK        -0.0193 
     14 C14        -1.0082  -18.4634  -49.4655 C.ar      23 UNK        -0.1150 
     15 C15        -3.1315  -19.2076  -48.2874 C.3       23 UNK        -0.0205 
     16 S16        -2.9892  -19.0686  -46.4802 S.3       23 UNK        -0.2404 
     17 C17        -1.2609  -19.5410  -46.1286 C.3       23 UNK        -0.0398 
     18 CA         -0.7937  -20.9055  -46.6907 C.3       11 UNK         0.1400 
     19 N           0.6474  -21.0829  -46.5096 N.am      11 UNK        -0.5000 
     20 C           1.4091  -21.8920  -47.2586 C.2       10 UNK         0.5000 
     21 O           0.9681  -22.5625  -48.1894 O.2       10 UNK        -0.5000 
     22 CA          2.8975  -22.0192  -46.8773 C.3       10 UNK         0.1400 
     23 CB          3.7388  -20.9817  -47.6334 C.3       10 UNK        -0.1800 
     24 N           3.1450  -21.8791  -45.4421 N.am      10 UNK        -0.5000 
     25 C           2.6268  -22.6676  -44.4922 C.2       9 UNK         0.5000 
     26 O           1.9147  -23.6432  -44.7355 O.2       9 UNK        -0.5000 
     27 CA          2.8783  -22.2647  -43.0249 C.3       9 UNK         0.1400 
     28 CB          4.0264  -21.2465  -42.8404 C.3       9 UNK        -0.1800 
     29 N           1.6533  -21.7657  -42.3884 N.am      9 UNK        -0.5000 
     30 C           0.8805  -20.7490  -42.8023 C.2       8 UNK         0.5000 
     31 O           1.0925  -20.1104  -43.8355 O.2       8 UNK        -0.5000 
     32 CA         -0.3676  -20.4134  -41.9544 C.3       8 UNK         0.1400 
     33 CB         -0.3308  -20.9972  -40.5246 C.3       8 UNK        -0.1800 
     34 N          -0.6535  -18.9754  -41.9067 N.am      8 UNK        -0.5000 
     35 C           0.1550  -17.9919  -41.4888 C.2       7 UNK         0.5000 
     36 O           1.2983  -18.1870  -41.0719 O.2       7 UNK        -0.5000 
     37 CA         -0.4129  -16.5501  -41.5134 C.3       7 UNK         0.1400 
     38 CB          0.6937  -15.4840  -41.4098 C.3       7 UNK        -0.1800 
     39 N          -1.2550  -16.2199  -42.6700 N.am      7 UNK        -0.5000 
     40 C          -2.5014  -16.6487  -42.9129 C.2       6 UNK         0.5000 
     41 O          -3.0614  -17.5034  -42.2256 O.2       6 UNK        -0.5000 
     42 CA         -3.2689  -16.0117  -44.0923 C.3       6 UNK         0.1400 
     43 CB         -4.6117  -15.4307  -43.6193 C.3       6 UNK        -0.1800 
     44 N          -2.5326  -14.9502  -44.7786 N.am      6 UNK        -0.5000 
     45 C          -1.5716  -15.1208  -45.6925 C.2       5 UNK         0.5000 
     46 O          -1.1523  -16.2179  -46.0482 O.2       5 UNK        -0.5000 
     47 CA         -0.9292  -13.8458  -46.2592 C.3       5 UNK         0.1400 
     48 CB         -1.8319  -13.1540  -47.2978 C.3       5 UNK        -0.1800 
     49 N          -0.4661  -12.9326  -45.2097 N.am      5 UNK        -0.5000 
     50 C          -1.1752  -12.1572  -44.3767 C.2       4 UNK         0.5000 
     51 O          -2.4043  -12.0808  -44.4034 O.2       4 UNK        -0.5000 
     52 CA         -0.3935  -11.3769  -43.2962 C.3       4 UNK         0.1400 
     53 CB         -1.0327  -11.5623  -41.9089 C.3       4 UNK        -0.1800 
     54 N           1.0209  -11.7581  -43.2159 N.am      4 UNK        -0.5000 
     55 C           1.9915  -11.2947  -44.0140 C.2       3 UNK         0.5000 
     56 O           1.7933  -10.4608  -44.8988 O.2       3 UNK        -0.5000 
     57 CA          3.4080  -11.8685  -43.8146 C.3       3 UNK         0.1400 
     58 CB          3.5265  -12.8846  -42.6598 C.3       3 UNK        -0.1800 
     59 N           3.8410  -12.5140  -45.0514 N.am      3 UNK        -0.5000 
     60 C           4.5749  -11.9288  -46.0076 C.2       2 UNK         0.5000 
     61 O           5.0060  -10.7773  -45.9269 O.2       2 UNK        -0.5000 
     62 CA          4.9179  -12.7638  -47.2576 C.3       2 UNK         0.1400 
     63 CB          6.4188  -13.0965  -47.2852 C.3       2 UNK        -0.1800 
     64 N           4.1672  -14.0168  -47.3514 N.am      2 UNK        -0.5000 
     65 C           2.9434  -14.1434  -47.8820 C.2       1 UNK         0.5000 
     66 O           2.2848  -13.2033  -48.3264 O.2       1 UNK        -0.5000 
     67 C          -1.5993  -22.1063  -46.1525 C.2       11 UNK         0.5000 
     68 O          -2.6463  -22.4333  -46.7159 O.2       11 UNK        -0.5000 
     69 N          -1.0747  -22.7875  -45.1232 N.am      12 UNK        -0.5000 
     70 CA         -1.6302  -24.0455  -44.6242 C.3       12 UNK         0.1400 
     71 CB         -1.0793  -24.3506  -43.2229 C.3       12 UNK        -0.1800 
     72 C          -1.3572  -25.1974  -45.6078 C.2       12 UNK         0.5000 
     73 O          -2.2652  -25.9789  -45.8899 O.2       12 UNK        -0.5000 
     74 N          -0.1379  -25.2389  -46.1669 N.am      13 UNK        -0.5000 
     75 CA          0.2688  -26.1759  -47.2194 C.3       13 UNK         0.1400 
     76 CB          1.7772  -26.0368  -47.4725 C.3       13 UNK        -0.1800 
     77 C          -0.5276  -25.9962  -48.5289 C.2       13 UNK         0.5000 
     78 O          -0.8705  -26.9868  -49.1740 O.2       13 UNK        -0.5000 
     79 N          -0.8513  -24.7404  -48.8672 N.am      14 UNK        -0.5000 
     80 CA         -1.7144  -24.3517  -49.9860 C.3       14 UNK         0.1400 
     81 CB         -1.4563  -22.8754  -50.3209 C.3       14 UNK        -0.1800 
     82 C          -3.2195  -24.5772  -49.7305 C.2       14 UNK         0.5000 
     83 O          -4.0206  -24.2716  -50.6163 O.2       14 UNK        -0.5000 
     84 N          -3.5827  -25.0698  -48.5359 N.am      15 UNK        -0.5000 
     85 CA         -4.9377  -25.3843  -48.0771 C.3       15 UNK         0.1400 
     86 CB         -5.5091  -26.5780  -48.8712 C.3       15 UNK        -0.1800 
     87 C          -5.8624  -24.1516  -48.0817 C.2       15 UNK         0.5000 
     88 O          -6.9679  -24.2091  -48.6206 O.2       15 UNK        -0.5000 
     89 N          -5.3694  -23.0399  -47.5140 N.am      16 UNK        -0.5000 
     90 CA         -6.0205  -21.7244  -47.4678 C.3       16 UNK         0.1400 
     91 CB         -7.2986  -21.7614  -46.6041 C.3       16 UNK        -0.1800 
     92 C          -6.2493  -21.1409  -48.8787 C.2       16 UNK         0.5000 
     93 O          -7.2972  -20.5565  -49.1548 O.2       16 UNK        -0.5000 
     94 N          -5.2405  -21.3382  -49.7395 N.am      17 UNK        -0.5000 
     95 CA         -5.1350  -20.9360  -51.1450 C.3       17 UNK         0.1400 
     96 CB         -5.3634  -19.4231  -51.3530 C.3       17 UNK        -0.1800 
     97 C          -5.9778  -21.7783  -52.1171 C.2       17 UNK         0.5000 
     98 O          -5.9346  -21.5008  -53.3158 O.2       17 UNK        -0.5000 
     99 N          -6.6683  -22.8235  -51.6394 N.am      18 UNK        -0.5000 
    100 CA        -7.4498  -23.7421  -52.4747 C.3       18 UNK         0.1400 
    101 CB        -8.2245  -24.7183  -51.5786 C.3       18 UNK        -0.1800 
    102 C         -6.6030  -24.5143  -53.5077 C.2       18 UNK         0.5000 
    103 O         -7.1347  -24.9099  -54.5459 O.2       18 UNK        -0.5000 
    104 N         -5.3072  -24.6894  -53.2179 N.am      19 UNK        -0.5000 
    105 CA        -4.3272  -25.3428  -54.0801 C.3       19 UNK         0.1400 
    106 CB        -3.7246  -26.5333  -53.3107 C.3       19 UNK        -0.1800 
    107 C         -3.2385  -24.3650  -54.5724 C.2       19 UNK         0.5000 
    108 O         -2.1592  -24.8284  -54.9463 O.2       19 UNK        -0.5000 
    109 N         -3.5034  -23.0464  -54.5731 N.am      20 UNK        -0.5000 
    110 CA        -2.5211  -22.0408  -55.0033 C.3       20 UNK         0.1400 
    111 CB        -1.6229  -21.6367  -53.8212 C.3       20 UNK        -0.1800 
    112 C         -3.1194  -20.7833  -55.6523 C.2       20 UNK         0.5000 
    113 O         -2.4597  -20.2006  -56.5136 O.2       20 UNK        -0.5000 
    114 N         -4.3043  -20.3365  -55.2067 N.am      21 UNK        -0.5000 
    115 CA        -4.9675  -19.0794  -55.5936 C.3       21 UNK         0.1400 
    116 CB        -5.4954  -19.1720  -57.0402 C.3       21 UNK        -0.1800 
    117 C         -4.0922  -17.8245  -55.3493 C.2       21 UNK         0.5000 
    118 O         -4.1252  -16.8796  -56.1392 O.2       21 UNK        -0.5000 
    119 N         -3.2946  -17.8717  -54.2731 N.am      22 UNK        -0.5000 
    120 CA        -2.2258  -16.9230  -53.9098 C.3       22 UNK         0.1400 
    121 C         -0.9804  -16.9416  -54.8517 C.2       22 UNK         0.5000 
    122 N         -0.8482  -17.8736  -55.7882 N.am      22 UNK        -0.7600 
    123 O         -0.0861  -16.1124  -54.7086 O.2       22 UNK        -0.5000 
    124 C124       -2.7184  -15.4719  -53.6272 C.3       23 UNK        -0.0398 
    125 S125       -3.9652  -15.3456  -52.2977 S.3       23 UNK        -0.2404 
    126 C126       -2.9428  -14.8806  -50.8573 C.3       23 UNK        -0.0205 
    127 H127        1.7426  -17.4223  -43.9541 H         1 UNK         0.0600 
    128 H128        3.1938  -17.9521  -44.8035 H         1 UNK         0.0600 
    129 H129        3.2998  -16.6689  -43.5932 H         1 UNK         0.0600 
    130 H130        3.0096  -17.2938  -46.9109 H         1 UNK         0.3000 
    131 H131        1.2789  -15.4956  -47.9851 H         1 UNK         0.0600 
    132 H132        2.5139  -15.7176  -50.0938 H         1 UNK         0.0800 
    133 H133        3.9377  -16.2817  -49.2646 H         1 UNK         0.0800 
    134 H134        1.0563  -18.9110  -51.2051 H         1 UNK         0.0800 
    135 H135        1.4545  -17.2433  -51.5042 H         1 UNK         0.0800 
    136 H136       -0.3582  -15.6772  -51.2908 H         1 UNK         0.1150 
    137 H137       -3.9389  -16.7810  -49.2080 H         1 UNK         0.1150 
    138 H138       -0.5405  -19.3969  -49.1983 H         1 UNK         0.1150 
    139 H139       -4.1855  -19.0657  -48.5217 H         1 UNK         0.0800 
    140 H140       -2.8916  -20.2170  -48.6169 H         1 UNK         0.0800 
    141 H141       -0.6212  -18.7509  -46.5241 H         1 UNK         0.0800 
    142 H142       -1.1308  -19.5088  -45.0470 H         1 UNK         0.0800 
    143 H143       -0.9666  -20.9018  -47.7622 H         1 UNK         0.0600 
    144 H144        1.0623  -20.6035  -45.7149 H         1 UNK         0.3000 
    145 H145        3.2303  -23.0145  -47.1775 H         1 UNK         0.0600 
    146 H146        4.8043  -21.1392  -47.4654 H         1 UNK         0.0600 
    147 H147        3.5669  -21.0452  -48.7089 H         1 UNK         0.0600 
    148 H148        3.4964  -19.9655  -47.3212 H         1 UNK         0.0600 
    149 H149        3.6895  -21.0802  -45.1526 H         1 UNK         0.3000 
    150 H150        3.1577  -23.1797  -42.5008 H         1 UNK         0.0600 
    151 H151        4.9533  -21.6111  -43.2851 H         1 UNK         0.0600 
    152 H152        4.2253  -21.0784  -41.7819 H         1 UNK         0.0600 
    153 H153        3.7989  -20.2768  -43.2849 H         1 UNK         0.0600 
    154 H154        1.3818  -22.2481  -41.5436 H         1 UNK         0.3000 
    155 H155       -1.2116  -20.8679  -42.4747 H         1 UNK         0.0600 
    156 H156       -1.2205  -20.7099  -39.9640 H         1 UNK         0.0600 
    157 H157        0.5380  -20.6476  -39.9654 H         1 UNK         0.0600 
    158 H158       -0.3061  -22.0874  -40.5368 H         1 UNK         0.0600 
    159 H159       -1.5862  -18.6963  -42.1964 H         1 UNK         0.3000 
    160 H160       -1.0349  -16.4592  -40.6208 H         1 UNK         0.0600 
    161 H161        1.3525  -15.5104  -42.2772 H         1 UNK         0.0600 
    162 H162        1.3099  -15.6329  -40.5222 H         1 UNK         0.0600 
    163 H163        0.2733  -14.4825  -41.3379 H         1 UNK         0.0600 
    164 H164       -0.8629  -15.5627  -43.3274 H         1 UNK         0.3000 
    165 H165       -3.4810  -16.8058  -44.8075 H         1 UNK         0.0600 
    166 H166       -4.4684  -14.6325  -42.8899 H         1 UNK         0.0600 
    167 H167       -5.1806  -15.0230  -44.4552 H         1 UNK         0.0600 
    168 H168       -5.2319  -16.1969  -43.1524 H         1 UNK         0.0600 
    169 H169       -2.7740  -13.9939  -44.5351 H         1 UNK         0.3000 
    170 H170       -0.0274  -14.1526  -46.7838 H         1 UNK         0.0600 
    171 H171       -2.0433  -13.8286  -48.1277 H         1 UNK         0.0600 
    172 H172       -2.7903  -12.8491  -46.8778 H         1 UNK         0.0600 
    173 H173       -1.3479  -12.2700  -47.7128 H         1 UNK         0.0600 
    174 H174        0.5325  -12.9670  -45.0546 H         1 UNK         0.3000 
    175 H175       -0.4596  -10.3183  -43.5555 H         1 UNK         0.0600 
    176 H176       -1.0881  -12.6131  -41.6254 H         1 UNK         0.0600 
    177 H177       -0.4705  -11.0334  -41.1390 H         1 UNK         0.0600 
    178 H178       -2.0494  -11.1677  -41.8909 H         1 UNK         0.0600 
    179 H179        1.2612  -12.4501  -42.5213 H         1 UNK         0.3000 
    180 H180        4.0614  -11.0262  -43.5784 H         1 UNK         0.0600 
    181 H181        3.2334  -12.4417  -41.7071 H         1 UNK         0.0600 
    182 H182        2.9125  -13.7693  -42.8266 H         1 UNK         0.0600 
    183 H183        4.5572  -13.2217  -42.5477 H         1 UNK         0.0600 
    184 H184        3.4609  -13.4369  -45.2265 H         1 UNK         0.3000 
    185 H185        4.6927  -12.1475  -48.1307 H         1 UNK         0.0600 
    186 H186        6.6866  -13.6369  -48.1934 H         1 UNK         0.0600 
    187 H187        7.0229  -12.1886  -47.2606 H         1 UNK         0.0600 
    188 H188        6.7111  -13.7082  -46.4308 H         1 UNK         0.0600 
    189 H189        4.6218  -14.8434  -46.9908 H         1 UNK         0.3000 
    190 H190       -0.1640  -22.5222  -44.7770 H         1 UNK         0.3000 
    191 H191       -2.7131  -23.9325  -44.5362 H         1 UNK         0.0600 
    192 H192       -1.5268  -25.2612  -42.8228 H         1 UNK         0.0600 
    193 H193       -1.3084  -23.5450  -42.5257 H         1 UNK         0.0600 
    194 H194        0.0003  -24.4955  -43.2260 H         1 UNK         0.0600 
    195 H195        0.5680  -24.5879  -45.8369 H         1 UNK         0.3000 
    196 H196        0.0782  -27.1866  -46.8526 H         1 UNK         0.0600 
    197 H197        2.1192  -26.7745  -48.1994 H         1 UNK         0.0600 
    198 H198        2.3480  -26.1920  -46.5568 H         1 UNK         0.0600 
    199 H199        2.0313  -25.0518  -47.8629 H         1 UNK         0.0600 
    200 H200       -0.4409  -23.9796  -48.3361 H         1 UNK         0.3000 
    201 H201       -1.4441  -24.9506  -50.8578 H         1 UNK         0.0600 
    202 H202       -0.4152  -22.7052  -50.5953 H         1 UNK         0.0600 
    203 H203       -1.6954  -22.2281  -49.4793 H         1 UNK         0.0600 
    204 H204       -2.0698  -22.5541  -51.1604 H         1 UNK         0.0600 
    205 H205       -2.8517  -25.2631  -47.8628 H         1 UNK         0.3000 
    206 H206       -4.8489  -25.6942  -47.0351 H         1 UNK         0.0600 
    207 H207       -4.8574  -27.4480  -48.7924 H         1 UNK         0.0600 
    208 H208       -6.4881  -26.8706  -48.4899 H         1 UNK         0.0600 
    209 H209       -5.6255  -26.3448  -49.9298 H         1 UNK         0.0600 
    210 H210       -4.4217  -23.0618  -47.1435 H         1 UNK         0.3000 
    211 H211       -5.3149  -21.0560  -46.9733 H         1 UNK         0.0600 
    212 H212       -8.0857  -22.3593  -47.0641 H         1 UNK         0.0600 
    213 H213       -7.6972  -20.7570  -46.4572 H         1 UNK         0.0600 
    214 H214       -7.0947  -22.1762  -45.6171 H         1 UNK         0.0600 
    215 H215       -4.4747  -21.9058  -49.4057 H         1 UNK         0.3000 
    216 H216       -4.1000  -21.1391  -51.4201 H         1 UNK         0.0600 
    217 H217       -6.3803  -19.1213  -51.1040 H         1 UNK         0.0600 
    218 H218       -5.1955  -19.1376  -52.3909 H         1 UNK         0.0600 
    219 H219       -4.6788  -18.8275  -50.7546 H         1 UNK         0.0600 
    220 H220       -6.6298  -23.0291  -50.6494 H         1 UNK         0.3000 
    221 H221       -8.1747  -23.1436  -53.0301 H         1 UNK         0.0600 
    222 H222       -7.5515  -25.3657  -51.0167 H         1 UNK         0.0600 
    223 H223       -8.8537  -24.1868  -50.8644 H         1 UNK         0.0600 
    224 H224       -8.8761  -25.3605  -52.1724 H         1 UNK         0.0600 
    225 H225       -4.9580  -24.3620  -52.3201 H         1 UNK         0.3000 
    226 H226       -4.8101  -25.7373  -54.9759 H         1 UNK         0.0600 
    227 H227       -4.5040  -27.2073  -52.9549 H         1 UNK         0.0600 
    228 H228       -3.0586  -27.1187  -53.9456 H         1 UNK         0.0600 
    229 H229       -3.1488  -26.2033  -52.4459 H         1 UNK         0.0600 
    230 H230       -4.4206  -22.7243  -54.2911 H         1 UNK         0.3000 
    231 H231       -1.8817  -22.4805  -55.7722 H         1 UNK         0.0600 
    232 H232       -2.1992  -21.1677  -53.0242 H         1 UNK         0.0600 
    233 H233       -1.1016  -22.4992  -53.4059 H         1 UNK         0.0600 
    234 H234       -0.8606  -20.9219  -54.1346 H         1 UNK         0.0600 
    235 H235       -4.8073  -20.8637  -54.4957 H         1 UNK         0.3000 
    236 H236       -5.8317  -18.9761  -54.9359 H         1 UNK         0.0600 
    237 H237       -6.1224  -20.0535  -57.1739 H         1 UNK         0.0600 
    238 H238       -6.1030  -18.3021  -57.2922 H         1 UNK         0.0600 
    239 H239       -4.6829  -19.2250  -57.7654 H         1 UNK         0.0600 
    240 H240       -3.3443  -18.6965  -53.6956 H         1 UNK         0.3000 
    241 H241       -1.8390  -17.3175  -52.9725 H         1 UNK         0.0600 
    242 H242       -1.5574  -18.5811  -55.9507 H         1 UNK         0.3800 
    243 H243       -0.0259  -17.8630  -56.3700 H         1 UNK         0.3800 
    244 H244       -3.1425  -15.0348  -54.5315 H         1 UNK         0.0800 
    245 H245       -1.8805  -14.8264  -53.3608 H         1 UNK         0.0800 
    246 H246       -2.2377  -14.0932  -51.1273 H         1 UNK         0.0800 
    247 H247       -3.5916  -14.4575  -50.0890 H         1 UNK         0.0800 
@<TRIPOS>BOND
     1    1    2 1    
     2    1  127 1    
     3    1  128 1    
     4    1  129 1    
     5    2    3 2    
     6    2    4 am   BACKBONE|DICT|INTERRES
     7    4    5 1    
     8    4  130 1    
     9    5    6 1    
    10    5   65 1    
    11    5  131 1    
    12    6    7 1    
    13    6  132 1    
    14    6  133 1    
    15    7    8 1    
    16    8    9 1    
    17    8  134 1    
    18    8  135 1    
    19    9   10 ar   
    20    9   14 ar   
    21   10   11 ar   
    22   10  136 1    
    23   11   12 ar   
    24   11  126 1    
    25   12   13 ar   
    26   12  137 1    
    27   13   14 ar   
    28   13   15 1    
    29   14  138 1    
    30   15   16 1    
    31   15  139 1    
    32   15  140 1    
    33   16   17 1    
    34   17   18 1    
    35   17  141 1    
    36   17  142 1    
    37   18   19 1    
    38   18   67 1    
    39   18  143 1    
    40   19   20 am   BACKBONE|DICT|INTERRES
    41   19  144 1    
    42   20   21 2    
    43   20   22 1    
    44   22   23 1    
    45   22   24 1    
    46   22  145 1    
    47   23  146 1    
    48   23  147 1    
    49   23  148 1    
    50   24   25 am   BACKBONE|DICT|INTERRES
    51   24  149 1    
    52   25   26 2    
    53   25   27 1    
    54   27   28 1    
    55   27   29 1    
    56   27  150 1    
    57   28  151 1    
    58   28  152 1    
    59   28  153 1    
    60   29   30 am   BACKBONE|DICT|INTERRES
    61   29  154 1    
    62   30   31 2    
    63   30   32 1    
    64   32   33 1    
    65   32   34 1    
    66   32  155 1    
    67   33  156 1    
    68   33  157 1    
    69   33  158 1    
    70   34   35 am   BACKBONE|DICT|INTERRES
    71   34  159 1    
    72   35   36 2    
    73   35   37 1    
    74   37   38 1    
    75   37   39 1    
    76   37  160 1    
    77   38  161 1    
    78   38  162 1    
    79   38  163 1    
    80   39   40 am   BACKBONE|DICT|INTERRES
    81   39  164 1    
    82   40   41 2    
    83   40   42 1    
    84   42   43 1    
    85   42   44 1    
    86   42  165 1    
    87   43  166 1    
    88   43  167 1    
    89   43  168 1    
    90   44   45 am   BACKBONE|DICT|INTERRES
    91   44  169 1    
    92   45   46 2    
    93   45   47 1    
    94   47   48 1    
    95   47   49 1    
    96   47  170 1    
    97   48  171 1    
    98   48  172 1    
    99   48  173 1    
   100   49   50 am   BACKBONE|DICT|INTERRES
   101   49  174 1    
   102   50   51 2    
   103   50   52 1    
   104   52   53 1    
   105   52   54 1    
   106   52  175 1    
   107   53  176 1    
   108   53  177 1    
   109   53  178 1    
   110   54   55 am   BACKBONE|DICT|INTERRES
   111   54  179 1    
   112   55   56 2    
   113   55   57 1    
   114   57   58 1    
   115   57   59 1    
   116   57  180 1    
   117   58  181 1    
   118   58  182 1    
   119   58  183 1    
   120   59   60 am   BACKBONE|DICT|INTERRES
   121   59  184 1    
   122   60   61 2    
   123   60   62 1    
   124   62   63 1    
   125   62   64 1    
   126   62  185 1    
   127   63  186 1    
   128   63  187 1    
   129   63  188 1    
   130   64   65 am   BACKBONE|DICT|INTERRES
   131   64  189 1    
   132   65   66 2    
   133   67   68 2    
   134   67   69 am   BACKBONE|DICT|INTERRES
   135   69   70 1    
   136   69  190 1    
   137   70   71 1    
   138   70   72 1    
   139   70  191 1    
   140   71  192 1    
   141   71  193 1    
   142   71  194 1    
   143   72   73 2    
   144   72   74 am   BACKBONE|DICT|INTERRES
   145   74   75 1    
   146   74  195 1    
   147   75   76 1    
   148   75   77 1    
   149   75  196 1    
   150   76  197 1    
   151   76  198 1    
   152   76  199 1    
   153   77   78 2    
   154   77   79 am   BACKBONE|DICT|INTERRES
   155   79   80 1    
   156   79  200 1    
   157   80   81 1    
   158   80   82 1    
   159   80  201 1    
   160   81  202 1    
   161   81  203 1    
   162   81  204 1    
   163   82   83 2    
   164   82   84 am   BACKBONE|DICT|INTERRES
   165   84   85 1    
   166   84  205 1    
   167   85   86 1    
   168   85   87 1    
   169   85  206 1    
   170   86  207 1    
   171   86  208 1    
   172   86  209 1    
   173   87   88 2    
   174   87   89 am   BACKBONE|DICT|INTERRES
   175   89   90 1    
   176   89  210 1    
   177   90   91 1    
   178   90   92 1    
   179   90  211 1    
   180   91  212 1    
   181   91  213 1    
   182   91  214 1    
   183   92   93 2    
   184   92   94 am   BACKBONE|DICT|INTERRES
   185   94   95 1    
   186   94  215 1    
   187   95   96 1    
   188   95   97 1    
   189   95  216 1    
   190   96  217 1    
   191   96  218 1    
   192   96  219 1    
   193   97   98 2    
   194   97   99 am   BACKBONE|DICT|INTERRES
   195   99  100 1    
   196   99  220 1    
   197  100  101 1    
   198  100  102 1    
   199  100  221 1    
   200  101  222 1    
   201  101  223 1    
   202  101  224 1    
   203  102  103 2    
   204  102  104 am   BACKBONE|DICT|INTERRES
   205  104  105 1    
   206  104  225 1    
   207  105  106 1    
   208  105  107 1    
   209  105  226 1    
   210  106  227 1    
   211  106  228 1    
   212  106  229 1    
   213  107  108 2    
   214  107  109 am   BACKBONE|DICT|INTERRES
   215  109  110 1    
   216  109  230 1    
   217  110  111 1    
   218  110  112 1    
   219  110  231 1    
   220  111  232 1    
   221  111  233 1    
   222  111  234 1    
   223  112  113 2    
   224  112  114 am   BACKBONE|DICT|INTERRES
   225  114  115 1    
   226  114  235 1    
   227  115  116 1    
   228  115  117 1    
   229  115  236 1    
   230  116  237 1    
   231  116  238 1    
   232  116  239 1    
   233  117  118 2    
   234  117  119 am   BACKBONE|DICT|INTERRES
   235  119  120 1    
   236  119  240 1    
   237  120  121 1    
   238  120  124 1    
   239  120  241 1    
   240  121  122 am   BACKBONE|DICT|INTERRES
   241  121  123 2    
   242  122  242 1    
   243  122  243 1    
   244  124  125 1    
   245  124  244 1    
   246  124  245 1    
   247  125  126 1    
   248  126  246 1    
   249  126  247 1    
@<TRIPOS>SUBSTRUCTURE
     1 UNK         1 GROUP             0       ****    0 ROOT    
