@<TRIPOS>MOLECULE
3R540
247   249    1
SMALL
USER_CHARGES


@<TRIPOS>ATOM
      1 CA         -1.7639  -15.5512  -45.1950 C.3       0 UNK        -0.1800 
      2 C          -1.5389  -15.0839  -46.6242 C.2       0 UNK         0.5000 
      3 O          -2.2244  -14.1691  -47.0795 O.2       0 UNK        -0.5000 
      4 N          -0.5770  -15.6973  -47.3283 N.am      1 UNK        -0.5000 
      5 CA         -0.1596  -15.2941  -48.6789 C.3       1 UNK         0.1400 
      6 C6          0.5879  -16.4321  -49.4197 C.3       23 UNK        -0.0398 
      7 S7          2.1792  -16.9179  -48.6580 S.3       23 UNK        -0.2404 
      8 C8          3.1144  -17.5045  -50.1030 C.3       23 UNK        -0.0205 
      9 C9          2.6629  -18.8979  -50.5038 C.ar      23 UNK        -0.0193 
     10 C10         1.6449  -19.0684  -51.4444 C.ar      23 UNK        -0.1150 
     11 C11         1.1905  -20.3502  -51.7808 C.ar      23 UNK        -0.0193 
     12 C12         1.7759  -21.4562  -51.1574 C.ar      23 UNK        -0.1150 
     13 C13         2.8045  -21.3052  -50.2227 C.ar      23 UNK        -0.0193 
     14 C14         3.2553  -20.0171  -49.9163 C.ar      23 UNK        -0.1150 
     15 C15         3.4154  -22.5579  -49.5941 C.3       23 UNK        -0.0205 
     16 S16         4.1377  -22.3577  -47.9254 S.3       23 UNK        -0.2404 
     17 C17         2.8071  -21.5796  -46.9465 C.3       23 UNK        -0.0398 
     18 CA          1.6363  -22.5310  -46.5869 C.3       11 UNK         0.1400 
     19 N           1.1499  -22.3093  -45.2209 N.am      11 UNK        -0.5000 
     20 C           0.2212  -23.0522  -44.6009 C.2       10 UNK         0.5000 
     21 O          -0.2925  -24.0582  -45.0899 O.2       10 UNK        -0.5000 
     22 CA         -0.2518  -22.5575  -43.2215 C.3       10 UNK         0.1400 
     23 CB          0.7235  -22.9920  -42.1177 C.3       10 UNK        -0.1800 
     24 N          -0.4341  -21.1055  -43.1790 N.am      10 UNK        -0.5000 
     25 C          -1.3329  -20.4344  -43.9134 C.2       9 UNK         0.5000 
     26 O          -2.1447  -20.9772  -44.6600 O.2       9 UNK        -0.5000 
     27 CA         -1.2866  -18.8992  -43.8513 C.3       9 UNK         0.1400 
     28 CB         -2.0238  -18.3708  -42.6127 C.3       9 UNK        -0.1800 
     29 N           0.0791  -18.3779  -43.8786 N.am      9 UNK        -0.5000 
     30 C           0.9216  -18.5116  -44.9128 C.2       8 UNK         0.5000 
     31 O           0.6170  -19.0459  -45.9787 O.2       8 UNK        -0.5000 
     32 CA          2.3560  -17.9977  -44.7044 C.3       8 UNK         0.1400 
     33 CB          2.4351  -16.4822  -44.9300 C.3       8 UNK        -0.1800 
     34 N           2.8581  -18.3083  -43.3671 N.am      8 UNK        -0.5000 
     35 C           3.1162  -19.5440  -42.9185 C.2       7 UNK         0.5000 
     36 O           2.9942  -20.5609  -43.6005 O.2       7 UNK        -0.5000 
     37 CA          3.5296  -19.6595  -41.4409 C.3       7 UNK         0.1400 
     38 CB          5.0175  -19.3225  -41.2622 C.3       7 UNK        -0.1800 
     39 N           2.7250  -18.7978  -40.5723 N.am      7 UNK        -0.5000 
     40 C           1.4140  -18.9680  -40.3505 C.2       6 UNK         0.5000 
     41 O           0.7542  -19.8869  -40.8340 O.2       6 UNK        -0.5000 
     42 CA          0.7144  -17.9165  -39.4714 C.3       6 UNK         0.1400 
     43 CB          0.8325  -18.2914  -37.9866 C.3       6 UNK        -0.1800 
     44 N           1.2198  -16.5553  -39.6710 N.am      6 UNK        -0.5000 
     45 C           1.1132  -15.8597  -40.8113 C.2       5 UNK         0.5000 
     46 O           0.6294  -16.3240  -41.8449 O.2       5 UNK        -0.5000 
     47 CA          1.6656  -14.4227  -40.7754 C.3       5 UNK         0.1400 
     48 CB          3.0367  -14.3233  -41.4731 C.3       5 UNK        -0.1800 
     49 N           0.7055  -13.4316  -41.2760 N.am      5 UNK        -0.5000 
     50 C           0.3314  -13.1703  -42.5375 C.2       4 UNK         0.5000 
     51 O           0.7985  -13.7173  -43.5370 O.2       4 UNK        -0.5000 
     52 CA         -0.7529  -12.0891  -42.7394 C.3       4 UNK         0.1400 
     53 CB         -1.2601  -11.4170  -41.4422 C.3       4 UNK        -0.1800 
     54 N          -0.3074  -11.0958  -43.7193 N.am      4 UNK        -0.5000 
     55 C           0.7325  -10.2567  -43.6135 C.2       3 UNK         0.5000 
     56 O           1.3898  -10.0927  -42.5839 O.2       3 UNK        -0.5000 
     57 CA          1.1379   -9.5334  -44.9152 C.3       3 UNK         0.1400 
     58 CB          2.0859   -8.3466  -44.6657 C.3       3 UNK        -0.1800 
     59 N           1.7890  -10.4738  -45.8292 N.am      3 UNK        -0.5000 
     60 C           1.1571  -11.4159  -46.5410 C.2       2 UNK         0.5000 
     61 O          -0.0731  -11.4874  -46.6092 O.2       2 UNK        -0.5000 
     62 CA          2.0409  -12.4486  -47.2708 C.3       2 UNK         0.1400 
     63 CB          3.2842  -12.8456  -46.4499 C.3       2 UNK        -0.1800 
     64 N           1.2744  -13.6617  -47.5330 N.am      2 UNK        -0.5000 
     65 C           0.6538  -13.9771  -48.6770 C.2       1 UNK         0.5000 
     66 O           0.7054  -13.2910  -49.6992 O.2       1 UNK        -0.5000 
     67 C           0.4905  -22.4193  -47.6143 C.2       11 UNK         0.5000 
     68 O           0.3075  -23.3249  -48.4288 O.2       11 UNK        -0.5000 
     69 N          -0.2891  -21.3318  -47.5204 N.am      12 UNK        -0.5000 
     70 CA         -1.4670  -21.0857  -48.3480 C.3       12 UNK         0.1400 
     71 CB         -2.0334  -19.6905  -48.0492 C.3       12 UNK        -0.1800 
     72 C          -2.5450  -22.1677  -48.1703 C.2       12 UNK         0.5000 
     73 O          -3.0429  -22.6836  -49.1682 O.2       12 UNK        -0.5000 
     74 N          -2.8533  -22.5305  -46.9172 N.am      13 UNK        -0.5000 
     75 CA         -3.8136  -23.5775  -46.5610 C.3       13 UNK         0.1400 
     76 CB         -3.9985  -23.6194  -45.0374 C.3       13 UNK        -0.1800 
     77 C          -3.4293  -24.9672  -47.0994 C.2       13 UNK         0.5000 
     78 O          -4.3024  -25.6831  -47.5900 O.2       13 UNK        -0.5000 
     79 N          -2.1321  -25.3048  -47.0589 N.am      14 UNK        -0.5000 
     80 CA         -1.5756  -26.5343  -47.6335 C.3       14 UNK         0.1400 
     81 CB         -0.1064  -26.6780  -47.2088 C.3       14 UNK        -0.1800 
     82 C          -1.7104  -26.6080  -49.1691 C.2       14 UNK         0.5000 
     83 O          -1.8197  -27.7055  -49.7165 O.2       14 UNK        -0.5000 
     84 N          -1.7384  -25.4428  -49.8277 N.am      15 UNK        -0.5000 
     85 CA         -1.9848  -25.2779  -51.2609 C.3       15 UNK         0.1400 
     86 CB         -1.1551  -24.0829  -51.7537 C.3       15 UNK        -0.1800 
     87 C          -3.4823  -25.0959  -51.5974 C.2       15 UNK         0.5000 
     88 O          -3.8095  -24.8548  -52.7595 O.2       15 UNK        -0.5000 
     89 N          -4.3619  -25.2049  -50.5894 N.am      16 UNK        -0.5000 
     90 CA         -5.8169  -25.0288  -50.6469 C.3       16 UNK         0.1400 
     91 CB         -6.4815  -26.1117  -51.5228 C.3       16 UNK        -0.1800 
     92 C          -6.2594  -23.5864  -50.9803 C.2       16 UNK         0.5000 
     93 O          -7.3268  -23.3873  -51.5643 O.2       16 UNK        -0.5000 
     94 N          -5.4440  -22.6099  -50.5534 N.am      17 UNK        -0.5000 
     95 CA         -5.6660  -21.1633  -50.5306 C.3       17 UNK         0.1400 
     96 CB         -6.5752  -20.7972  -49.3394 C.3       17 UNK        -0.1800 
     97 C          -6.1519  -20.5989  -51.8761 C.2       17 UNK         0.5000 
     98 O          -5.3383  -20.4120  -52.7821 O.2       17 UNK        -0.5000 
     99 N          -7.4630  -20.3478  -51.9885 N.am      18 UNK        -0.5000 
    100 CA        -8.1462  -19.8181  -53.1692 C.3       18 UNK         0.1400 
    101 CB        -9.6329  -19.6219  -52.8383 C.3       18 UNK        -0.1800 
    102 C         -7.9856  -20.6781  -54.4376 C.2       18 UNK         0.5000 
    103 O         -8.0459  -20.1293  -55.5373 O.2       18 UNK        -0.5000 
    104 N         -7.7344  -21.9860  -54.2759 N.am      19 UNK        -0.5000 
    105 CA        -7.4300  -22.9103  -55.3722 C.3       19 UNK         0.1400 
    106 CB        -7.4221  -24.3461  -54.8321 C.3       19 UNK        -0.1800 
    107 C         -6.0906  -22.5991  -56.0714 C.2       19 UNK         0.5000 
    108 O         -5.9655  -22.8365  -57.2732 O.2       19 UNK        -0.5000 
    109 N         -5.1288  -22.0575  -55.3129 N.am      20 UNK        -0.5000 
    110 CA        -3.8216  -21.6093  -55.7957 C.3       20 UNK         0.1400 
    111 CB        -2.7595  -22.0525  -54.7765 C.3       20 UNK        -0.1800 
    112 C         -3.7707  -20.0813  -56.0025 C.2       20 UNK         0.5000 
    113 O         -2.7528  -19.5737  -56.4732 O.2       20 UNK        -0.5000 
    114 N         -4.8556  -19.3818  -55.6331 N.am      21 UNK        -0.5000 
    115 CA        -5.0029  -17.9248  -55.5389 C.3       21 UNK         0.1400 
    116 CB        -4.8687  -17.2550  -56.9224 C.3       21 UNK        -0.1800 
    117 C         -4.0821  -17.3027  -54.4642 C.2       21 UNK         0.5000 
    118 O         -3.6294  -16.1670  -54.6192 O.2       21 UNK        -0.5000 
    119 N         -3.8328  -18.0623  -53.3905 N.am      22 UNK        -0.5000 
    120 CA        -2.9455  -17.7096  -52.2693 C.3       22 UNK         0.1400 
    121 C         -3.7105  -17.2955  -50.9802 C.2       22 UNK         0.5000 
    122 N         -5.0376  -17.2537  -50.9733 N.am      22 UNK        -0.7600 
    123 O         -3.0870  -16.9870  -49.9698 O.2       22 UNK        -0.5000 
    124 C124       -1.9331  -18.8479  -51.9783 C.3       23 UNK        -0.0398 
    125 S125       -0.8263  -19.1423  -53.3970 S.3       23 UNK        -0.2404 
    126 C126        0.1027  -20.6042  -52.8268 C.3       23 UNK        -0.0205 
    127 H127       -2.5497  -16.3050  -45.1628 H         1 UNK         0.0600 
    128 H128       -2.0688  -14.7145  -44.5669 H         1 UNK         0.0600 
    129 H129       -0.8527  -15.9657  -44.7662 H         1 UNK         0.0600 
    130 H130       -0.0701  -16.4745  -46.9292 H         1 UNK         0.3000 
    131 H131       -1.0678  -15.0923  -49.2514 H         1 UNK         0.0600 
    132 H132       -0.0473  -17.3162  -49.4690 H         1 UNK         0.0800 
    133 H133        0.7599  -16.1377  -50.4561 H         1 UNK         0.0800 
    134 H134        3.0083  -16.8058  -50.9341 H         1 UNK         0.0800 
    135 H135        4.1761  -17.5184  -49.8523 H         1 UNK         0.0800 
    136 H136        1.2146  -18.1927  -51.9060 H         1 UNK         0.1150 
    137 H137        1.4345  -22.4493  -51.4112 H         1 UNK         0.1150 
    138 H138        4.0544  -19.8757  -49.2031 H         1 UNK         0.1150 
    139 H139        2.6732  -23.3554  -49.5512 H         1 UNK         0.0800 
    140 H140        4.2005  -22.9182  -50.2597 H         1 UNK         0.0800 
    141 H141        2.4631  -20.6588  -47.4194 H         1 UNK         0.0800 
    142 H142        3.3019  -21.2456  -46.0358 H         1 UNK         0.0800 
    143 H143        2.0001  -23.5604  -46.6142 H         1 UNK         0.0600 
    144 H144        1.5493  -21.5231  -44.7198 H         1 UNK         0.3000 
    145 H145       -1.2195  -23.0199  -43.0174 H         1 UNK         0.0600 
    146 H146        0.8595  -24.0742  -42.1208 H         1 UNK         0.0600 
    147 H147        1.7059  -22.5367  -42.2434 H         1 UNK         0.0600 
    148 H148        0.3508  -22.7136  -41.1319 H         1 UNK         0.0600 
    149 H149        0.1584  -20.5894  -42.5349 H         1 UNK         0.3000 
    150 H150       -1.8014  -18.5246  -44.7375 H         1 UNK         0.0600 
    151 H151       -2.0216  -17.2810  -42.5863 H         1 UNK         0.0600 
    152 H152       -1.5688  -18.7285  -41.6897 H         1 UNK         0.0600 
    153 H153       -3.0649  -18.6956  -42.6121 H         1 UNK         0.0600 
    154 H154        0.3875  -17.8612  -43.0601 H         1 UNK         0.3000 
    155 H155        2.9979  -18.4891  -45.4388 H         1 UNK         0.0600 
    156 H156        2.0548  -16.2038  -45.9103 H         1 UNK         0.0600 
    157 H157        3.4622  -16.1230  -44.8653 H         1 UNK         0.0600 
    158 H158        1.8436  -15.9433  -44.1932 H         1 UNK         0.0600 
    159 H159        2.9384  -17.5351  -42.7243 H         1 UNK         0.3000 
    160 H160        3.3745  -20.6954  -41.1315 H         1 UNK         0.0600 
    161 H161        5.6396  -19.9603  -41.8916 H         1 UNK         0.0600 
    162 H162        5.3350  -19.4770  -40.2308 H         1 UNK         0.0600 
    163 H163        5.2335  -18.2871  -41.5286 H         1 UNK         0.0600 
    164 H164        3.1927  -18.0181  -40.1343 H         1 UNK         0.3000 
    165 H165       -0.3446  -17.9189  -39.7366 H         1 UNK         0.0600 
    166 H166        0.2620  -17.6057  -37.3598 H         1 UNK         0.0600 
    167 H167        0.4436  -19.2944  -37.8053 H         1 UNK         0.0600 
    168 H168        1.8688  -18.2749  -37.6469 H         1 UNK         0.0600 
    169 H169        1.6388  -16.1133  -38.8654 H         1 UNK         0.3000 
    170 H170        1.8230  -14.1548  -39.7294 H         1 UNK         0.0600 
    171 H171        3.4187  -13.3027  -41.4470 H         1 UNK         0.0600 
    172 H172        3.7708  -14.9585  -40.9763 H         1 UNK         0.0600 
    173 H173        2.9942  -14.6371  -42.5155 H         1 UNK         0.0600 
    174 H174        0.2368  -12.9048  -40.5529 H         1 UNK         0.3000 
    175 H175       -1.6027  -12.6000  -43.1937 H         1 UNK         0.0600 
    176 H176       -0.4630  -10.9165  -40.8918 H         1 UNK         0.0600 
    177 H177       -2.0224  -10.6706  -41.6658 H         1 UNK         0.0600 
    178 H178       -1.7185  -12.1475  -40.7745 H         1 UNK         0.0600 
    179 H179       -0.6851  -11.2190  -44.6532 H         1 UNK         0.3000 
    180 H180        0.2308   -9.1435  -45.3823 H         1 UNK         0.0600 
    181 H181        2.3087   -7.8196  -45.5937 H         1 UNK         0.0600 
    182 H182        3.0319   -8.6674  -44.2277 H         1 UNK         0.0600 
    183 H183        1.6350   -7.6250  -43.9833 H         1 UNK         0.0600 
    184 H184        2.7980  -10.4901  -45.8002 H         1 UNK         0.3000 
    185 H185        2.3712  -12.0021  -48.2106 H         1 UNK         0.0600 
    186 H186        3.0133  -13.1902  -45.4503 H         1 UNK         0.0600 
    187 H187        3.8349  -13.6502  -46.9381 H         1 UNK         0.0600 
    188 H188        3.9770  -12.0110  -46.3398 H         1 UNK         0.0600 
    189 H189        1.1094  -14.2560  -46.7344 H         1 UNK         0.3000 
    190 H190       -0.0521  -20.6119  -46.8423 H         1 UNK         0.3000 
    191 H191       -1.1449  -21.1043  -49.3915 H         1 UNK         0.0600 
    192 H192       -2.3515  -19.5954  -47.0112 H         1 UNK         0.0600 
    193 H193       -2.8985  -19.4779  -48.6780 H         1 UNK         0.0600 
    194 H194       -1.2927  -18.9149  -48.2405 H         1 UNK         0.0600 
    195 H195       -2.4257  -22.0287  -46.1414 H         1 UNK         0.3000 
    196 H196       -4.7713  -23.3062  -47.0103 H         1 UNK         0.0600 
    197 H197       -4.7216  -24.3842  -44.7513 H         1 UNK         0.0600 
    198 H198       -4.3677  -22.6661  -44.6591 H         1 UNK         0.0600 
    199 H199       -3.0624  -23.8432  -44.5255 H         1 UNK         0.0600 
    200 H200       -1.4755  -24.6797  -46.6007 H         1 UNK         0.3000 
    201 H201       -2.1319  -27.3763  -47.2168 H         1 UNK         0.0600 
    202 H202       -0.0113  -26.7078  -46.1232 H         1 UNK         0.0600 
    203 H203        0.5021  -25.8510  -47.5747 H         1 UNK         0.0600 
    204 H204        0.3250  -27.6008  -47.5984 H         1 UNK         0.0600 
    205 H205       -1.6333  -24.5874  -49.2953 H         1 UNK         0.3000 
    206 H206       -1.6422  -26.1669  -51.7939 H         1 UNK         0.0600 
    207 H207       -1.2565  -23.9450  -52.8303 H         1 UNK         0.0600 
    208 H208       -1.4649  -23.1573  -51.2690 H         1 UNK         0.0600 
    209 H209       -0.0962  -24.2329  -51.5447 H         1 UNK         0.0600 
    210 H210       -3.9953  -25.3917  -49.6636 H         1 UNK         0.3000 
    211 H211       -6.1686  -25.1953  -49.6280 H         1 UNK         0.0600 
    212 H212       -6.1475  -26.0678  -52.5578 H         1 UNK         0.0600 
    213 H213       -7.5674  -26.0110  -51.5232 H         1 UNK         0.0600 
    214 H214       -6.2524  -27.1084  -51.1461 H         1 UNK         0.0600 
    215 H215       -4.5638  -22.8903  -50.1242 H         1 UNK         0.3000 
    216 H216       -4.6925  -20.7050  -50.3499 H         1 UNK         0.0600 
    217 H217       -6.7583  -19.7225  -49.2978 H         1 UNK         0.0600 
    218 H218       -6.1047  -21.0775  -48.3966 H         1 UNK         0.0600 
    219 H219       -7.5407  -21.3022  -49.3860 H         1 UNK         0.0600 
    220 H220       -8.0521  -20.5762  -51.2011 H         1 UNK         0.3000 
    221 H221       -7.7122  -18.8400  -53.3852 H         1 UNK         0.0600 
    222 H222      -10.1142  -20.5659  -52.5797 H         1 UNK         0.0600 
    223 H223       -9.7642  -18.9364  -52.0008 H         1 UNK         0.0600 
    224 H224      -10.1712  -19.2004  -53.6884 H         1 UNK         0.0600 
    225 H225       -7.6891  -22.3641  -53.3343 H         1 UNK         0.3000 
    226 H226       -8.2253  -22.8264  -56.1157 H         1 UNK         0.0600 
    227 H227       -8.3568  -24.5892  -54.3267 H         1 UNK         0.0600 
    228 H228       -7.2872  -25.0673  -55.6391 H         1 UNK         0.0600 
    229 H229       -6.6069  -24.4906  -54.1238 H         1 UNK         0.0600 
    230 H230       -5.3210  -21.8760  -54.3346 H         1 UNK         0.3000 
    231 H231       -3.5893  -22.0766  -56.7546 H         1 UNK         0.0600 
    232 H232       -2.9398  -21.6192  -53.7917 H         1 UNK         0.0600 
    233 H233       -2.7514  -23.1368  -54.6684 H         1 UNK         0.0600 
    234 H234       -1.7599  -21.7515  -55.0919 H         1 UNK         0.0600 
    235 H235       -5.6387  -19.9159  -55.2850 H         1 UNK         0.3000 
    236 H236       -6.0229  -17.7512  -55.1937 H         1 UNK         0.0600 
    237 H237       -3.8486  -17.3074  -57.3035 H         1 UNK         0.0600 
    238 H238       -5.5258  -17.7261  -57.6534 H         1 UNK         0.0600 
    239 H239       -5.1429  -16.2007  -56.8730 H         1 UNK         0.0600 
    240 H240       -4.2751  -18.9756  -53.3276 H         1 UNK         0.3000 
    241 H241       -2.3642  -16.8265  -52.5399 H         1 UNK         0.0600 
    242 H242       -5.5605  -17.4545  -51.8091 H         1 UNK         0.3800 
    243 H243       -5.5146  -16.9598  -50.1361 H         1 UNK         0.3800 
    244 H244       -1.3113  -18.6099  -51.1143 H         1 UNK         0.0800 
    245 H245       -2.4592  -19.7732  -51.7366 H         1 UNK         0.0800 
    246 H246       -0.6092  -21.3338  -52.4433 H         1 UNK         0.0800 
    247 H247        0.5723  -21.0629  -53.6977 H         1 UNK         0.0800 
@<TRIPOS>BOND
     1    1    2 1    
     2    1  127 1    
     3    1  128 1    
     4    1  129 1    
     5    2    3 2    
     6    2    4 am   BACKBONE|DICT|INTERRES
     7    4    5 1    
     8    4  130 1    
     9    5    6 1    
    10    5   65 1    
    11    5  131 1    
    12    6    7 1    
    13    6  132 1    
    14    6  133 1    
    15    7    8 1    
    16    8    9 1    
    17    8  134 1    
    18    8  135 1    
    19    9   10 ar   
    20    9   14 ar   
    21   10   11 ar   
    22   10  136 1    
    23   11   12 ar   
    24   11  126 1    
    25   12   13 ar   
    26   12  137 1    
    27   13   14 ar   
    28   13   15 1    
    29   14  138 1    
    30   15   16 1    
    31   15  139 1    
    32   15  140 1    
    33   16   17 1    
    34   17   18 1    
    35   17  141 1    
    36   17  142 1    
    37   18   19 1    
    38   18   67 1    
    39   18  143 1    
    40   19   20 am   BACKBONE|DICT|INTERRES
    41   19  144 1    
    42   20   21 2    
    43   20   22 1    
    44   22   23 1    
    45   22   24 1    
    46   22  145 1    
    47   23  146 1    
    48   23  147 1    
    49   23  148 1    
    50   24   25 am   BACKBONE|DICT|INTERRES
    51   24  149 1    
    52   25   26 2    
    53   25   27 1    
    54   27   28 1    
    55   27   29 1    
    56   27  150 1    
    57   28  151 1    
    58   28  152 1    
    59   28  153 1    
    60   29   30 am   BACKBONE|DICT|INTERRES
    61   29  154 1    
    62   30   31 2    
    63   30   32 1    
    64   32   33 1    
    65   32   34 1    
    66   32  155 1    
    67   33  156 1    
    68   33  157 1    
    69   33  158 1    
    70   34   35 am   BACKBONE|DICT|INTERRES
    71   34  159 1    
    72   35   36 2    
    73   35   37 1    
    74   37   38 1    
    75   37   39 1    
    76   37  160 1    
    77   38  161 1    
    78   38  162 1    
    79   38  163 1    
    80   39   40 am   BACKBONE|DICT|INTERRES
    81   39  164 1    
    82   40   41 2    
    83   40   42 1    
    84   42   43 1    
    85   42   44 1    
    86   42  165 1    
    87   43  166 1    
    88   43  167 1    
    89   43  168 1    
    90   44   45 am   BACKBONE|DICT|INTERRES
    91   44  169 1    
    92   45   46 2    
    93   45   47 1    
    94   47   48 1    
    95   47   49 1    
    96   47  170 1    
    97   48  171 1    
    98   48  172 1    
    99   48  173 1    
   100   49   50 am   BACKBONE|DICT|INTERRES
   101   49  174 1    
   102   50   51 2    
   103   50   52 1    
   104   52   53 1    
   105   52   54 1    
   106   52  175 1    
   107   53  176 1    
   108   53  177 1    
   109   53  178 1    
   110   54   55 am   BACKBONE|DICT|INTERRES
   111   54  179 1    
   112   55   56 2    
   113   55   57 1    
   114   57   58 1    
   115   57   59 1    
   116   57  180 1    
   117   58  181 1    
   118   58  182 1    
   119   58  183 1    
   120   59   60 am   BACKBONE|DICT|INTERRES
   121   59  184 1    
   122   60   61 2    
   123   60   62 1    
   124   62   63 1    
   125   62   64 1    
   126   62  185 1    
   127   63  186 1    
   128   63  187 1    
   129   63  188 1    
   130   64   65 am   BACKBONE|DICT|INTERRES
   131   64  189 1    
   132   65   66 2    
   133   67   68 2    
   134   67   69 am   BACKBONE|DICT|INTERRES
   135   69   70 1    
   136   69  190 1    
   137   70   71 1    
   138   70   72 1    
   139   70  191 1    
   140   71  192 1    
   141   71  193 1    
   142   71  194 1    
   143   72   73 2    
   144   72   74 am   BACKBONE|DICT|INTERRES
   145   74   75 1    
   146   74  195 1    
   147   75   76 1    
   148   75   77 1    
   149   75  196 1    
   150   76  197 1    
   151   76  198 1    
   152   76  199 1    
   153   77   78 2    
   154   77   79 am   BACKBONE|DICT|INTERRES
   155   79   80 1    
   156   79  200 1    
   157   80   81 1    
   158   80   82 1    
   159   80  201 1    
   160   81  202 1    
   161   81  203 1    
   162   81  204 1    
   163   82   83 2    
   164   82   84 am   BACKBONE|DICT|INTERRES
   165   84   85 1    
   166   84  205 1    
   167   85   86 1    
   168   85   87 1    
   169   85  206 1    
   170   86  207 1    
   171   86  208 1    
   172   86  209 1    
   173   87   88 2    
   174   87   89 am   BACKBONE|DICT|INTERRES
   175   89   90 1    
   176   89  210 1    
   177   90   91 1    
   178   90   92 1    
   179   90  211 1    
   180   91  212 1    
   181   91  213 1    
   182   91  214 1    
   183   92   93 2    
   184   92   94 am   BACKBONE|DICT|INTERRES
   185   94   95 1    
   186   94  215 1    
   187   95   96 1    
   188   95   97 1    
   189   95  216 1    
   190   96  217 1    
   191   96  218 1    
   192   96  219 1    
   193   97   98 2    
   194   97   99 am   BACKBONE|DICT|INTERRES
   195   99  100 1    
   196   99  220 1    
   197  100  101 1    
   198  100  102 1    
   199  100  221 1    
   200  101  222 1    
   201  101  223 1    
   202  101  224 1    
   203  102  103 2    
   204  102  104 am   BACKBONE|DICT|INTERRES
   205  104  105 1    
   206  104  225 1    
   207  105  106 1    
   208  105  107 1    
   209  105  226 1    
   210  106  227 1    
   211  106  228 1    
   212  106  229 1    
   213  107  108 2    
   214  107  109 am   BACKBONE|DICT|INTERRES
   215  109  110 1    
   216  109  230 1    
   217  110  111 1    
   218  110  112 1    
   219  110  231 1    
   220  111  232 1    
   221  111  233 1    
   222  111  234 1    
   223  112  113 2    
   224  112  114 am   BACKBONE|DICT|INTERRES
   225  114  115 1    
   226  114  235 1    
   227  115  116 1    
   228  115  117 1    
   229  115  236 1    
   230  116  237 1    
   231  116  238 1    
   232  116  239 1    
   233  117  118 2    
   234  117  119 am   BACKBONE|DICT|INTERRES
   235  119  120 1    
   236  119  240 1    
   237  120  121 1    
   238  120  124 1    
   239  120  241 1    
   240  121  122 am   BACKBONE|DICT|INTERRES
   241  121  123 2    
   242  122  242 1    
   243  122  243 1    
   244  124  125 1    
   245  124  244 1    
   246  124  245 1    
   247  125  126 1    
   248  126  246 1    
   249  126  247 1    
@<TRIPOS>SUBSTRUCTURE
     1 UNK         1 GROUP             0       ****    0 ROOT    
