@<TRIPOS>MOLECULE
3R540
247   249    1
SMALL
USER_CHARGES


@<TRIPOS>ATOM
      1 CA         -4.1136  -10.4301  -48.2549 C.3       0 UNK        -0.1800 
      2 C          -2.8678  -11.2074  -47.8576 C.2       0 UNK         0.5000 
      3 O          -1.8591  -10.6033  -47.4975 O.2       0 UNK        -0.5000 
      4 N          -2.9353  -12.5443  -47.8998 N.am      1 UNK        -0.5000 
      5 CA         -1.8330  -13.4592  -47.5693 C.3       1 UNK         0.1400 
      6 C6         -2.1977  -14.9205  -47.9371 C.3       23 UNK        -0.0398 
      7 S7         -0.7549  -15.9169  -48.4271 S.3       23 UNK        -0.2404 
      8 C8         -1.4502  -17.5852  -48.2600 C.3       23 UNK        -0.0205 
      9 C9         -0.5198  -18.6394  -48.8365 C.ar      23 UNK        -0.0193 
     10 C10        -0.7191  -19.1262  -50.1298 C.ar      23 UNK        -0.1150 
     11 C11         0.1144  -20.1182  -50.6522 C.ar      23 UNK        -0.0193 
     12 C12         1.1396  -20.6430  -49.8594 C.ar      23 UNK        -0.1150 
     13 C13         1.3471  -20.1709  -48.5594 C.ar      23 UNK        -0.0193 
     14 C14         0.5267  -19.1510  -48.0677 C.ar      23 UNK        -0.1150 
     15 C15         2.4585  -20.7718  -47.7013 C.3       23 UNK        -0.0205 
     16 S16         2.0069  -21.0189  -45.9465 S.3       23 UNK        -0.2404 
     17 C17         0.5314  -22.0883  -46.0674 C.3       23 UNK        -0.0398 
     18 CA          0.8338  -23.5816  -45.8038 C.3       11 UNK         0.1400 
     19 N           1.5004  -23.8045  -44.5171 N.am      11 UNK        -0.5000 
     20 C           2.2073  -24.8999  -44.2037 C.2       10 UNK         0.5000 
     21 O           2.3455  -25.8571  -44.9661 O.2       10 UNK        -0.5000 
     22 CA          2.8558  -24.9480  -42.8050 C.3       10 UNK         0.1400 
     23 CB          4.3383  -24.5550  -42.8916 C.3       10 UNK        -0.1800 
     24 N           2.1965  -24.0856  -41.8223 N.am      10 UNK        -0.5000 
     25 C           0.9560  -24.2667  -41.3480 C.2       9 UNK         0.5000 
     26 O           0.2402  -25.2179  -41.6597 O.2       9 UNK        -0.5000 
     27 CA          0.4080  -23.1772  -40.4041 C.3       9 UNK         0.1400 
     28 CB          0.6559  -23.5624  -38.9380 C.3       9 UNK        -0.1800 
     29 N           0.9649  -21.8413  -40.6528 N.am      9 UNK        -0.5000 
     30 C           0.8233  -21.1583  -41.7962 C.2       8 UNK         0.5000 
     31 O           0.2235  -21.5959  -42.7819 O.2       8 UNK        -0.5000 
     32 CA          1.4972  -19.7816  -41.8651 C.3       8 UNK         0.1400 
     33 CB          3.0188  -19.9268  -42.0548 C.3       8 UNK        -0.1800 
     34 N           0.9252  -19.0496  -42.9884 N.am      8 UNK        -0.5000 
     35 C           0.9514  -17.7264  -43.1622 C.2       7 UNK         0.5000 
     36 O           1.4617  -16.9353  -42.3651 O.2       7 UNK        -0.5000 
     37 CA          0.2605  -17.1963  -44.4321 C.3       7 UNK         0.1400 
     38 CB         -1.1371  -16.6506  -44.1047 C.3       7 UNK        -0.1800 
     39 N           1.0488  -16.1487  -45.0793 N.am      7 UNK        -0.5000 
     40 C           2.2474  -16.3339  -45.6530 C.2       6 UNK         0.5000 
     41 O           2.7814  -17.4348  -45.7847 O.2       6 UNK        -0.5000 
     42 CA          2.9902  -15.0783  -46.1425 C.3       6 UNK         0.1400 
     43 CB          2.7011  -14.7997  -47.6248 C.3       6 UNK        -0.1800 
     44 N           2.6252  -13.9003  -45.3617 N.am      6 UNK        -0.5000 
     45 C           3.2112  -13.5227  -44.2189 C.2       5 UNK         0.5000 
     46 O           4.1809  -14.1018  -43.7260 O.2       5 UNK        -0.5000 
     47 CA          2.5984  -12.2939  -43.5132 C.3       5 UNK         0.1400 
     48 CB          3.5941  -11.5654  -42.5870 C.3       5 UNK        -0.1800 
     49 N           1.9614  -11.3571  -44.4453 N.am      5 UNK        -0.5000 
     50 C           2.5403  -10.6455  -45.4256 C.2       4 UNK         0.5000 
     51 O           3.7513  -10.6393  -45.6488 O.2       4 UNK        -0.5000 
     52 CA          1.6066   -9.8182  -46.3343 C.3       4 UNK         0.1400 
     53 CB          1.5051  -10.4734  -47.7213 C.3       4 UNK        -0.1800 
     54 N           0.2545   -9.6673  -45.7944 N.am      4 UNK        -0.5000 
     55 C          -0.0854   -8.8965  -44.7527 C.2       3 UNK         0.5000 
     56 O           0.6944   -8.1384  -44.1758 O.2       3 UNK        -0.5000 
     57 CA         -1.5293   -9.0465  -44.2393 C.3       3 UNK         0.1400 
     58 CB         -2.4906   -8.1410  -45.0247 C.3       3 UNK        -0.1800 
     59 N          -1.9961  -10.4352  -44.3039 N.am      3 UNK        -0.5000 
     60 C          -1.5524  -11.4228  -43.5122 C.2       2 UNK         0.5000 
     61 O          -0.7165  -11.2600  -42.6242 O.2       2 UNK        -0.5000 
     62 CA         -2.1026  -12.8358  -43.7747 C.3       2 UNK         0.1400 
     63 CB         -3.4015  -13.0697  -42.9901 C.3       2 UNK        -0.1800 
     64 N          -2.3427  -13.0909  -45.1950 N.am      2 UNK        -0.5000 
     65 C          -1.3798  -13.3329  -46.0960 C.2       1 UNK         0.5000 
     66 O          -0.1848  -13.4193  -45.8064 O.2       1 UNK        -0.5000 
     67 C          -0.4565  -24.4140  -45.9552 C.2       11 UNK         0.5000 
     68 O          -0.9516  -24.5374  -47.0733 O.2       11 UNK        -0.5000 
     69 N          -0.9725  -24.9863  -44.8551 N.am      12 UNK        -0.5000 
     70 CA         -2.2014  -25.7878  -44.8031 C.3       12 UNK         0.1400 
     71 CB         -2.5407  -26.0797  -43.3336 C.3       12 UNK        -0.1800 
     72 C          -2.1556  -27.0981  -45.6190 C.2       12 UNK         0.5000 
     73 O          -3.2060  -27.6918  -45.8660 O.2       12 UNK        -0.5000 
     74 N          -0.9541  -27.5218  -46.0358 N.am      13 UNK        -0.5000 
     75 CA         -0.7344  -28.6146  -46.9847 C.3       13 UNK         0.1400 
     76 CB          0.7515  -29.0040  -46.9483 C.3       13 UNK        -0.1800 
     77 C          -1.1663  -28.2641  -48.4263 C.2       13 UNK         0.5000 
     78 O          -1.3996  -29.1752  -49.2218 O.2       13 UNK        -0.5000 
     79 N          -1.2631  -26.9656  -48.7358 N.am      14 UNK        -0.5000 
     80 CA         -1.7429  -26.4134  -49.9982 C.3       14 UNK         0.1400 
     81 CB         -0.6964  -25.4033  -50.4947 C.3       14 UNK        -0.1800 
     82 C          -3.1027  -25.7284  -49.7698 C.2       14 UNK         0.5000 
     83 O          -3.5021  -25.5005  -48.6240 O.2       14 UNK        -0.5000 
     84 N          -3.7974  -25.3774  -50.8585 N.am      15 UNK        -0.5000 
     85 CA         -5.0670  -24.6483  -50.8179 C.3       15 UNK         0.1400 
     86 CB         -5.9259  -25.0286  -52.0368 C.3       15 UNK        -0.1800 
     87 C          -4.8066  -23.1340  -50.7139 C.2       15 UNK         0.5000 
     88 O          -5.1575  -22.3772  -51.6194 O.2       15 UNK        -0.5000 
     89 N          -4.1840  -22.7213  -49.6017 N.am      16 UNK        -0.5000 
     90 CA         -3.7326  -21.3558  -49.3114 C.3       16 UNK         0.1400 
     91 CB         -2.9888  -21.3612  -47.9677 C.3       16 UNK        -0.1800 
     92 C          -4.8417  -20.2838  -49.3203 C.2       16 UNK         0.5000 
     93 O          -4.5410  -19.1064  -49.5105 O.2       16 UNK        -0.5000 
     94 N          -6.1035  -20.7034  -49.1515 N.am      17 UNK        -0.5000 
     95 CA         -7.2942  -19.8641  -49.3045 C.3       17 UNK         0.1400 
     96 CB         -8.5125  -20.6316  -48.7691 C.3       17 UNK        -0.1800 
     97 C          -7.5424  -19.4079  -50.7593 C.2       17 UNK         0.5000 
     98 O          -8.1996  -18.3874  -50.9655 O.2       17 UNK        -0.5000 
     99 N          -7.0062  -20.1533  -51.7344 N.am      18 UNK        -0.5000 
    100 CA        -7.0526  -19.8654  -53.1654 C.3       18 UNK         0.1400 
    101 CB        -7.6909  -21.0644  -53.8904 C.3       18 UNK        -0.1800 
    102 C         -5.6243  -19.5714  -53.6570 C.2       18 UNK         0.5000 
    103 O         -5.1671  -20.1741  -54.6299 O.2       18 UNK        -0.5000 
    104 N         -4.9394  -18.6587  -52.9510 N.am      19 UNK        -0.5000 
    105 CA        -3.5114  -18.3284  -53.0485 C.3       19 UNK         0.1400 
    106 CB        -3.2304  -17.1087  -52.1547 C.3       19 UNK        -0.1800 
    107 C         -2.9565  -18.0623  -54.4618 C.2       19 UNK         0.5000 
    108 O         -1.7721  -18.3029  -54.6957 O.2       19 UNK        -0.5000 
    109 N         -3.8109  -17.5793  -55.3742 N.am      20 UNK        -0.5000 
    110 CA        -3.4861  -17.3299  -56.7803 C.3       20 UNK         0.1400 
    111 CB        -4.6570  -16.5815  -57.4355 C.3       20 UNK        -0.1800 
    112 C         -3.1498  -18.6072  -57.5783 C.2       20 UNK         0.5000 
    113 O         -2.4024  -18.5233  -58.5540 O.2       20 UNK        -0.5000 
    114 N         -3.6973  -19.7532  -57.1534 N.am      21 UNK        -0.5000 
    115 CA        -3.4333  -21.0731  -57.7265 C.3       21 UNK         0.1400 
    116 CB        -4.7621  -21.6978  -58.1819 C.3       21 UNK        -0.1800 
    117 C         -2.7332  -21.9833  -56.7048 C.2       21 UNK         0.5000 
    118 O         -1.7992  -22.6993  -57.0659 O.2       21 UNK        -0.5000 
    119 N         -3.1968  -21.9347  -55.4498 N.am      22 UNK        -0.5000 
    120 CA        -2.7322  -22.7205  -54.2971 C.3       22 UNK         0.1400 
    121 C         -3.0374  -24.2499  -54.3609 C.2       22 UNK         0.5000 
    122 N         -3.8191  -24.7343  -55.3178 N.am      22 UNK        -0.7600 
    123 O         -2.6009  -25.0132  -53.5040 O.2       22 UNK        -0.5000 
    124 C124       -1.2605  -22.4029  -53.9031 C.3       23 UNK        -0.0398 
    125 S125       -1.0777  -22.1382  -52.1064 S.3       23 UNK        -0.2404 
    126 C126       -0.0883  -20.6153  -52.0739 C.3       23 UNK        -0.0205 
    127 H127       -3.8910   -9.7718  -49.0945 H         1 UNK         0.0600 
    128 H128       -4.4542   -9.8165  -47.4209 H         1 UNK         0.0600 
    129 H129       -4.9292  -11.0917  -48.5473 H         1 UNK         0.0600 
    130 H130       -3.7954  -12.9797  -48.2014 H         1 UNK         0.3000 
    131 H131       -0.9878  -13.1483  -48.1877 H         1 UNK         0.0600 
    132 H132       -2.8731  -14.9351  -48.7939 H         1 UNK         0.0800 
    133 H133       -2.7391  -15.4146  -47.1281 H         1 UNK         0.0800 
    134 H134       -1.6421  -17.7956  -47.2069 H         1 UNK         0.0800 
    135 H135       -2.4168  -17.6257  -48.7638 H         1 UNK         0.0800 
    136 H136       -1.5259  -18.7341  -50.7286 H         1 UNK         0.1150 
    137 H137        1.7739  -21.4223  -50.2581 H         1 UNK         0.1150 
    138 H138        0.6967  -18.7655  -47.0763 H         1 UNK         0.1150 
    139 H139        2.7779  -21.7317  -48.1100 H         1 UNK         0.0800 
    140 H140        3.3246  -20.1106  -47.7460 H         1 UNK         0.0800 
    141 H141        0.0812  -21.9677  -47.0529 H         1 UNK         0.0800 
    142 H142       -0.2106  -21.7166  -45.3598 H         1 UNK         0.0800 
    143 H143        1.5123  -23.9179  -46.5910 H         1 UNK         0.0600 
    144 H144        1.3929  -23.0662  -43.8321 H         1 UNK         0.3000 
    145 H145        2.7926  -25.9784  -42.4489 H         1 UNK         0.0600 
    146 H146        4.8721  -25.1953  -43.5953 H         1 UNK         0.0600 
    147 H147        4.4619  -23.5243  -43.2269 H         1 UNK         0.0600 
    148 H148        4.8312  -24.6561  -41.9245 H         1 UNK         0.0600 
    149 H149        2.7121  -23.2757  -41.5116 H         1 UNK         0.3000 
    150 H150       -0.6707  -23.1221  -40.5651 H         1 UNK         0.0600 
    151 H151        1.7212  -23.6054  -38.7075 H         1 UNK         0.0600 
    152 H152        0.2318  -24.5423  -38.7144 H         1 UNK         0.0600 
    153 H153        0.1927  -22.8473  -38.2579 H         1 UNK         0.0600 
    154 H154        1.4780  -21.4211  -39.8909 H         1 UNK         0.3000 
    155 H155        1.2858  -19.2454  -40.9377 H         1 UNK         0.0600 
    156 H156        3.2578  -20.4621  -42.9749 H         1 UNK         0.0600 
    157 H157        3.4708  -20.4745  -41.2272 H         1 UNK         0.0600 
    158 H158        3.5076  -18.9535  -42.1008 H         1 UNK         0.0600 
    159 H159        0.4577  -19.6471  -43.6593 H         1 UNK         0.3000 
    160 H160        0.1426  -18.0201  -45.1345 H         1 UNK         0.0600 
    161 H161       -1.0907  -15.8488  -43.3683 H         1 UNK         0.0600 
    162 H162       -1.7734  -17.4347  -43.6927 H         1 UNK         0.0600 
    163 H163       -1.6325  -16.2653  -44.9953 H         1 UNK         0.0600 
    164 H164        0.6842  -15.2060  -45.0325 H         1 UNK         0.3000 
    165 H165        4.0607  -15.2685  -46.0396 H         1 UNK         0.0600 
    166 H166        2.8606  -15.6908  -48.2336 H         1 UNK         0.0600 
    167 H167        1.6734  -14.4724  -47.7781 H         1 UNK         0.0600 
    168 H168        3.3563  -14.0183  -48.0098 H         1 UNK         0.0600 
    169 H169        1.7876  -13.4090  -45.6571 H         1 UNK         0.3000 
    170 H170        1.7950  -12.6828  -42.8860 H         1 UNK         0.0600 
    171 H171        3.9452  -12.2266  -41.7940 H         1 UNK         0.0600 
    172 H172        4.4717  -11.2133  -43.1296 H         1 UNK         0.0600 
    173 H173        3.1275  -10.7050  -42.1073 H         1 UNK         0.0600 
    174 H174        0.9579  -11.2809  -44.3552 H         1 UNK         0.3000 
    175 H175        2.0480   -8.8263  -46.4495 H         1 UNK         0.0600 
    176 H176        0.8880   -9.8782  -48.3947 H         1 UNK         0.0600 
    177 H177        2.4883  -10.5722  -48.1831 H         1 UNK         0.0600 
    178 H178        1.0680  -11.4712  -47.6620 H         1 UNK         0.0600 
    179 H179       -0.4790  -10.1915  -46.2652 H         1 UNK         0.3000 
    180 H180       -1.5456   -8.7301  -43.1941 H         1 UNK         0.0600 
    181 H181       -2.5166   -8.3968  -46.0840 H         1 UNK         0.0600 
    182 H182       -2.1877   -7.0959  -44.9491 H         1 UNK         0.0600 
    183 H183       -3.5066   -8.2131  -44.6366 H         1 UNK         0.0600 
    184 H184       -2.6489  -10.6590  -45.0397 H         1 UNK         0.3000 
    185 H185       -1.3564  -13.5455  -43.4138 H         1 UNK         0.0600 
    186 H186       -3.7547  -14.0940  -43.1114 H         1 UNK         0.0600 
    187 H187       -3.2479  -12.9043  -41.9229 H         1 UNK         0.0600 
    188 H188       -4.1972  -12.3984  -43.3156 H         1 UNK         0.0600 
    189 H189       -3.2984  -13.0298  -45.5145 H         1 UNK         0.3000 
    190 H190       -0.4903  -24.8537  -43.9760 H         1 UNK         0.3000 
    191 H191       -3.0047  -25.1804  -45.2251 H         1 UNK         0.0600 
    192 H192       -1.7747  -26.6960  -42.8615 H         1 UNK         0.0600 
    193 H193       -3.4887  -26.6123  -43.2480 H         1 UNK         0.0600 
    194 H194       -2.6329  -25.1588  -42.7573 H         1 UNK         0.0600 
    195 H195       -0.1415  -26.9838  -45.7697 H         1 UNK         0.3000 
    196 H196       -1.3238  -29.4755  -46.6628 H         1 UNK         0.0600 
    197 H197        0.9557  -29.8338  -47.6262 H         1 UNK         0.0600 
    198 H198        1.0524  -29.3199  -45.9492 H         1 UNK         0.0600 
    199 H199        1.3921  -28.1719  -47.2439 H         1 UNK         0.0600 
    200 H200       -1.1413  -26.2749  -48.0009 H         1 UNK         0.3000 
    201 H201       -1.8679  -27.1984  -50.7465 H         1 UNK         0.0600 
    202 H202       -0.9446  -25.0408  -51.4906 H         1 UNK         0.0600 
    203 H203       -0.6257  -24.5356  -49.8371 H         1 UNK         0.0600 
    204 H204        0.2928  -25.8567  -50.5578 H         1 UNK         0.0600 
    205 H205       -3.3734  -25.4868  -51.7766 H         1 UNK         0.3000 
    206 H206       -5.6295  -24.9433  -49.9295 H         1 UNK         0.0600 
    207 H207       -6.0930  -26.1048  -52.0817 H         1 UNK         0.0600 
    208 H208       -6.9044  -24.5495  -51.9850 H         1 UNK         0.0600 
    209 H209       -5.4669  -24.7218  -52.9745 H         1 UNK         0.0600 
    210 H210       -3.9172  -23.4345  -48.9318 H         1 UNK         0.3000 
    211 H211       -3.0229  -21.0765  -50.0915 H         1 UNK         0.0600 
    212 H212       -3.6338  -21.6886  -47.1516 H         1 UNK         0.0600 
    213 H213       -2.6185  -20.3670  -47.7166 H         1 UNK         0.0600 
    214 H214       -2.1275  -22.0281  -48.0038 H         1 UNK         0.0600 
    215 H215       -6.2589  -21.6876  -48.9930 H         1 UNK         0.3000 
    216 H216       -7.1583  -18.9670  -48.6969 H         1 UNK         0.0600 
    217 H217       -9.4172  -20.0261  -48.8384 H         1 UNK         0.0600 
    218 H218       -8.3817  -20.8984  -47.7202 H         1 UNK         0.0600 
    219 H219       -8.6883  -21.5497  -49.3312 H         1 UNK         0.0600 
    220 H220       -6.4250  -20.9494  -51.4832 H         1 UNK         0.3000 
    221 H221       -7.6562  -18.9791  -53.3692 H         1 UNK         0.0600 
    222 H222       -7.1078  -21.9759  -53.7492 H         1 UNK         0.0600 
    223 H223       -8.6998  -21.2533  -53.5239 H         1 UNK         0.0600 
    224 H224       -7.7636  -20.8815  -54.9632 H         1 UNK         0.0600 
    225 H225       -5.4198  -18.2389  -52.1680 H         1 UNK         0.3000 
    226 H226       -2.9683  -19.1861  -52.6479 H         1 UNK         0.0600 
    227 H227       -2.1715  -16.8460  -52.1661 H         1 UNK         0.0600 
    228 H228       -3.7874  -16.2323  -52.4881 H         1 UNK         0.0600 
    229 H229       -3.5023  -17.2992  -51.1174 H         1 UNK         0.0600 
    230 H230       -4.7658  -17.4148  -55.0921 H         1 UNK         0.3000 
    231 H231       -2.6066  -16.6835  -56.8110 H         1 UNK         0.0600 
    232 H232       -5.5741  -17.1717  -57.4130 H         1 UNK         0.0600 
    233 H233       -4.4394  -16.3528  -58.4797 H         1 UNK         0.0600 
    234 H234       -4.8529  -15.6350  -56.9313 H         1 UNK         0.0600 
    235 H235       -4.2764  -19.7297  -56.3199 H         1 UNK         0.3000 
    236 H236       -2.7796  -20.9951  -58.5976 H         1 UNK         0.0600 
    237 H237       -4.6042  -22.6922  -58.6014 H         1 UNK         0.0600 
    238 H238       -5.4683  -21.7946  -57.3560 H         1 UNK         0.0600 
    239 H239       -5.2347  -21.0909  -58.9543 H         1 UNK         0.0600 
    240 H240       -3.9807  -21.3189  -55.2418 H         1 UNK         0.3000 
    241 H241       -3.3765  -22.3608  -53.4963 H         1 UNK         0.0600 
    242 H242       -4.0164  -25.7220  -55.3420 H         1 UNK         0.3800 
    243 H243       -4.2037  -24.1274  -56.0224 H         1 UNK         0.3800 
    244 H244       -0.9192  -21.5021  -54.4148 H         1 UNK         0.0800 
    245 H245       -0.5775  -23.1916  -54.2229 H         1 UNK         0.0800 
    246 H246        0.8791  -20.8029  -52.5420 H         1 UNK         0.0800 
    247 H247       -0.5766  -19.8460  -52.6735 H         1 UNK         0.0800 
@<TRIPOS>BOND
     1    1    2 1    
     2    1  127 1    
     3    1  128 1    
     4    1  129 1    
     5    2    3 2    
     6    2    4 am   BACKBONE|DICT|INTERRES
     7    4    5 1    
     8    4  130 1    
     9    5    6 1    
    10    5   65 1    
    11    5  131 1    
    12    6    7 1    
    13    6  132 1    
    14    6  133 1    
    15    7    8 1    
    16    8    9 1    
    17    8  134 1    
    18    8  135 1    
    19    9   10 ar   
    20    9   14 ar   
    21   10   11 ar   
    22   10  136 1    
    23   11   12 ar   
    24   11  126 1    
    25   12   13 ar   
    26   12  137 1    
    27   13   14 ar   
    28   13   15 1    
    29   14  138 1    
    30   15   16 1    
    31   15  139 1    
    32   15  140 1    
    33   16   17 1    
    34   17   18 1    
    35   17  141 1    
    36   17  142 1    
    37   18   19 1    
    38   18   67 1    
    39   18  143 1    
    40   19   20 am   BACKBONE|DICT|INTERRES
    41   19  144 1    
    42   20   21 2    
    43   20   22 1    
    44   22   23 1    
    45   22   24 1    
    46   22  145 1    
    47   23  146 1    
    48   23  147 1    
    49   23  148 1    
    50   24   25 am   BACKBONE|DICT|INTERRES
    51   24  149 1    
    52   25   26 2    
    53   25   27 1    
    54   27   28 1    
    55   27   29 1    
    56   27  150 1    
    57   28  151 1    
    58   28  152 1    
    59   28  153 1    
    60   29   30 am   BACKBONE|DICT|INTERRES
    61   29  154 1    
    62   30   31 2    
    63   30   32 1    
    64   32   33 1    
    65   32   34 1    
    66   32  155 1    
    67   33  156 1    
    68   33  157 1    
    69   33  158 1    
    70   34   35 am   BACKBONE|DICT|INTERRES
    71   34  159 1    
    72   35   36 2    
    73   35   37 1    
    74   37   38 1    
    75   37   39 1    
    76   37  160 1    
    77   38  161 1    
    78   38  162 1    
    79   38  163 1    
    80   39   40 am   BACKBONE|DICT|INTERRES
    81   39  164 1    
    82   40   41 2    
    83   40   42 1    
    84   42   43 1    
    85   42   44 1    
    86   42  165 1    
    87   43  166 1    
    88   43  167 1    
    89   43  168 1    
    90   44   45 am   BACKBONE|DICT|INTERRES
    91   44  169 1    
    92   45   46 2    
    93   45   47 1    
    94   47   48 1    
    95   47   49 1    
    96   47  170 1    
    97   48  171 1    
    98   48  172 1    
    99   48  173 1    
   100   49   50 am   BACKBONE|DICT|INTERRES
   101   49  174 1    
   102   50   51 2    
   103   50   52 1    
   104   52   53 1    
   105   52   54 1    
   106   52  175 1    
   107   53  176 1    
   108   53  177 1    
   109   53  178 1    
   110   54   55 am   BACKBONE|DICT|INTERRES
   111   54  179 1    
   112   55   56 2    
   113   55   57 1    
   114   57   58 1    
   115   57   59 1    
   116   57  180 1    
   117   58  181 1    
   118   58  182 1    
   119   58  183 1    
   120   59   60 am   BACKBONE|DICT|INTERRES
   121   59  184 1    
   122   60   61 2    
   123   60   62 1    
   124   62   63 1    
   125   62   64 1    
   126   62  185 1    
   127   63  186 1    
   128   63  187 1    
   129   63  188 1    
   130   64   65 am   BACKBONE|DICT|INTERRES
   131   64  189 1    
   132   65   66 2    
   133   67   68 2    
   134   67   69 am   BACKBONE|DICT|INTERRES
   135   69   70 1    
   136   69  190 1    
   137   70   71 1    
   138   70   72 1    
   139   70  191 1    
   140   71  192 1    
   141   71  193 1    
   142   71  194 1    
   143   72   73 2    
   144   72   74 am   BACKBONE|DICT|INTERRES
   145   74   75 1    
   146   74  195 1    
   147   75   76 1    
   148   75   77 1    
   149   75  196 1    
   150   76  197 1    
   151   76  198 1    
   152   76  199 1    
   153   77   78 2    
   154   77   79 am   BACKBONE|DICT|INTERRES
   155   79   80 1    
   156   79  200 1    
   157   80   81 1    
   158   80   82 1    
   159   80  201 1    
   160   81  202 1    
   161   81  203 1    
   162   81  204 1    
   163   82   83 2    
   164   82   84 am   BACKBONE|DICT|INTERRES
   165   84   85 1    
   166   84  205 1    
   167   85   86 1    
   168   85   87 1    
   169   85  206 1    
   170   86  207 1    
   171   86  208 1    
   172   86  209 1    
   173   87   88 2    
   174   87   89 am   BACKBONE|DICT|INTERRES
   175   89   90 1    
   176   89  210 1    
   177   90   91 1    
   178   90   92 1    
   179   90  211 1    
   180   91  212 1    
   181   91  213 1    
   182   91  214 1    
   183   92   93 2    
   184   92   94 am   BACKBONE|DICT|INTERRES
   185   94   95 1    
   186   94  215 1    
   187   95   96 1    
   188   95   97 1    
   189   95  216 1    
   190   96  217 1    
   191   96  218 1    
   192   96  219 1    
   193   97   98 2    
   194   97   99 am   BACKBONE|DICT|INTERRES
   195   99  100 1    
   196   99  220 1    
   197  100  101 1    
   198  100  102 1    
   199  100  221 1    
   200  101  222 1    
   201  101  223 1    
   202  101  224 1    
   203  102  103 2    
   204  102  104 am   BACKBONE|DICT|INTERRES
   205  104  105 1    
   206  104  225 1    
   207  105  106 1    
   208  105  107 1    
   209  105  226 1    
   210  106  227 1    
   211  106  228 1    
   212  106  229 1    
   213  107  108 2    
   214  107  109 am   BACKBONE|DICT|INTERRES
   215  109  110 1    
   216  109  230 1    
   217  110  111 1    
   218  110  112 1    
   219  110  231 1    
   220  111  232 1    
   221  111  233 1    
   222  111  234 1    
   223  112  113 2    
   224  112  114 am   BACKBONE|DICT|INTERRES
   225  114  115 1    
   226  114  235 1    
   227  115  116 1    
   228  115  117 1    
   229  115  236 1    
   230  116  237 1    
   231  116  238 1    
   232  116  239 1    
   233  117  118 2    
   234  117  119 am   BACKBONE|DICT|INTERRES
   235  119  120 1    
   236  119  240 1    
   237  120  121 1    
   238  120  124 1    
   239  120  241 1    
   240  121  122 am   BACKBONE|DICT|INTERRES
   241  121  123 2    
   242  122  242 1    
   243  122  243 1    
   244  124  125 1    
   245  124  244 1    
   246  124  245 1    
   247  125  126 1    
   248  126  246 1    
   249  126  247 1    
@<TRIPOS>SUBSTRUCTURE
     1 UNK         1 GROUP             0       ****    0 ROOT    
