@<TRIPOS>MOLECULE
3R540
247   249    1
SMALL
USER_CHARGES


@<TRIPOS>ATOM
      1 CA         -4.4433  -16.5757  -43.0968 C.3       0 UNK        -0.1800 
      2 C          -4.2696  -15.2652  -43.8520 C.2       0 UNK         0.5000 
      3 O          -4.7218  -14.2253  -43.3738 O.2       0 UNK        -0.5000 
      4 N          -3.6296  -15.3072  -45.0290 N.am      1 UNK        -0.5000 
      5 CA         -3.4203  -14.1474  -45.9064 C.3       1 UNK         0.1400 
      6 C6         -3.0260  -14.5742  -47.3446 C.3       23 UNK        -0.0398 
      7 S7         -1.4309  -15.4578  -47.4328 S.3       23 UNK        -0.2404 
      8 C8         -1.1239  -15.5349  -49.2230 C.3       23 UNK        -0.0205 
      9 C9         -1.3133  -16.9452  -49.7593 C.ar      23 UNK        -0.0193 
     10 C10        -2.5757  -17.3755  -50.1770 C.ar      23 UNK        -0.1150 
     11 C11        -2.7492  -18.6665  -50.6818 C.ar      23 UNK        -0.0193 
     12 C12        -1.6499  -19.5242  -50.7753 C.ar      23 UNK        -0.1150 
     13 C13        -0.3790  -19.1041  -50.3757 C.ar      23 UNK        -0.0193 
     14 C14        -0.2203  -17.8141  -49.8577 C.ar      23 UNK        -0.1150 
     15 C15         0.8289  -20.0185  -50.5573 C.3       23 UNK        -0.0205 
     16 S16         0.6448  -21.6460  -49.7542 S.3       23 UNK        -0.2404 
     17 C17         0.7542  -21.1795  -47.9957 C.3       23 UNK        -0.0398 
     18 CA         -0.2323  -21.9334  -47.0711 C.3       11 UNK         0.1400 
     19 N           0.0546  -21.6525  -45.6614 N.am      11 UNK        -0.5000 
     20 C          -0.5200  -22.2572  -44.6125 C.2       10 UNK         0.5000 
     21 O          -1.3174  -23.1886  -44.7117 O.2       10 UNK        -0.5000 
     22 CA         -0.1851  -21.6923  -43.2182 C.3       10 UNK         0.1400 
     23 CB          1.1465  -22.2557  -42.7003 C.3       10 UNK        -0.1800 
     24 N          -0.1414  -20.2288  -43.1996 N.am      10 UNK        -0.5000 
     25 C          -1.1929  -19.4371  -43.4519 C.2       9 UNK         0.5000 
     26 O          -2.3300  -19.8560  -43.6589 O.2       9 UNK        -0.5000 
     27 CA         -0.9243  -17.9260  -43.5524 C.3       9 UNK         0.1400 
     28 CB         -0.9235  -17.2657  -42.1677 C.3       9 UNK        -0.1800 
     29 N           0.3126  -17.6137  -44.2687 N.am      9 UNK        -0.5000 
     30 C           0.5159  -17.9067  -45.5621 C.2       8 UNK         0.5000 
     31 O          -0.3345  -18.4322  -46.2776 O.2       8 UNK        -0.5000 
     32 CA          1.9198  -17.6284  -46.1292 C.3       8 UNK         0.1400 
     33 CB          2.0976  -16.1438  -46.4699 C.3       8 UNK        -0.1800 
     34 N           2.9682  -18.0309  -45.1949 N.am      8 UNK        -0.5000 
     35 C           3.2327  -19.2985  -44.8504 C.2       7 UNK         0.5000 
     36 O           2.6579  -20.2734  -45.3336 O.2       7 UNK        -0.5000 
     37 CA          4.2757  -19.4963  -43.7359 C.3       7 UNK         0.1400 
     38 CB          5.6969  -19.5111  -44.3167 C.3       7 UNK        -0.1800 
     39 N           4.1834  -18.4613  -42.7039 N.am      7 UNK        -0.5000 
     40 C           3.1354  -18.2829  -41.8914 C.2       6 UNK         0.5000 
     41 O           2.1439  -19.0114  -41.9001 O.2       6 UNK        -0.5000 
     42 CA          3.1665  -17.0661  -40.9501 C.3       6 UNK         0.1400 
     43 CB          4.0641  -17.3230  -39.7257 C.3       6 UNK        -0.1800 
     44 N           3.5010  -15.7985  -41.6119 N.am      6 UNK        -0.5000 
     45 C           4.6646  -15.3951  -42.1450 C.2       5 UNK         0.5000 
     46 O           5.6654  -16.1062  -42.2409 O.2       5 UNK        -0.5000 
     47 CA          4.7167  -13.9428  -42.6524 C.3       5 UNK         0.1400 
     48 CB          4.3235  -13.8703  -44.1354 C.3       5 UNK        -0.1800 
     49 N           3.8410  -13.0664  -41.8715 N.am      5 UNK        -0.5000 
     50 C           4.1648  -12.5497  -40.6763 C.2       4 UNK         0.5000 
     51 O           5.2725  -12.6788  -40.1537 O.2       4 UNK        -0.5000 
     52 CA          3.0654  -11.7675  -39.9304 C.3       4 UNK         0.1400 
     53 CB          3.1154  -10.2787  -40.3061 C.3       4 UNK        -0.1800 
     54 N           1.7201  -12.2821  -40.1924 N.am      4 UNK        -0.5000 
     55 C           1.2547  -13.4646  -39.7639 C.2       3 UNK         0.5000 
     56 O           1.8890  -14.2256  -39.0340 O.2       3 UNK        -0.5000 
     57 CA         -0.1403  -13.8883  -40.2669 C.3       3 UNK         0.1400 
     58 CB         -1.2194  -13.5382  -39.2321 C.3       3 UNK        -0.1800 
     59 N          -0.5071  -13.3005  -41.5608 N.am      3 UNK        -0.5000 
     60 C           0.1420  -13.5159  -42.7118 C.2       2 UNK         0.5000 
     61 O           1.1084  -14.2753  -42.8160 O.2       2 UNK        -0.5000 
     62 CA         -0.3963  -12.7711  -43.9384 C.3       2 UNK         0.1400 
     63 CB          0.7036  -12.4623  -44.9721 C.3       2 UNK        -0.1800 
     64 N          -1.4492  -13.5775  -44.5421 N.am      2 UNK        -0.5000 
     65 C          -2.4318  -13.1093  -45.3230 C.2       1 UNK         0.5000 
     66 O          -2.5809  -11.9160  -45.5913 O.2       1 UNK        -0.5000 
     67 C          -1.7132  -21.6554  -47.4144 C.2       11 UNK         0.5000 
     68 O          -2.3761  -22.5219  -47.9840 O.2       11 UNK        -0.5000 
     69 N          -2.2212  -20.4853  -47.0031 N.am      12 UNK        -0.5000 
     70 CA         -3.6200  -20.0898  -47.1645 C.3       12 UNK         0.1400 
     71 CB         -3.7841  -18.6185  -46.7593 C.3       12 UNK        -0.1800 
     72 C          -4.5979  -20.9932  -46.3875 C.2       12 UNK         0.5000 
     73 O          -5.6364  -21.3693  -46.9314 O.2       12 UNK        -0.5000 
     74 N          -4.2396  -21.3610  -45.1485 N.am      13 UNK        -0.5000 
     75 CA         -5.0024  -22.2733  -44.2900 C.3       13 UNK         0.1400 
     76 CB         -4.3991  -22.2741  -42.8778 C.3       13 UNK        -0.1800 
     77 C          -5.0873  -23.7096  -44.8438 C.2       13 UNK         0.5000 
     78 O          -6.0950  -24.3837  -44.6296 O.2       13 UNK        -0.5000 
     79 N          -4.0533  -24.1362  -45.5806 N.am      14 UNK        -0.5000 
     80 CA         -3.9926  -25.4049  -46.3107 C.3       14 UNK         0.1400 
     81 CB         -2.5160  -25.7902  -46.5040 C.3       14 UNK        -0.1800 
     82 C          -4.7387  -25.3716  -47.6641 C.2       14 UNK         0.5000 
     83 O          -4.6745  -26.3524  -48.4079 O.2       14 UNK        -0.5000 
     84 N          -5.4147  -24.2548  -47.9719 N.am      15 UNK        -0.5000 
     85 CA         -6.1169  -23.9087  -49.2089 C.3       15 UNK         0.1400 
     86 CB         -7.2066  -24.9328  -49.5852 C.3       15 UNK        -0.1800 
     87 C          -5.1411  -23.6319  -50.3618 C.2       15 UNK         0.5000 
     88 O          -5.0865  -22.4988  -50.8317 O.2       15 UNK        -0.5000 
     89 N          -4.3954  -24.6624  -50.7865 N.am      16 UNK        -0.5000 
     90 CA         -3.2517  -24.6742  -51.7140 C.3       16 UNK         0.1400 
     91 CB         -2.0556  -23.9558  -51.0631 C.3       16 UNK        -0.1800 
     92 C          -3.4754  -24.1390  -53.1476 C.2       16 UNK         0.5000 
     93 O          -2.6049  -24.3483  -53.9935 O.2       16 UNK        -0.5000 
     94 N          -4.6013  -23.4630  -53.4077 N.am      17 UNK        -0.5000 
     95 CA         -4.9141  -22.6564  -54.5919 C.3       17 UNK         0.1400 
     96 CB         -6.3546  -22.1374  -54.4738 C.3       17 UNK        -0.1800 
     97 C          -4.6969  -23.3254  -55.9583 C.2       17 UNK         0.5000 
     98 O          -4.3423  -22.6289  -56.9096 O.2       17 UNK        -0.5000 
     99 N          -4.8664  -24.6521  -56.0244 N.am      18 UNK        -0.5000 
    100 CA        -4.6080  -25.4716  -57.2108 C.3       18 UNK         0.1400 
    101 CB        -5.0656  -26.9111  -56.9307 C.3       18 UNK        -0.1800 
    102 C         -3.1349  -25.4542  -57.6717 C.2       18 UNK         0.5000 
    103 O         -2.8777  -25.6360  -58.8627 O.2       18 UNK        -0.5000 
    104 N         -2.2068  -25.2292  -56.7326 N.am      19 UNK        -0.5000 
    105 CA        -0.7743  -25.0885  -56.9849 C.3       19 UNK         0.1400 
    106 CB        -0.0090  -26.0567  -56.0688 C.3       19 UNK        -0.1800 
    107 C         -0.3041  -23.6439  -56.7460 C.2       19 UNK         0.5000 
    108 O          0.5299  -23.1485  -57.5048 O.2       19 UNK        -0.5000 
    109 N         -0.8264  -22.9990  -55.6930 N.am      20 UNK        -0.5000 
    110 CA        -0.4056  -21.6727  -55.2416 C.3       20 UNK         0.1400 
    111 CB        -0.8953  -21.4435  -53.8040 C.3       20 UNK        -0.1800 
    112 C         -0.8672  -20.5199  -56.1492 C.2       20 UNK         0.5000 
    113 O         -0.1493  -19.5236  -56.2413 O.2       20 UNK        -0.5000 
    114 N         -2.0421  -20.6676  -56.7856 N.am      21 UNK        -0.5000 
    115 CA        -2.7172  -19.6707  -57.6274 C.3       21 UNK         0.1400 
    116 CB        -1.9619  -19.4902  -58.9604 C.3       21 UNK        -0.1800 
    117 C         -2.9480  -18.3419  -56.8736 C.2       21 UNK         0.5000 
    118 O         -2.3981  -17.3055  -57.2514 O.2       21 UNK        -0.5000 
    119 N         -3.7216  -18.4257  -55.7828 N.am      22 UNK        -0.5000 
    120 CA        -3.9386  -17.3588  -54.7852 C.3       22 UNK         0.1400 
    121 C         -4.5684  -16.0366  -55.3189 C.2       22 UNK         0.5000 
    122 N         -5.2340  -16.0319  -56.4673 N.am      22 UNK        -0.7600 
    123 O         -4.4551  -14.9982  -54.6734 O.2       22 UNK        -0.5000 
    124 C124       -4.7609  -17.8608  -53.5669 C.3       23 UNK        -0.0398 
    125 S125       -4.2069  -19.4668  -52.8992 S.3       23 UNK        -0.2404 
    126 C126       -4.1224  -19.1546  -51.1087 C.3       23 UNK        -0.0205 
    127 H127       -4.0636  -17.4293  -43.6561 H         1 UNK         0.0600 
    128 H128       -5.5000  -16.7522  -42.8965 H         1 UNK         0.0600 
    129 H129       -3.9216  -16.5292  -42.1415 H         1 UNK         0.0600 
    130 H130       -3.2786  -16.1838  -45.3853 H         1 UNK         0.3000 
    131 H131       -4.3828  -13.6371  -45.9856 H         1 UNK         0.0600 
    132 H132       -3.7991  -15.2187  -47.7652 H         1 UNK         0.0800 
    133 H133       -2.9814  -13.6976  -47.9933 H         1 UNK         0.0800 
    134 H134       -0.1038  -15.1994  -49.4154 H         1 UNK         0.0800 
    135 H135       -1.7738  -14.8395  -49.7557 H         1 UNK         0.0800 
    136 H136       -3.4216  -16.7073  -50.1006 H         1 UNK         0.1150 
    137 H137       -1.7853  -20.5202  -51.1717 H         1 UNK         0.1150 
    138 H138        0.7574  -17.4771  -49.5439 H         1 UNK         0.1150 
    139 H139        1.7366  -19.5420  -50.1837 H         1 UNK         0.0800 
    140 H140        0.9874  -20.1748  -51.6245 H         1 UNK         0.0800 
    141 H141        0.6160  -20.1041  -47.9017 H         1 UNK         0.0800 
    142 H142        1.7784  -21.3762  -47.6767 H         1 UNK         0.0800 
    143 H143       -0.0662  -23.0032  -47.2153 H         1 UNK         0.0600 
    144 H144        0.7409  -20.9278  -45.4806 H         1 UNK         0.3000 
    145 H145       -0.9741  -22.0087  -42.5332 H         1 UNK         0.0600 
    146 H146        1.3596  -21.8993  -41.6923 H         1 UNK         0.0600 
    147 H147        1.1196  -23.3453  -42.6625 H         1 UNK         0.0600 
    148 H148        1.9823  -21.9702  -43.3386 H         1 UNK         0.0600 
    149 H149        0.7497  -19.7983  -42.9693 H         1 UNK         0.3000 
    150 H150       -1.7448  -17.4940  -44.1262 H         1 UNK         0.0600 
    151 H151       -0.0402  -17.5300  -41.5883 H         1 UNK         0.0600 
    152 H152       -1.7946  -17.5694  -41.5863 H         1 UNK         0.0600 
    153 H153       -0.9600  -16.1824  -42.2580 H         1 UNK         0.0600 
    154 H154        1.0624  -17.2022  -43.7345 H         1 UNK         0.3000 
    155 H155        2.0391  -18.2077  -47.0471 H         1 UNK         0.0600 
    156 H156        1.8789  -15.5115  -45.6106 H         1 UNK         0.0600 
    157 H157        1.4303  -15.8474  -47.2781 H         1 UNK         0.0600 
    158 H158        3.1141  -15.9281  -46.7991 H         1 UNK         0.0600 
    159 H159        3.4888  -17.2940  -44.7443 H         1 UNK         0.3000 
    160 H160        4.0846  -20.4634  -43.2662 H         1 UNK         0.0600 
    161 H161        5.9558  -18.5555  -44.7745 H         1 UNK         0.0600 
    162 H162        5.7980  -20.2817  -45.0821 H         1 UNK         0.0600 
    163 H163        6.4355  -19.7226  -43.5433 H         1 UNK         0.0600 
    164 H164        4.9473  -17.7932  -42.6358 H         1 UNK         0.3000 
    165 H165        2.1496  -16.9348  -40.5773 H         1 UNK         0.0600 
    166 H166        4.0256  -16.4843  -39.0302 H         1 UNK         0.0600 
    167 H167        5.1062  -17.4802  -40.0047 H         1 UNK         0.0600 
    168 H168        3.7354  -18.2104  -39.1835 H         1 UNK         0.0600 
    169 H169        2.7305  -15.1442  -41.6767 H         1 UNK         0.3000 
    170 H170        5.7475  -13.5938  -42.5602 H         1 UNK         0.0600 
    171 H171        4.9693  -14.5049  -44.7436 H         1 UNK         0.0600 
    172 H172        3.2973  -14.1962  -44.2967 H         1 UNK         0.0600 
    173 H173        4.4139  -12.8534  -44.5173 H         1 UNK         0.0600 
    174 H174        2.8996  -12.9458  -42.2175 H         1 UNK         0.3000 
    175 H175        3.2624  -11.8569  -38.8599 H         1 UNK         0.0600 
    176 H176        2.9068  -10.1224  -41.3653 H         1 UNK         0.0600 
    177 H177        2.3903   -9.7021  -39.7315 H         1 UNK         0.0600 
    178 H178        4.1003   -9.8573  -40.1000 H         1 UNK         0.0600 
    179 H179        1.1204  -11.7129  -40.7708 H         1 UNK         0.3000 
    180 H180       -0.1213  -14.9733  -40.3824 H         1 UNK         0.0600 
    181 H181       -1.3049  -12.4605  -39.0882 H         1 UNK         0.0600 
    182 H182       -0.9899  -13.9820  -38.2623 H         1 UNK         0.0600 
    183 H183       -2.1955  -13.9160  -39.5373 H         1 UNK         0.0600 
    184 H184       -1.3091  -12.6863  -41.5615 H         1 UNK         0.3000 
    185 H185       -0.8162  -11.8234  -43.5944 H         1 UNK         0.0600 
    186 H186        0.3266  -11.8206  -45.7684 H         1 UNK         0.0600 
    187 H187        1.5449  -11.9447  -44.5097 H         1 UNK         0.0600 
    188 H188        1.0879  -13.3696  -45.4357 H         1 UNK         0.0600 
    189 H189       -1.4026  -14.5705  -44.3643 H         1 UNK         0.3000 
    190 H190       -1.5971  -19.8011  -46.5819 H         1 UNK         0.3000 
    191 H191       -3.8644  -20.1782  -48.2241 H         1 UNK         0.0600 
    192 H192       -4.8141  -18.2856  -46.8918 H         1 UNK         0.0600 
    193 H193       -3.1505  -17.9743  -47.3680 H         1 UNK         0.0600 
    194 H194       -3.5144  -18.4617  -45.7162 H         1 UNK         0.0600 
    195 H195       -3.3983  -20.9572  -44.7434 H         1 UNK         0.3000 
    196 H196       -6.0218  -21.8882  -44.2221 H         1 UNK         0.0600 
    197 H197       -3.3673  -22.6255  -42.8830 H         1 UNK         0.0600 
    198 H198       -4.4110  -21.2745  -42.4430 H         1 UNK         0.0600 
    199 H199       -4.9649  -22.9254  -42.2106 H         1 UNK         0.0600 
    200 H200       -3.2437  -23.5321  -45.6693 H         1 UNK         0.3000 
    201 H201       -4.4651  -26.1801  -45.7044 H         1 UNK         0.0600 
    202 H202       -1.9898  -25.0655  -47.1259 H         1 UNK         0.0600 
    203 H203       -2.4211  -26.7650  -46.9839 H         1 UNK         0.0600 
    204 H204       -1.9959  -25.8495  -45.5478 H         1 UNK         0.0600 
    205 H205       -5.3527  -23.4880  -47.3130 H         1 UNK         0.3000 
    206 H206       -6.6265  -22.9672  -48.9976 H         1 UNK         0.0600 
    207 H207       -7.9075  -25.0785  -48.7632 H         1 UNK         0.0600 
    208 H208       -7.7814  -24.5835  -50.4436 H         1 UNK         0.0600 
    209 H209       -6.7948  -25.9066  -49.8492 H         1 UNK         0.0600 
    210 H210       -4.5390  -25.5328  -50.2847 H         1 UNK         0.3000 
    211 H211       -2.9803  -25.7243  -51.8301 H         1 UNK         0.0600 
    212 H212       -1.1571  -24.0455  -51.6744 H         1 UNK         0.0600 
    213 H213       -1.8237  -24.3806  -50.0862 H         1 UNK         0.0600 
    214 H214       -2.2530  -22.8925  -50.9228 H         1 UNK         0.0600 
    215 H215       -5.1789  -23.2721  -52.5966 H         1 UNK         0.3000 
    216 H216       -4.2424  -21.7989  -54.5671 H         1 UNK         0.0600 
    217 H217       -7.0747  -22.9562  -54.4529 H         1 UNK         0.0600 
    218 H218       -6.6111  -21.4926  -55.3155 H         1 UNK         0.0600 
    219 H219       -6.4888  -21.5502  -53.5649 H         1 UNK         0.0600 
    220 H220       -5.1413  -25.1392  -55.1840 H         1 UNK         0.3000 
    221 H221       -5.2112  -25.0724  -58.0287 H         1 UNK         0.0600 
    222 H222       -6.1272  -26.9476  -56.6854 H         1 UNK         0.0600 
    223 H223       -4.5125  -27.3542  -56.1016 H         1 UNK         0.0600 
    224 H224       -4.9133  -27.5466  -57.8041 H         1 UNK         0.0600 
    225 H225       -2.5118  -25.0657  -55.7778 H         1 UNK         0.3000 
    226 H226       -0.5370  -25.3452  -58.0194 H         1 UNK         0.0600 
    227 H227       -0.2059  -25.8562  -55.0146 H         1 UNK         0.0600 
    228 H228       -0.2891  -27.0908  -56.2700 H         1 UNK         0.0600 
    229 H229        1.0675  -25.9747  -56.2248 H         1 UNK         0.0600 
    230 H230       -1.4848  -23.4906  -55.0931 H         1 UNK         0.3000 
    231 H231        0.6863  -21.6547  -55.2261 H         1 UNK         0.0600 
    232 H232       -1.9797  -21.5164  -53.7286 H         1 UNK         0.0600 
    233 H233       -0.6132  -20.4510  -53.4512 H         1 UNK         0.0600 
    234 H234       -0.4597  -22.1685  -53.1169 H         1 UNK         0.0600 
    235 H235       -2.5503  -21.5356  -56.6635 H         1 UNK         0.3000 
    236 H236       -3.7035  -20.0735  -57.8625 H         1 UNK         0.0600 
    237 H237       -0.9615  -19.0826  -58.8118 H         1 UNK         0.0600 
    238 H238       -1.8606  -20.4402  -59.4852 H         1 UNK         0.0600 
    239 H239       -2.4977  -18.8086  -59.6219 H         1 UNK         0.0600 
    240 H240       -4.1114  -19.3232  -55.5375 H         1 UNK         0.3000 
    241 H241       -2.9465  -17.0906  -54.4170 H         1 UNK         0.0600 
    242 H242       -5.6359  -15.1716  -56.8056 H         1 UNK         0.3800 
    243 H243       -5.3236  -16.8750  -57.0112 H         1 UNK         0.3800 
    244 H244       -5.8119  -17.9725  -53.8397 H         1 UNK         0.0800 
    245 H245       -4.7326  -17.1146  -52.7709 H         1 UNK         0.0800 
    246 H246       -4.3308  -20.0859  -50.5845 H         1 UNK         0.0800 
    247 H247       -4.9070  -18.4593  -50.8073 H         1 UNK         0.0800 
@<TRIPOS>BOND
     1    1    2 1    
     2    1  127 1    
     3    1  128 1    
     4    1  129 1    
     5    2    3 2    
     6    2    4 am   BACKBONE|DICT|INTERRES
     7    4    5 1    
     8    4  130 1    
     9    5    6 1    
    10    5   65 1    
    11    5  131 1    
    12    6    7 1    
    13    6  132 1    
    14    6  133 1    
    15    7    8 1    
    16    8    9 1    
    17    8  134 1    
    18    8  135 1    
    19    9   10 ar   
    20    9   14 ar   
    21   10   11 ar   
    22   10  136 1    
    23   11   12 ar   
    24   11  126 1    
    25   12   13 ar   
    26   12  137 1    
    27   13   14 ar   
    28   13   15 1    
    29   14  138 1    
    30   15   16 1    
    31   15  139 1    
    32   15  140 1    
    33   16   17 1    
    34   17   18 1    
    35   17  141 1    
    36   17  142 1    
    37   18   19 1    
    38   18   67 1    
    39   18  143 1    
    40   19   20 am   BACKBONE|DICT|INTERRES
    41   19  144 1    
    42   20   21 2    
    43   20   22 1    
    44   22   23 1    
    45   22   24 1    
    46   22  145 1    
    47   23  146 1    
    48   23  147 1    
    49   23  148 1    
    50   24   25 am   BACKBONE|DICT|INTERRES
    51   24  149 1    
    52   25   26 2    
    53   25   27 1    
    54   27   28 1    
    55   27   29 1    
    56   27  150 1    
    57   28  151 1    
    58   28  152 1    
    59   28  153 1    
    60   29   30 am   BACKBONE|DICT|INTERRES
    61   29  154 1    
    62   30   31 2    
    63   30   32 1    
    64   32   33 1    
    65   32   34 1    
    66   32  155 1    
    67   33  156 1    
    68   33  157 1    
    69   33  158 1    
    70   34   35 am   BACKBONE|DICT|INTERRES
    71   34  159 1    
    72   35   36 2    
    73   35   37 1    
    74   37   38 1    
    75   37   39 1    
    76   37  160 1    
    77   38  161 1    
    78   38  162 1    
    79   38  163 1    
    80   39   40 am   BACKBONE|DICT|INTERRES
    81   39  164 1    
    82   40   41 2    
    83   40   42 1    
    84   42   43 1    
    85   42   44 1    
    86   42  165 1    
    87   43  166 1    
    88   43  167 1    
    89   43  168 1    
    90   44   45 am   BACKBONE|DICT|INTERRES
    91   44  169 1    
    92   45   46 2    
    93   45   47 1    
    94   47   48 1    
    95   47   49 1    
    96   47  170 1    
    97   48  171 1    
    98   48  172 1    
    99   48  173 1    
   100   49   50 am   BACKBONE|DICT|INTERRES
   101   49  174 1    
   102   50   51 2    
   103   50   52 1    
   104   52   53 1    
   105   52   54 1    
   106   52  175 1    
   107   53  176 1    
   108   53  177 1    
   109   53  178 1    
   110   54   55 am   BACKBONE|DICT|INTERRES
   111   54  179 1    
   112   55   56 2    
   113   55   57 1    
   114   57   58 1    
   115   57   59 1    
   116   57  180 1    
   117   58  181 1    
   118   58  182 1    
   119   58  183 1    
   120   59   60 am   BACKBONE|DICT|INTERRES
   121   59  184 1    
   122   60   61 2    
   123   60   62 1    
   124   62   63 1    
   125   62   64 1    
   126   62  185 1    
   127   63  186 1    
   128   63  187 1    
   129   63  188 1    
   130   64   65 am   BACKBONE|DICT|INTERRES
   131   64  189 1    
   132   65   66 2    
   133   67   68 2    
   134   67   69 am   BACKBONE|DICT|INTERRES
   135   69   70 1    
   136   69  190 1    
   137   70   71 1    
   138   70   72 1    
   139   70  191 1    
   140   71  192 1    
   141   71  193 1    
   142   71  194 1    
   143   72   73 2    
   144   72   74 am   BACKBONE|DICT|INTERRES
   145   74   75 1    
   146   74  195 1    
   147   75   76 1    
   148   75   77 1    
   149   75  196 1    
   150   76  197 1    
   151   76  198 1    
   152   76  199 1    
   153   77   78 2    
   154   77   79 am   BACKBONE|DICT|INTERRES
   155   79   80 1    
   156   79  200 1    
   157   80   81 1    
   158   80   82 1    
   159   80  201 1    
   160   81  202 1    
   161   81  203 1    
   162   81  204 1    
   163   82   83 2    
   164   82   84 am   BACKBONE|DICT|INTERRES
   165   84   85 1    
   166   84  205 1    
   167   85   86 1    
   168   85   87 1    
   169   85  206 1    
   170   86  207 1    
   171   86  208 1    
   172   86  209 1    
   173   87   88 2    
   174   87   89 am   BACKBONE|DICT|INTERRES
   175   89   90 1    
   176   89  210 1    
   177   90   91 1    
   178   90   92 1    
   179   90  211 1    
   180   91  212 1    
   181   91  213 1    
   182   91  214 1    
   183   92   93 2    
   184   92   94 am   BACKBONE|DICT|INTERRES
   185   94   95 1    
   186   94  215 1    
   187   95   96 1    
   188   95   97 1    
   189   95  216 1    
   190   96  217 1    
   191   96  218 1    
   192   96  219 1    
   193   97   98 2    
   194   97   99 am   BACKBONE|DICT|INTERRES
   195   99  100 1    
   196   99  220 1    
   197  100  101 1    
   198  100  102 1    
   199  100  221 1    
   200  101  222 1    
   201  101  223 1    
   202  101  224 1    
   203  102  103 2    
   204  102  104 am   BACKBONE|DICT|INTERRES
   205  104  105 1    
   206  104  225 1    
   207  105  106 1    
   208  105  107 1    
   209  105  226 1    
   210  106  227 1    
   211  106  228 1    
   212  106  229 1    
   213  107  108 2    
   214  107  109 am   BACKBONE|DICT|INTERRES
   215  109  110 1    
   216  109  230 1    
   217  110  111 1    
   218  110  112 1    
   219  110  231 1    
   220  111  232 1    
   221  111  233 1    
   222  111  234 1    
   223  112  113 2    
   224  112  114 am   BACKBONE|DICT|INTERRES
   225  114  115 1    
   226  114  235 1    
   227  115  116 1    
   228  115  117 1    
   229  115  236 1    
   230  116  237 1    
   231  116  238 1    
   232  116  239 1    
   233  117  118 2    
   234  117  119 am   BACKBONE|DICT|INTERRES
   235  119  120 1    
   236  119  240 1    
   237  120  121 1    
   238  120  124 1    
   239  120  241 1    
   240  121  122 am   BACKBONE|DICT|INTERRES
   241  121  123 2    
   242  122  242 1    
   243  122  243 1    
   244  124  125 1    
   245  124  244 1    
   246  124  245 1    
   247  125  126 1    
   248  126  246 1    
   249  126  247 1    
@<TRIPOS>SUBSTRUCTURE
     1 UNK         1 GROUP             0       ****    0 ROOT    
