@<TRIPOS>MOLECULE
3R540
247   249    1
SMALL
USER_CHARGES


@<TRIPOS>ATOM
      1 CA         -2.0704  -10.5259  -49.2455 C.3       0 UNK        -0.1800 
      2 C          -1.6966  -11.7620  -48.4418 C.2       0 UNK         0.5000 
      3 O          -0.9064  -11.6661  -47.5033 O.2       0 UNK        -0.5000 
      4 N          -2.2733  -12.9202  -48.7889 N.am      1 UNK        -0.5000 
      5 CA         -2.0094  -14.2261  -48.1669 C.3       1 UNK         0.1400 
      6 C6         -2.7806  -15.3695  -48.8686 C.3       23 UNK        -0.0398 
      7 S7         -2.3849  -15.5238  -50.6471 S.3       23 UNK        -0.2404 
      8 C8         -1.9639  -17.2941  -50.7872 C.3       23 UNK        -0.0205 
      9 C9         -0.4661  -17.5733  -50.7350 C.ar      23 UNK        -0.0193 
     10 C10         0.1266  -18.3583  -51.7292 C.ar      23 UNK        -0.1150 
     11 C11         1.4926  -18.6517  -51.6864 C.ar      23 UNK        -0.0193 
     12 C12         2.2730  -18.1387  -50.6465 C.ar      23 UNK        -0.1150 
     13 C13         1.6990  -17.3385  -49.6557 C.ar      23 UNK        -0.0193 
     14 C14         0.3269  -17.0753  -49.6960 C.ar      23 UNK        -0.1150 
     15 C15         2.5734  -16.7134  -48.5788 C.3       23 UNK        -0.0205 
     16 S16         2.8077  -17.7961  -47.1353 S.3       23 UNK        -0.2404 
     17 C17         1.1756  -17.7094  -46.3246 C.3       23 UNK        -0.0398 
     18 CA          0.3523  -18.9975  -46.5559 C.3       11 UNK         0.1400 
     19 N           1.0163  -20.1827  -46.0008 N.am      11 UNK        -0.5000 
     20 C           0.7243  -21.4417  -46.3487 C.2       10 UNK         0.5000 
     21 O          -0.1649  -21.7412  -47.1428 O.2       10 UNK        -0.5000 
     22 CA          1.5233  -22.5562  -45.6490 C.3       10 UNK         0.1400 
     23 CB          2.8983  -22.7308  -46.3109 C.3       10 UNK        -0.1800 
     24 N           1.7036  -22.3567  -44.2077 N.am      10 UNK        -0.5000 
     25 C           0.7299  -22.1465  -43.3134 C.2       9 UNK         0.5000 
     26 O          -0.4501  -21.9947  -43.6276 O.2       9 UNK        -0.5000 
     27 CA          1.1083  -22.0704  -41.8213 C.3       9 UNK         0.1400 
     28 CB          0.7693  -23.3919  -41.1074 C.3       9 UNK        -0.1800 
     29 N           2.4818  -21.6476  -41.5141 N.am      9 UNK        -0.5000 
     30 C           3.6451  -22.2731  -41.7574 C.2       8 UNK         0.5000 
     31 O           3.7418  -23.3002  -42.4288 O.2       8 UNK        -0.5000 
     32 CA          4.9240  -21.6424  -41.1639 C.3       8 UNK         0.1400 
     33 CB          5.6775  -20.8526  -42.2454 C.3       8 UNK        -0.1800 
     34 N           4.6666  -20.7554  -40.0267 N.am      8 UNK        -0.5000 
     35 C           4.1751  -21.1372  -38.8387 C.2       7 UNK         0.5000 
     36 O           4.0148  -22.3150  -38.5167 O.2       7 UNK        -0.5000 
     37 CA          3.7598  -20.0217  -37.8532 C.3       7 UNK         0.1400 
     38 CB          4.7782  -19.9136  -36.7075 C.3       7 UNK        -0.1800 
     39 N           3.5788  -18.6901  -38.4492 N.am      7 UNK        -0.5000 
     40 C           2.7242  -18.3697  -39.4311 C.2       6 UNK         0.5000 
     41 O           1.9948  -19.1897  -39.9978 O.2       6 UNK        -0.5000 
     42 CA          2.7193  -16.9004  -39.8840 C.3       6 UNK         0.1400 
     43 CB          4.1242  -16.4353  -40.3224 C.3       6 UNK        -0.1800 
     44 N           1.7870  -16.7644  -40.9974 N.am      6 UNK        -0.5000 
     45 C           1.2568  -15.6255  -41.4487 C.2       5 UNK         0.5000 
     46 O           1.4314  -14.5261  -40.9174 O.2       5 UNK        -0.5000 
     47 CA          0.3719  -15.7476  -42.7049 C.3       5 UNK         0.1400 
     48 CB         -1.1131  -15.8046  -42.3191 C.3       5 UNK        -0.1800 
     49 N           0.5783  -14.6498  -43.6497 N.am      5 UNK        -0.5000 
     50 C           1.7415  -14.3149  -44.2265 C.2       4 UNK         0.5000 
     51 O           2.7834  -14.9551  -44.0796 O.2       4 UNK        -0.5000 
     52 CA          1.7536  -13.0682  -45.1363 C.3       4 UNK         0.1400 
     53 CB          1.9216  -13.4759  -46.6063 C.3       4 UNK        -0.1800 
     54 N           0.5535  -12.2393  -45.0226 N.am      4 UNK        -0.5000 
     55 C           0.2724  -11.4132  -44.0062 C.2       3 UNK         0.5000 
     56 O           1.0200  -11.2267  -43.0463 O.2       3 UNK        -0.5000 
     57 CA         -1.0855  -10.6918  -44.0679 C.3       3 UNK         0.1400 
     58 CB         -0.9721   -9.3762  -44.8539 C.3       3 UNK        -0.1800 
     59 N          -2.1121  -11.5391  -44.6784 N.am      3 UNK        -0.5000 
     60 C          -2.7971  -12.4828  -44.0174 C.2       2 UNK         0.5000 
     61 O          -2.6884  -12.6785  -42.8075 O.2       2 UNK        -0.5000 
     62 CA         -3.7586  -13.3654  -44.8370 C.3       2 UNK         0.1400 
     63 CB         -5.1838  -12.7943  -44.7892 C.3       2 UNK        -0.1800 
     64 N          -3.3550  -13.5218  -46.2352 N.am      2 UNK        -0.5000 
     65 C          -2.3031  -14.2423  -46.6506 C.2       1 UNK         0.5000 
     66 O          -1.5589  -14.8637  -45.8936 O.2       1 UNK        -0.5000 
     67 C          -1.0914  -18.8263  -46.0374 C.2       11 UNK         0.5000 
     68 O          -1.9017  -18.2119  -46.7280 O.2       11 UNK        -0.5000 
     69 N          -1.3975  -19.3776  -44.8533 N.am      12 UNK        -0.5000 
     70 CA         -2.7495  -19.4077  -44.2939 C.3       12 UNK         0.1400 
     71 CB         -2.6725  -19.5147  -42.7626 C.3       12 UNK        -0.1800 
     72 C          -3.5697  -20.5695  -44.8825 C.2       12 UNK         0.5000 
     73 O          -4.7574  -20.3981  -45.1573 O.2       12 UNK        -0.5000 
     74 N          -2.9172  -21.7258  -45.0719 N.am      13 UNK        -0.5000 
     75 CA         -3.4881  -22.9285  -45.6798 C.3       13 UNK         0.1400 
     76 CB         -2.5231  -24.1047  -45.4664 C.3       13 UNK        -0.1800 
     77 C          -3.8077  -22.7518  -47.1762 C.2       13 UNK         0.5000 
     78 O          -4.7810  -23.3296  -47.6610 O.2       13 UNK        -0.5000 
     79 N          -2.9899  -21.9535  -47.8744 N.am      14 UNK        -0.5000 
     80 CA         -3.1822  -21.5323  -49.2572 C.3       14 UNK         0.1400 
     81 CB         -1.8951  -20.8530  -49.7548 C.3       14 UNK        -0.1800 
     82 C          -4.4106  -20.6119  -49.3964 C.2       14 UNK         0.5000 
     83 O          -4.3065  -19.4036  -49.1877 O.2       14 UNK        -0.5000 
     84 N          -5.5543  -21.2030  -49.7470 N.am      15 UNK        -0.5000 
     85 CA         -6.8066  -20.5232  -50.0493 C.3       15 UNK         0.1400 
     86 CB         -7.6856  -20.4777  -48.7898 C.3       15 UNK        -0.1800 
     87 C          -7.4959  -21.2967  -51.1791 C.2       15 UNK         0.5000 
     88 O          -7.3658  -22.5229  -51.2368 O.2       15 UNK        -0.5000 
     89 N          -8.2027  -20.5738  -52.0587 N.am      16 UNK        -0.5000 
     90 CA         -8.9446  -21.0852  -53.2178 C.3       16 UNK         0.1400 
     91 CB        -10.2404  -21.7836  -52.7470 C.3       16 UNK        -0.1800 
     92 C          -8.0562  -21.9560  -54.1341 C.2       16 UNK         0.5000 
     93 O          -7.0780  -21.4473  -54.6849 O.2       16 UNK        -0.5000 
     94 N          -8.3724  -23.2527  -54.2470 N.am      17 UNK        -0.5000 
     95 CA         -7.6154  -24.2405  -55.0165 C.3       17 UNK         0.1400 
     96 CB         -8.3685  -25.5787  -54.9998 C.3       17 UNK        -0.1800 
     97 C          -6.1673  -24.4315  -54.5263 C.2       17 UNK         0.5000 
     98 O          -5.2837  -24.6682  -55.3487 O.2       17 UNK        -0.5000 
     99 N          -5.9314  -24.2918  -53.2134 N.am      18 UNK        -0.5000 
    100 CA        -4.5945  -24.3826  -52.6246 C.3       18 UNK         0.1400 
    101 CB        -4.6991  -24.6776  -51.1216 C.3       18 UNK        -0.1800 
    102 C         -3.7501  -23.1247  -52.8979 C.2       18 UNK         0.5000 
    103 O         -2.5347  -23.2386  -53.0471 O.2       18 UNK        -0.5000 
    104 N         -4.3992  -21.9559  -53.0104 N.am      19 UNK        -0.5000 
    105 CA        -3.7564  -20.7126  -53.4438 C.3       19 UNK         0.1400 
    106 CB        -4.6404  -19.5004  -53.1158 C.3       19 UNK        -0.1800 
    107 C         -3.4040  -20.7523  -54.9387 C.2       19 UNK         0.5000 
    108 O         -2.3084  -20.3326  -55.3111 O.2       19 UNK        -0.5000 
    109 N         -4.3112  -21.3060  -55.7561 N.am      20 UNK        -0.5000 
    110 CA        -4.1010  -21.5497  -57.1843 C.3       20 UNK         0.1400 
    111 CB        -5.4172  -22.0145  -57.8251 C.3       20 UNK        -0.1800 
    112 C         -2.9671  -22.5577  -57.4586 C.2       20 UNK         0.5000 
    113 O         -2.2014  -22.3615  -58.4028 O.2       20 UNK        -0.5000 
    114 N         -2.8628  -23.5971  -56.6172 N.am      21 UNK        -0.5000 
    115 CA        -1.7767  -24.5777  -56.6384 C.3       21 UNK         0.1400 
    116 CB        -2.1417  -25.7749  -55.7477 C.3       21 UNK        -0.1800 
    117 C         -0.4247  -23.9743  -56.2131 C.2       21 UNK         0.5000 
    118 O          0.5932  -24.2837  -56.8340 O.2       21 UNK        -0.5000 
    119 N         -0.4376  -23.1251  -55.1755 N.am      22 UNK        -0.5000 
    120 CA         0.7288  -22.3578  -54.7131 C.3       22 UNK         0.1400 
    121 C          1.2156  -21.3111  -55.7566 C.2       22 UNK         0.5000 
    122 N          0.3283  -20.4973  -56.3144 N.am      22 UNK        -0.7600 
    123 O          2.4015  -21.2422  -56.0679 O.2       22 UNK        -0.5000 
    124 C124        0.4692  -21.7129  -53.3257 C.3       23 UNK        -0.0398 
    125 S125        2.0069  -21.2752  -52.4426 S.3       23 UNK        -0.2404 
    126 C126        2.1389  -19.4896  -52.7787 C.3       23 UNK        -0.0205 
    127 H127       -2.7926  -10.7549  -50.0294 H         1 UNK         0.0600 
    128 H128       -1.1819  -10.1021  -49.7133 H         1 UNK         0.0600 
    129 H129       -2.5050   -9.7710  -48.5904 H         1 UNK         0.0600 
    130 H130       -2.9036  -12.9386  -49.5783 H         1 UNK         0.3000 
    131 H131       -0.9411  -14.4154  -48.2818 H         1 UNK         0.0600 
    132 H132       -3.8575  -15.2173  -48.7776 H         1 UNK         0.0800 
    133 H133       -2.5728  -16.3169  -48.3707 H         1 UNK         0.0800 
    134 H134       -2.4556  -17.8627  -50.0004 H         1 UNK         0.0800 
    135 H135       -2.3827  -17.6601  -51.7255 H         1 UNK         0.0800 
    136 H136       -0.4769  -18.7422  -52.5388 H         1 UNK         0.1150 
    137 H137        3.3334  -18.3471  -50.6173 H         1 UNK         0.1150 
    138 H138       -0.1218  -16.4692  -48.9250 H         1 UNK         0.1150 
    139 H139        3.5533  -16.4801  -48.9978 H         1 UNK         0.0800 
    140 H140        2.1519  -15.7604  -48.2643 H         1 UNK         0.0800 
    141 H141        0.6389  -16.8278  -46.6795 H         1 UNK         0.0800 
    142 H142        1.3401  -17.5485  -45.2592 H         1 UNK         0.0800 
    143 H143        0.2713  -19.1457  -47.6351 H         1 UNK         0.0600 
    144 H144        1.7676  -20.0212  -45.3465 H         1 UNK         0.3000 
    145 H145        0.9650  -23.4854  -45.7771 H         1 UNK         0.0600 
    146 H146        3.4295  -23.5876  -45.8958 H         1 UNK         0.0600 
    147 H147        2.7975  -22.8999  -47.3839 H         1 UNK         0.0600 
    148 H148        3.5260  -21.8492  -46.1744 H         1 UNK         0.0600 
    149 H149        2.6282  -22.5420  -43.8338 H         1 UNK         0.3000 
    150 H150        0.4692  -21.2975  -41.3913 H         1 UNK         0.0600 
    151 H151       -0.2831  -23.6472  -41.2389 H         1 UNK         0.0600 
    152 H152        0.9544  -23.3186  -40.0356 H         1 UNK         0.0600 
    153 H153        1.3567  -24.2253  -41.4936 H         1 UNK         0.0600 
    154 H154        2.5256  -20.7866  -40.9762 H         1 UNK         0.3000 
    155 H155        5.5641  -22.4577  -40.8210 H         1 UNK         0.0600 
    156 H156        5.0884  -20.0117  -42.6140 H         1 UNK         0.0600 
    157 H157        5.9141  -21.4874  -43.1005 H         1 UNK         0.0600 
    158 H158        6.6205  -20.4610  -41.8634 H         1 UNK         0.0600 
    159 H159        4.7799  -19.7667  -40.1920 H         1 UNK         0.3000 
    160 H160        2.7991  -20.3191  -37.4281 H         1 UNK         0.0600 
    161 H161        5.7545  -19.5870  -37.0680 H         1 UNK         0.0600 
    162 H162        4.9164  -20.8759  -36.2125 H         1 UNK         0.0600 
    163 H163        4.4455  -19.2061  -35.9477 H         1 UNK         0.0600 
    164 H164        4.1473  -17.9558  -38.0524 H         1 UNK         0.3000 
    165 H165        2.3715  -16.2917  -39.0471 H         1 UNK         0.0600 
    166 H166        4.1114  -15.4011  -40.6670 H         1 UNK         0.0600 
    167 H167        4.8389  -16.4835  -39.5006 H         1 UNK         0.0600 
    168 H168        4.5129  -17.0490  -41.1361 H         1 UNK         0.0600 
    169 H169        1.5331  -17.6492  -41.4187 H         1 UNK         0.3000 
    170 H170        0.6259  -16.6753  -43.2191 H         1 UNK         0.0600 
    171 H171       -1.4394  -14.8751  -41.8520 H         1 UNK         0.0600 
    172 H172       -1.7426  -15.9844  -43.1913 H         1 UNK         0.0600 
    173 H173       -1.3019  -16.6074  -41.6061 H         1 UNK         0.0600 
    174 H174       -0.2296  -14.0841  -43.8641 H         1 UNK         0.3000 
    175 H175        2.6171  -12.4647  -44.8495 H         1 UNK         0.0600 
    176 H176        1.0882  -14.0927  -46.9427 H         1 UNK         0.0600 
    177 H177        1.9760  -12.6025  -47.2565 H         1 UNK         0.0600 
    178 H178        2.8404  -14.0458  -46.7492 H         1 UNK         0.0600 
    179 H179       -0.0884  -12.2680  -45.8086 H         1 UNK         0.3000 
    180 H180       -1.3826  -10.4463  -43.0459 H         1 UNK         0.0600 
    181 H181       -1.9245   -8.8464  -44.8744 H         1 UNK         0.0600 
    182 H182       -0.6590   -9.5429  -45.8848 H         1 UNK         0.0600 
    183 H183       -0.2401   -8.7113  -44.3938 H         1 UNK         0.0600 
    184 H184       -2.2152  -11.4708  -45.6818 H         1 UNK         0.3000 
    185 H185       -3.7716  -14.3544  -44.3737 H         1 UNK         0.0600 
    186 H186       -5.8890  -13.4496  -45.3009 H         1 UNK         0.0600 
    187 H187       -5.5282  -12.6897  -43.7594 H         1 UNK         0.0600 
    188 H188       -5.2393  -11.8098  -45.2555 H         1 UNK         0.0600 
    189 H189       -3.9021  -13.0268  -46.9246 H         1 UNK         0.3000 
    190 H190       -0.7013  -19.9360  -44.3784 H         1 UNK         0.3000 
    191 H191       -3.2590  -18.4728  -44.5386 H         1 UNK         0.0600 
    192 H192       -3.6676  -19.4539  -42.3206 H         1 UNK         0.0600 
    193 H193       -2.0788  -18.7064  -42.3393 H         1 UNK         0.0600 
    194 H194       -2.2304  -20.4569  -42.4389 H         1 UNK         0.0600 
    195 H195       -1.9573  -21.7969  -44.7457 H         1 UNK         0.3000 
    196 H196       -4.4237  -23.1550  -45.1646 H         1 UNK         0.0600 
    197 H197       -1.5630  -23.9293  -45.9528 H         1 UNK         0.0600 
    198 H198       -2.3341  -24.2728  -44.4059 H         1 UNK         0.0600 
    199 H199       -2.9356  -25.0278  -45.8753 H         1 UNK         0.0600 
    200 H200       -2.1657  -21.5887  -47.4094 H         1 UNK         0.3000 
    201 H201       -3.3416  -22.4205  -49.8691 H         1 UNK         0.0600 
    202 H202       -1.6038  -20.0225  -49.1111 H         1 UNK         0.0600 
    203 H203       -2.0192  -20.4581  -50.7618 H         1 UNK         0.0600 
    204 H204       -1.0634  -21.5572  -49.7851 H         1 UNK         0.0600 
    205 H205       -5.5882  -22.2077  -49.8620 H         1 UNK         0.3000 
    206 H206       -6.6083  -19.5050  -50.3904 H         1 UNK         0.0600 
    207 H207       -8.6343  -19.9791  -48.9917 H         1 UNK         0.0600 
    208 H208       -7.9099  -21.4796  -48.4211 H         1 UNK         0.0600 
    209 H209       -7.1926  -19.9297  -47.9864 H         1 UNK         0.0600 
    210 H210       -8.2281  -19.5702  -51.9441 H         1 UNK         0.3000 
    211 H211       -9.2332  -20.2180  -53.8135 H         1 UNK         0.0600 
    212 H212      -10.8378  -22.1231  -53.5942 H         1 UNK         0.0600 
    213 H213      -10.8635  -21.0959  -52.1752 H         1 UNK         0.0600 
    214 H214      -10.0380  -22.6457  -52.1102 H         1 UNK         0.0600 
    215 H215       -9.1727  -23.5955  -53.7360 H         1 UNK         0.3000 
    216 H216       -7.5691  -23.8893  -56.0490 H         1 UNK         0.0600 
    217 H217       -8.4756  -25.9678  -53.9864 H         1 UNK         0.0600 
    218 H218       -7.8399  -26.3314  -55.5865 H         1 UNK         0.0600 
    219 H219       -9.3656  -25.4762  -55.4283 H         1 UNK         0.0600 
    220 H220       -6.6910  -24.0323  -52.5938 H         1 UNK         0.3000 
    221 H221       -4.0752  -25.2269  -53.0827 H         1 UNK         0.0600 
    222 H222       -5.2213  -25.6177  -50.9435 H         1 UNK         0.0600 
    223 H223       -5.2342  -23.8970  -50.5851 H         1 UNK         0.0600 
    224 H224       -3.7098  -24.7683  -50.6713 H         1 UNK         0.0600 
    225 H225       -5.4071  -21.9548  -52.9443 H         1 UNK         0.3000 
    226 H226       -2.8196  -20.5983  -52.8968 H         1 UNK         0.0600 
    227 H227       -5.6241  -19.5720  -53.5784 H         1 UNK         0.0600 
    228 H228       -4.7795  -19.3909  -52.0423 H         1 UNK         0.0600 
    229 H229       -4.1806  -18.5776  -53.4719 H         1 UNK         0.0600 
    230 H230       -5.2147  -21.5679  -55.3744 H         1 UNK         0.3000 
    231 H231       -3.8181  -20.5999  -57.6428 H         1 UNK         0.0600 
    232 H232       -5.7440  -22.9738  -57.4251 H         1 UNK         0.0600 
    233 H233       -5.3042  -22.1317  -58.9035 H         1 UNK         0.0600 
    234 H234       -6.2159  -21.2917  -57.6571 H         1 UNK         0.0600 
    235 H235       -3.5939  -23.7419  -55.9293 H         1 UNK         0.3000 
    236 H236       -1.6722  -24.9406  -57.6630 H         1 UNK         0.0600 
    237 H237       -3.0685  -26.2447  -56.0775 H         1 UNK         0.0600 
    238 H238       -1.3617  -26.5366  -55.7801 H         1 UNK         0.0600 
    239 H239       -2.2670  -25.4791  -54.7063 H         1 UNK         0.0600 
    240 H240       -1.3074  -22.9686  -54.6797 H         1 UNK         0.3000 
    241 H241        1.5367  -23.0818  -54.5888 H         1 UNK         0.0600 
    242 H242        0.6333  -19.8258  -56.9999 H         1 UNK         0.3800 
    243 H243       -0.6495  -20.5152  -56.0295 H         1 UNK         0.3800 
    244 H244       -0.0526  -22.4234  -52.6839 H         1 UNK         0.0800 
    245 H245       -0.1928  -20.8510  -53.4079 H         1 UNK         0.0800 
    246 H246        1.6983  -19.2466  -53.7463 H         1 UNK         0.0800 
    247 H247        3.1960  -19.2333  -52.8629 H         1 UNK         0.0800 
@<TRIPOS>BOND
     1    1    2 1    
     2    1  127 1    
     3    1  128 1    
     4    1  129 1    
     5    2    3 2    
     6    2    4 am   BACKBONE|DICT|INTERRES
     7    4    5 1    
     8    4  130 1    
     9    5    6 1    
    10    5   65 1    
    11    5  131 1    
    12    6    7 1    
    13    6  132 1    
    14    6  133 1    
    15    7    8 1    
    16    8    9 1    
    17    8  134 1    
    18    8  135 1    
    19    9   10 ar   
    20    9   14 ar   
    21   10   11 ar   
    22   10  136 1    
    23   11   12 ar   
    24   11  126 1    
    25   12   13 ar   
    26   12  137 1    
    27   13   14 ar   
    28   13   15 1    
    29   14  138 1    
    30   15   16 1    
    31   15  139 1    
    32   15  140 1    
    33   16   17 1    
    34   17   18 1    
    35   17  141 1    
    36   17  142 1    
    37   18   19 1    
    38   18   67 1    
    39   18  143 1    
    40   19   20 am   BACKBONE|DICT|INTERRES
    41   19  144 1    
    42   20   21 2    
    43   20   22 1    
    44   22   23 1    
    45   22   24 1    
    46   22  145 1    
    47   23  146 1    
    48   23  147 1    
    49   23  148 1    
    50   24   25 am   BACKBONE|DICT|INTERRES
    51   24  149 1    
    52   25   26 2    
    53   25   27 1    
    54   27   28 1    
    55   27   29 1    
    56   27  150 1    
    57   28  151 1    
    58   28  152 1    
    59   28  153 1    
    60   29   30 am   BACKBONE|DICT|INTERRES
    61   29  154 1    
    62   30   31 2    
    63   30   32 1    
    64   32   33 1    
    65   32   34 1    
    66   32  155 1    
    67   33  156 1    
    68   33  157 1    
    69   33  158 1    
    70   34   35 am   BACKBONE|DICT|INTERRES
    71   34  159 1    
    72   35   36 2    
    73   35   37 1    
    74   37   38 1    
    75   37   39 1    
    76   37  160 1    
    77   38  161 1    
    78   38  162 1    
    79   38  163 1    
    80   39   40 am   BACKBONE|DICT|INTERRES
    81   39  164 1    
    82   40   41 2    
    83   40   42 1    
    84   42   43 1    
    85   42   44 1    
    86   42  165 1    
    87   43  166 1    
    88   43  167 1    
    89   43  168 1    
    90   44   45 am   BACKBONE|DICT|INTERRES
    91   44  169 1    
    92   45   46 2    
    93   45   47 1    
    94   47   48 1    
    95   47   49 1    
    96   47  170 1    
    97   48  171 1    
    98   48  172 1    
    99   48  173 1    
   100   49   50 am   BACKBONE|DICT|INTERRES
   101   49  174 1    
   102   50   51 2    
   103   50   52 1    
   104   52   53 1    
   105   52   54 1    
   106   52  175 1    
   107   53  176 1    
   108   53  177 1    
   109   53  178 1    
   110   54   55 am   BACKBONE|DICT|INTERRES
   111   54  179 1    
   112   55   56 2    
   113   55   57 1    
   114   57   58 1    
   115   57   59 1    
   116   57  180 1    
   117   58  181 1    
   118   58  182 1    
   119   58  183 1    
   120   59   60 am   BACKBONE|DICT|INTERRES
   121   59  184 1    
   122   60   61 2    
   123   60   62 1    
   124   62   63 1    
   125   62   64 1    
   126   62  185 1    
   127   63  186 1    
   128   63  187 1    
   129   63  188 1    
   130   64   65 am   BACKBONE|DICT|INTERRES
   131   64  189 1    
   132   65   66 2    
   133   67   68 2    
   134   67   69 am   BACKBONE|DICT|INTERRES
   135   69   70 1    
   136   69  190 1    
   137   70   71 1    
   138   70   72 1    
   139   70  191 1    
   140   71  192 1    
   141   71  193 1    
   142   71  194 1    
   143   72   73 2    
   144   72   74 am   BACKBONE|DICT|INTERRES
   145   74   75 1    
   146   74  195 1    
   147   75   76 1    
   148   75   77 1    
   149   75  196 1    
   150   76  197 1    
   151   76  198 1    
   152   76  199 1    
   153   77   78 2    
   154   77   79 am   BACKBONE|DICT|INTERRES
   155   79   80 1    
   156   79  200 1    
   157   80   81 1    
   158   80   82 1    
   159   80  201 1    
   160   81  202 1    
   161   81  203 1    
   162   81  204 1    
   163   82   83 2    
   164   82   84 am   BACKBONE|DICT|INTERRES
   165   84   85 1    
   166   84  205 1    
   167   85   86 1    
   168   85   87 1    
   169   85  206 1    
   170   86  207 1    
   171   86  208 1    
   172   86  209 1    
   173   87   88 2    
   174   87   89 am   BACKBONE|DICT|INTERRES
   175   89   90 1    
   176   89  210 1    
   177   90   91 1    
   178   90   92 1    
   179   90  211 1    
   180   91  212 1    
   181   91  213 1    
   182   91  214 1    
   183   92   93 2    
   184   92   94 am   BACKBONE|DICT|INTERRES
   185   94   95 1    
   186   94  215 1    
   187   95   96 1    
   188   95   97 1    
   189   95  216 1    
   190   96  217 1    
   191   96  218 1    
   192   96  219 1    
   193   97   98 2    
   194   97   99 am   BACKBONE|DICT|INTERRES
   195   99  100 1    
   196   99  220 1    
   197  100  101 1    
   198  100  102 1    
   199  100  221 1    
   200  101  222 1    
   201  101  223 1    
   202  101  224 1    
   203  102  103 2    
   204  102  104 am   BACKBONE|DICT|INTERRES
   205  104  105 1    
   206  104  225 1    
   207  105  106 1    
   208  105  107 1    
   209  105  226 1    
   210  106  227 1    
   211  106  228 1    
   212  106  229 1    
   213  107  108 2    
   214  107  109 am   BACKBONE|DICT|INTERRES
   215  109  110 1    
   216  109  230 1    
   217  110  111 1    
   218  110  112 1    
   219  110  231 1    
   220  111  232 1    
   221  111  233 1    
   222  111  234 1    
   223  112  113 2    
   224  112  114 am   BACKBONE|DICT|INTERRES
   225  114  115 1    
   226  114  235 1    
   227  115  116 1    
   228  115  117 1    
   229  115  236 1    
   230  116  237 1    
   231  116  238 1    
   232  116  239 1    
   233  117  118 2    
   234  117  119 am   BACKBONE|DICT|INTERRES
   235  119  120 1    
   236  119  240 1    
   237  120  121 1    
   238  120  124 1    
   239  120  241 1    
   240  121  122 am   BACKBONE|DICT|INTERRES
   241  121  123 2    
   242  122  242 1    
   243  122  243 1    
   244  124  125 1    
   245  124  244 1    
   246  124  245 1    
   247  125  126 1    
   248  126  246 1    
   249  126  247 1    
@<TRIPOS>SUBSTRUCTURE
     1 UNK         1 GROUP             0       ****    0 ROOT    
