@<TRIPOS>MOLECULE
3R540
247   249    1
SMALL
USER_CHARGES


@<TRIPOS>ATOM
      1 CA          3.8067   -9.9089  -48.5771 C.3       0 UNK        -0.1800 
      2 C           3.6527  -11.1430  -47.7010 C.2       0 UNK         0.5000 
      3 O           3.7809  -11.0481  -46.4804 O.2       0 UNK        -0.5000 
      4 N           3.3588  -12.2986  -48.3127 N.am      1 UNK        -0.5000 
      5 CA          3.1828  -13.5967  -47.6449 C.3       1 UNK         0.1400 
      6 C6          3.0306  -14.7633  -48.6538 C.3       23 UNK        -0.0398 
      7 S7          1.6530  -14.5377  -49.8342 S.3       23 UNK        -0.2404 
      8 C8          0.4334  -15.7353  -49.2113 C.3       23 UNK        -0.0205 
      9 C9          0.6068  -17.1007  -49.8587 C.ar      23 UNK        -0.0193 
     10 C10         0.0267  -17.3496  -51.1042 C.ar      23 UNK        -0.1150 
     11 C11         0.1673  -18.5958  -51.7177 C.ar      23 UNK        -0.0193 
     12 C12         0.8898  -19.6043  -51.0747 C.ar      23 UNK        -0.1150 
     13 C13         1.4753  -19.3704  -49.8270 C.ar      23 UNK        -0.0193 
     14 C14         1.3329  -18.1142  -49.2249 C.ar      23 UNK        -0.1150 
     15 C15         2.2851  -20.4691  -49.1503 C.3       23 UNK        -0.0205 
     16 S16         1.2378  -21.7618  -48.4037 S.3       23 UNK        -0.2404 
     17 C17         0.4669  -20.8472  -47.0235 C.3       23 UNK        -0.0398 
     18 CA         -1.0745  -20.9610  -46.9565 C.3       11 UNK         0.1400 
     19 N          -1.5976  -20.4037  -45.7041 N.am      11 UNK        -0.5000 
     20 C          -2.8694  -20.4844  -45.2864 C.2       10 UNK         0.5000 
     21 O          -3.7549  -21.0642  -45.9134 O.2       10 UNK        -0.5000 
     22 CA         -3.2246  -19.7629  -43.9732 C.3       10 UNK         0.1400 
     23 CB         -3.0392  -20.7042  -42.7741 C.3       10 UNK        -0.1800 
     24 N          -2.4449  -18.5413  -43.7627 N.am      10 UNK        -0.5000 
     25 C          -2.5408  -17.4351  -44.5150 C.2       9 UNK         0.5000 
     26 O          -3.3424  -17.3090  -45.4398 O.2       9 UNK        -0.5000 
     27 CA         -1.5357  -16.3034  -44.2230 C.3       9 UNK         0.1400 
     28 CB         -1.9803  -15.4603  -43.0201 C.3       9 UNK        -0.1800 
     29 N          -0.1811  -16.8125  -44.0017 N.am      9 UNK        -0.5000 
     30 C           0.5429  -17.4302  -44.9465 C.2       8 UNK         0.5000 
     31 O           0.1721  -17.5465  -46.1134 O.2       8 UNK        -0.5000 
     32 CA          1.8626  -18.0909  -44.5106 C.3       8 UNK         0.1400 
     33 CB          3.0459  -17.1348  -44.6657 C.3       8 UNK        -0.1800 
     34 N           1.8059  -18.5780  -43.1337 N.am      8 UNK        -0.5000 
     35 C           1.1693  -19.6991  -42.7709 C.2       7 UNK         0.5000 
     36 O           0.5798  -20.4338  -43.5633 O.2       7 UNK        -0.5000 
     37 CA          1.1561  -20.0311  -41.2680 C.3       7 UNK         0.1400 
     38 CB          2.4910  -20.6561  -40.8356 C.3       7 UNK        -0.1800 
     39 N           0.8727  -18.8626  -40.4335 N.am      7 UNK        -0.5000 
     40 C          -0.2834  -18.1851  -40.4491 C.2       6 UNK         0.5000 
     41 O          -1.2380  -18.4831  -41.1646 O.2       6 UNK        -0.5000 
     42 CA         -0.3877  -16.9506  -39.5362 C.3       6 UNK         0.1400 
     43 CB         -0.9652  -17.3452  -38.1688 C.3       6 UNK        -0.1800 
     44 N           0.8760  -16.2370  -39.3371 N.am      6 UNK        -0.5000 
     45 C           1.6088  -15.6669  -40.3035 C.2       5 UNK         0.5000 
     46 O           1.3329  -15.7488  -41.5040 O.2       5 UNK        -0.5000 
     47 CA          2.8296  -14.8614  -39.8113 C.3       5 UNK         0.1400 
     48 CB          3.8439  -15.7515  -39.0605 C.3       5 UNK        -0.1800 
     49 N           3.4788  -14.0803  -40.8691 N.am      5 UNK        -0.5000 
     50 C           4.2062  -14.5167  -41.9061 C.2       4 UNK         0.5000 
     51 O           4.5258  -15.6944  -42.0759 O.2       4 UNK        -0.5000 
     52 CA          4.6606  -13.4357  -42.9121 C.3       4 UNK         0.1400 
     53 CB          5.3404  -14.0231  -44.1627 C.3       4 UNK        -0.1800 
     54 N           3.5613  -12.5625  -43.3367 N.am      4 UNK        -0.5000 
     55 C           3.1122  -11.4942  -42.6618 C.2       3 UNK         0.5000 
     56 O           3.5333  -11.1848  -41.5462 O.2       3 UNK        -0.5000 
     57 CA          2.0176  -10.6254  -43.3120 C.3       3 UNK         0.1400 
     58 CB          2.5827   -9.2480  -43.6954 C.3       3 UNK        -0.1800 
     59 N           1.4467  -11.2454  -44.5072 N.am      3 UNK        -0.5000 
     60 C           0.3059  -11.9492  -44.5307 C.2       2 UNK         0.5000 
     61 O          -0.4188  -12.1040  -43.5478 O.2       2 UNK        -0.5000 
     62 CA         -0.1026  -12.5963  -45.8720 C.3       2 UNK         0.1400 
     63 CB         -1.1983  -11.7706  -46.5621 C.3       2 UNK        -0.1800 
     64 N           1.0086  -12.7837  -46.8071 N.am      2 UNK        -0.5000 
     65 C           2.0515  -13.5975  -46.5936 C.2       1 UNK         0.5000 
     66 O           2.1691  -14.2828  -45.5821 O.2       1 UNK        -0.5000 
     67 C          -1.7776  -20.3884  -48.2098 C.2       11 UNK         0.5000 
     68 O          -1.9665  -21.1275  -49.1751 O.2       11 UNK        -0.5000 
     69 N          -2.2506  -19.1338  -48.1548 N.am      12 UNK        -0.5000 
     70 CA         -3.0571  -18.5105  -49.2126 C.3       12 UNK         0.1400 
     71 CB         -3.2970  -17.0361  -48.8605 C.3       12 UNK        -0.1800 
     72 C          -4.4055  -19.2218  -49.4681 C.2       12 UNK         0.5000 
     73 O          -4.9427  -19.1430  -50.5745 O.2       12 UNK        -0.5000 
     74 N          -4.9127  -19.9247  -48.4465 N.am      13 UNK        -0.5000 
     75 CA         -6.1282  -20.7328  -48.4814 C.3       13 UNK         0.1400 
     76 CB         -6.9308  -20.4710  -47.1950 C.3       13 UNK        -0.1800 
     77 C          -5.8207  -22.2338  -48.6690 C.2       13 UNK         0.5000 
     78 O          -6.7071  -23.0566  -48.4382 O.2       13 UNK        -0.5000 
     79 N          -4.5960  -22.5751  -49.0954 N.am      14 UNK        -0.5000 
     80 CA         -4.1692  -23.9444  -49.3858 C.3       14 UNK         0.1400 
     81 CB         -3.3092  -24.4756  -48.2291 C.3       14 UNK        -0.1800 
     82 C          -3.4008  -24.0373  -50.7116 C.2       14 UNK         0.5000 
     83 O          -3.5683  -25.0185  -51.4350 O.2       14 UNK        -0.5000 
     84 N          -2.5633  -23.0378  -51.0179 N.am      15 UNK        -0.5000 
     85 CA         -1.6688  -22.9619  -52.1816 C.3       15 UNK         0.1400 
     86 CB         -2.4790  -22.9592  -53.4952 C.3       15 UNK        -0.1800 
     87 C          -0.5657  -24.0429  -52.1791 C.2       15 UNK         0.5000 
     88 O          -0.0056  -24.3475  -53.2324 O.2       15 UNK        -0.5000 
     89 N          -0.3005  -24.6215  -50.9966 N.am      16 UNK        -0.5000 
     90 CA          0.6135  -25.7358  -50.7157 C.3       16 UNK         0.1400 
     91 CB          2.0746  -25.3210  -50.9863 C.3       16 UNK        -0.1800 
     92 C           0.2356  -27.0652  -51.4132 C.2       16 UNK         0.5000 
     93 O           1.0651  -27.9750  -51.4657 O.2       16 UNK        -0.5000 
     94 N          -0.9998  -27.1676  -51.9245 N.am      17 UNK        -0.5000 
     95 CA         -1.4961  -28.3113  -52.6974 C.3       17 UNK         0.1400 
     96 CB         -1.3057  -28.0112  -54.1958 C.3       17 UNK        -0.1800 
     97 C          -2.9647  -28.6575  -52.3833 C.2       17 UNK         0.5000 
     98 O          -3.5172  -29.5540  -53.0217 O.2       17 UNK        -0.5000 
     99 N          -3.5794  -27.9309  -51.4369 N.am      18 UNK        -0.5000 
    100 CA        -5.0041  -27.9501  -51.0750 C.3       18 UNK         0.1400 
    101 CB        -5.4187  -29.3199  -50.4981 C.3       18 UNK        -0.1800 
    102 C         -5.9331  -27.4661  -52.2136 C.2       18 UNK         0.5000 
    103 O         -7.1119  -27.8236  -52.2401 O.2       18 UNK        -0.5000 
    104 N         -5.3878  -26.6526  -53.1283 N.am      19 UNK        -0.5000 
    105 CA        -6.1064  -26.0498  -54.2506 C.3       19 UNK         0.1400 
    106 CB        -5.1255  -25.8068  -55.4082 C.3       19 UNK        -0.1800 
    107 C         -6.8066  -24.7423  -53.8404 C.2       19 UNK         0.5000 
    108 O         -7.9227  -24.4917  -54.2972 O.2       19 UNK        -0.5000 
    109 N         -6.1468  -23.9672  -52.9636 N.am      20 UNK        -0.5000 
    110 CA        -6.5840  -22.6981  -52.3668 C.3       20 UNK         0.1400 
    111 CB        -7.8655  -22.9214  -51.5346 C.3       20 UNK        -0.1800 
    112 C         -6.7607  -21.5314  -53.3644 C.2       20 UNK         0.5000 
    113 O         -6.6227  -21.7054  -54.5768 O.2       20 UNK        -0.5000 
    114 N         -7.0632  -20.3480  -52.8064 N.am      21 UNK        -0.5000 
    115 CA        -7.4258  -19.0991  -53.4897 C.3       21 UNK         0.1400 
    116 CB        -8.8020  -19.2456  -54.1725 C.3       21 UNK        -0.1800 
    117 C         -6.3379  -18.5612  -54.4434 C.2       21 UNK         0.5000 
    118 O         -6.6573  -17.9871  -55.4866 O.2       21 UNK        -0.5000 
    119 N         -5.0695  -18.7579  -54.0685 N.am      22 UNK        -0.5000 
    120 CA        -3.8925  -18.3548  -54.8541 C.3       22 UNK         0.1400 
    121 C         -3.4591  -16.8693  -54.6734 C.2       22 UNK         0.5000 
    122 N         -4.0567  -16.1062  -53.7660 N.am      22 UNK        -0.7600 
    123 O         -2.5747  -16.3964  -55.3821 O.2       22 UNK        -0.5000 
    124 C124       -2.7208  -19.3446  -54.6465 C.3       23 UNK        -0.0398 
    125 S125       -2.1607  -19.4414  -52.9121 S.3       23 UNK        -0.2404 
    126 C126       -0.4571  -18.8398  -53.0788 C.3       23 UNK        -0.0205 
    127 H127        4.8075   -9.4925  -48.4640 H         1 UNK         0.0600 
    128 H128        3.0842   -9.1479  -48.2822 H         1 UNK         0.0600 
    129 H129        3.6498  -10.1380  -49.6314 H         1 UNK         0.0600 
    130 H130        3.2440  -12.3120  -49.3167 H         1 UNK         0.3000 
    131 H131        4.1053  -13.7785  -47.0895 H         1 UNK         0.0600 
    132 H132        2.9275  -15.7154  -48.1308 H         1 UNK         0.0800 
    133 H133        3.9479  -14.8547  -49.2367 H         1 UNK         0.0800 
    134 H134       -0.5610  -15.3502  -49.4384 H         1 UNK         0.0800 
    135 H135        0.4859  -15.8088  -48.1243 H         1 UNK         0.0800 
    136 H136       -0.5353  -16.5697  -51.5990 H         1 UNK         0.1150 
    137 H137        0.9982  -20.5718  -51.5441 H         1 UNK         0.1150 
    138 H138        1.7844  -17.9238  -48.2618 H         1 UNK         0.1150 
    139 H139        2.9399  -20.9350  -49.8881 H         1 UNK         0.0800 
    140 H140        2.9420  -20.0498  -48.3866 H         1 UNK         0.0800 
    141 H141        0.7637  -19.8027  -47.0681 H         1 UNK         0.0800 
    142 H142        0.9023  -21.2406  -46.1044 H         1 UNK         0.0800 
    143 H143       -1.3150  -22.0254  -46.9309 H         1 UNK         0.0600 
    144 H144       -0.9251  -19.9560  -45.0941 H         1 UNK         0.3000 
    145 H145       -4.2790  -19.4838  -44.0262 H         1 UNK         0.0600 
    146 H146       -3.3723  -20.2333  -41.8491 H         1 UNK         0.0600 
    147 H147       -1.9952  -20.9916  -42.6454 H         1 UNK         0.0600 
    148 H148       -3.6198  -21.6189  -42.9008 H         1 UNK         0.0600 
    149 H149       -1.8077  -18.5440  -42.9703 H         1 UNK         0.3000 
    150 H150       -1.5068  -15.6537  -45.0995 H         1 UNK         0.0600 
    151 H151       -2.9344  -14.9720  -43.2212 H         1 UNK         0.0600 
    152 H152       -1.2545  -14.6786  -42.7941 H         1 UNK         0.0600 
    153 H153       -2.1079  -16.0688  -42.1259 H         1 UNK         0.0600 
    154 H154        0.2137  -16.7021  -43.0748 H         1 UNK         0.3000 
    155 H155        2.0430  -18.9416  -45.1705 H         1 UNK         0.0600 
    156 H156        3.1541  -16.8116  -45.7014 H         1 UNK         0.0600 
    157 H157        3.9833  -17.6050  -44.3688 H         1 UNK         0.0600 
    158 H158        2.9060  -16.2458  -44.0524 H         1 UNK         0.0600 
    159 H159        2.2228  -17.9907  -42.4246 H         1 UNK         0.3000 
    160 H160        0.3653  -20.7651  -41.0985 H         1 UNK         0.0600 
    161 H161        3.3203  -19.9563  -40.9470 H         1 UNK         0.0600 
    162 H162        2.7215  -21.5372  -41.4360 H         1 UNK         0.0600 
    163 H163        2.4578  -20.9742  -39.7935 H         1 UNK         0.0600 
    164 H164        1.6083  -18.5451  -39.8199 H         1 UNK         0.3000 
    165 H165       -1.0832  -16.2539  -40.0069 H         1 UNK         0.0600 
    166 H166       -1.1420  -16.4680  -37.5462 H         1 UNK         0.0600 
    167 H167       -1.9211  -17.8587  -38.2818 H         1 UNK         0.0600 
    168 H168       -0.2955  -18.0139  -37.6265 H         1 UNK         0.0600 
    169 H169        1.1706  -16.1233  -38.3780 H         1 UNK         0.3000 
    170 H170        2.4489  -14.1236  -39.1036 H         1 UNK         0.0600 
    171 H171        4.7325  -15.1862  -38.7792 H         1 UNK         0.0600 
    172 H172        3.4151  -16.1501  -38.1408 H         1 UNK         0.0600 
    173 H173        4.1647  -16.6032  -39.6609 H         1 UNK         0.0600 
    174 H174        3.2926  -13.0837  -40.8469 H         1 UNK         0.3000 
    175 H175        5.4084  -12.8279  -42.3986 H         1 UNK         0.0600 
    176 H176        4.6721  -14.6829  -44.7143 H         1 UNK         0.0600 
    177 H177        5.6667  -13.2344  -44.8411 H         1 UNK         0.0600 
    178 H178        6.2231  -14.6036  -43.8920 H         1 UNK         0.0600 
    179 H179        3.1036  -12.8168  -44.2026 H         1 UNK         0.3000 
    180 H180        1.2398  -10.4691  -42.5617 H         1 UNK         0.0600 
    181 H181        1.8116   -8.6132  -44.1321 H         1 UNK         0.0600 
    182 H182        3.3966   -9.3314  -44.4163 H         1 UNK         0.0600 
    183 H183        2.9732   -8.7276  -42.8200 H         1 UNK         0.0600 
    184 H184        2.0081  -11.1818  -45.3493 H         1 UNK         0.3000 
    185 H185       -0.5117  -13.5813  -45.6421 H         1 UNK         0.0600 
    186 H186       -0.8394  -10.7783  -46.8381 H         1 UNK         0.0600 
    187 H187       -1.5538  -12.2646  -47.4667 H         1 UNK         0.0600 
    188 H188       -2.0597  -11.6380  -45.9061 H         1 UNK         0.0600 
    189 H189        0.9901  -12.2393  -47.6572 H         1 UNK         0.3000 
    190 H190       -2.0796  -18.5823  -47.3244 H         1 UNK         0.3000 
    191 H191       -2.4760  -18.5536  -50.1340 H         1 UNK         0.0600 
    192 H192       -2.3680  -16.5334  -48.5970 H         1 UNK         0.0600 
    193 H193       -3.9809  -16.9305  -48.0179 H         1 UNK         0.0600 
    194 H194       -3.7328  -16.5019  -49.7056 H         1 UNK         0.0600 
    195 H195       -4.3799  -19.9860  -47.5856 H         1 UNK         0.3000 
    196 H196       -6.7497  -20.4291  -49.3255 H         1 UNK         0.0600 
    197 H197       -7.1332  -19.4076  -47.0665 H         1 UNK         0.0600 
    198 H198       -6.3995  -20.8202  -46.3093 H         1 UNK         0.0600 
    199 H199       -7.8943  -20.9813  -47.2215 H         1 UNK         0.0600 
    200 H200       -3.9090  -21.8446  -49.2379 H         1 UNK         0.3000 
    201 H201       -5.0402  -24.5948  -49.4909 H         1 UNK         0.0600 
    202 H202       -3.8672  -24.4711  -47.2925 H         1 UNK         0.0600 
    203 H203       -2.4119  -23.8736  -48.0841 H         1 UNK         0.0600 
    204 H204       -2.9924  -25.5029  -48.4143 H         1 UNK         0.0600 
    205 H205       -2.4209  -22.2878  -50.3401 H         1 UNK         0.3000 
    206 H206       -1.1488  -22.0081  -52.0976 H         1 UNK         0.0600 
    207 H207       -2.8616  -23.9503  -53.7348 H         1 UNK         0.0600 
    208 H208       -3.3273  -22.2774  -53.4392 H         1 UNK         0.0600 
    209 H209       -1.8578  -22.6406  -54.3328 H         1 UNK         0.0600 
    210 H210       -0.8084  -24.2708  -50.1977 H         1 UNK         0.3000 
    211 H211        0.5243  -25.9296  -49.6459 H         1 UNK         0.0600 
    212 H212        2.2660  -25.1808  -52.0504 H         1 UNK         0.0600 
    213 H213        2.7714  -26.0791  -50.6272 H         1 UNK         0.0600 
    214 H214        2.3203  -24.3897  -50.4753 H         1 UNK         0.0600 
    215 H215       -1.6055  -26.3598  -51.8706 H         1 UNK         0.3000 
    216 H216       -0.9210  -29.2052  -52.4480 H         1 UNK         0.0600 
    217 H217       -1.6294  -28.8498  -54.8135 H         1 UNK         0.0600 
    218 H218       -0.2575  -27.8246  -54.4300 H         1 UNK         0.0600 
    219 H219       -1.8773  -27.1344  -54.5031 H         1 UNK         0.0600 
    220 H220       -3.0437  -27.2058  -50.9825 H         1 UNK         0.3000 
    221 H221       -5.1158  -27.2165  -50.2754 H         1 UNK         0.0600 
    222 H222       -5.4248  -30.0984  -51.2611 H         1 UNK         0.0600 
    223 H223       -4.7427  -29.6337  -49.7027 H         1 UNK         0.0600 
    224 H224       -6.4212  -29.2764  -50.0712 H         1 UNK         0.0600 
    225 H225       -4.4308  -26.3619  -52.9810 H         1 UNK         0.3000 
    226 H226       -6.8715  -26.7460  -54.6013 H         1 UNK         0.0600 
    227 H227       -4.6569  -26.7375  -55.7288 H         1 UNK         0.0600 
    228 H228       -5.6417  -25.3874  -56.2726 H         1 UNK         0.0600 
    229 H229       -4.3339  -25.1112  -55.1317 H         1 UNK         0.0600 
    230 H230       -5.2354  -24.2904  -52.6668 H         1 UNK         0.3000 
    231 H231       -5.7836  -22.3994  -51.6905 H         1 UNK         0.0600 
    232 H232       -8.0918  -22.0604  -50.9058 H         1 UNK         0.0600 
    233 H233       -7.7614  -23.7820  -50.8737 H         1 UNK         0.0600 
    234 H234       -8.7358  -23.0942  -52.1684 H         1 UNK         0.0600 
    235 H235       -7.0756  -20.2878  -51.7985 H         1 UNK         0.3000 
    236 H236       -7.5291  -18.3470  -52.7062 H         1 UNK         0.0600 
    237 H237       -8.7662  -19.9497  -55.0045 H         1 UNK         0.0600 
    238 H238       -9.5560  -19.5974  -53.4684 H         1 UNK         0.0600 
    239 H239       -9.1500  -18.2900  -54.5662 H         1 UNK         0.0600 
    240 H240       -4.8814  -19.2024  -53.1796 H         1 UNK         0.3000 
    241 H241       -4.1642  -18.4346  -55.9085 H         1 UNK         0.0600 
    242 H242       -3.7756  -15.1442  -53.6625 H         1 UNK         0.3800 
    243 H243       -4.7788  -16.4865  -53.1762 H         1 UNK         0.3800 
    244 H244       -1.8852  -19.0918  -55.3012 H         1 UNK         0.0800 
    245 H245       -3.0348  -20.3424  -54.9538 H         1 UNK         0.0800 
    246 H246       -0.4504  -17.9148  -53.6581 H         1 UNK         0.0800 
    247 H247        0.1315  -19.5653  -53.6424 H         1 UNK         0.0800 
@<TRIPOS>BOND
     1    1    2 1    
     2    1  127 1    
     3    1  128 1    
     4    1  129 1    
     5    2    3 2    
     6    2    4 am   BACKBONE|DICT|INTERRES
     7    4    5 1    
     8    4  130 1    
     9    5    6 1    
    10    5   65 1    
    11    5  131 1    
    12    6    7 1    
    13    6  132 1    
    14    6  133 1    
    15    7    8 1    
    16    8    9 1    
    17    8  134 1    
    18    8  135 1    
    19    9   10 ar   
    20    9   14 ar   
    21   10   11 ar   
    22   10  136 1    
    23   11   12 ar   
    24   11  126 1    
    25   12   13 ar   
    26   12  137 1    
    27   13   14 ar   
    28   13   15 1    
    29   14  138 1    
    30   15   16 1    
    31   15  139 1    
    32   15  140 1    
    33   16   17 1    
    34   17   18 1    
    35   17  141 1    
    36   17  142 1    
    37   18   19 1    
    38   18   67 1    
    39   18  143 1    
    40   19   20 am   BACKBONE|DICT|INTERRES
    41   19  144 1    
    42   20   21 2    
    43   20   22 1    
    44   22   23 1    
    45   22   24 1    
    46   22  145 1    
    47   23  146 1    
    48   23  147 1    
    49   23  148 1    
    50   24   25 am   BACKBONE|DICT|INTERRES
    51   24  149 1    
    52   25   26 2    
    53   25   27 1    
    54   27   28 1    
    55   27   29 1    
    56   27  150 1    
    57   28  151 1    
    58   28  152 1    
    59   28  153 1    
    60   29   30 am   BACKBONE|DICT|INTERRES
    61   29  154 1    
    62   30   31 2    
    63   30   32 1    
    64   32   33 1    
    65   32   34 1    
    66   32  155 1    
    67   33  156 1    
    68   33  157 1    
    69   33  158 1    
    70   34   35 am   BACKBONE|DICT|INTERRES
    71   34  159 1    
    72   35   36 2    
    73   35   37 1    
    74   37   38 1    
    75   37   39 1    
    76   37  160 1    
    77   38  161 1    
    78   38  162 1    
    79   38  163 1    
    80   39   40 am   BACKBONE|DICT|INTERRES
    81   39  164 1    
    82   40   41 2    
    83   40   42 1    
    84   42   43 1    
    85   42   44 1    
    86   42  165 1    
    87   43  166 1    
    88   43  167 1    
    89   43  168 1    
    90   44   45 am   BACKBONE|DICT|INTERRES
    91   44  169 1    
    92   45   46 2    
    93   45   47 1    
    94   47   48 1    
    95   47   49 1    
    96   47  170 1    
    97   48  171 1    
    98   48  172 1    
    99   48  173 1    
   100   49   50 am   BACKBONE|DICT|INTERRES
   101   49  174 1    
   102   50   51 2    
   103   50   52 1    
   104   52   53 1    
   105   52   54 1    
   106   52  175 1    
   107   53  176 1    
   108   53  177 1    
   109   53  178 1    
   110   54   55 am   BACKBONE|DICT|INTERRES
   111   54  179 1    
   112   55   56 2    
   113   55   57 1    
   114   57   58 1    
   115   57   59 1    
   116   57  180 1    
   117   58  181 1    
   118   58  182 1    
   119   58  183 1    
   120   59   60 am   BACKBONE|DICT|INTERRES
   121   59  184 1    
   122   60   61 2    
   123   60   62 1    
   124   62   63 1    
   125   62   64 1    
   126   62  185 1    
   127   63  186 1    
   128   63  187 1    
   129   63  188 1    
   130   64   65 am   BACKBONE|DICT|INTERRES
   131   64  189 1    
   132   65   66 2    
   133   67   68 2    
   134   67   69 am   BACKBONE|DICT|INTERRES
   135   69   70 1    
   136   69  190 1    
   137   70   71 1    
   138   70   72 1    
   139   70  191 1    
   140   71  192 1    
   141   71  193 1    
   142   71  194 1    
   143   72   73 2    
   144   72   74 am   BACKBONE|DICT|INTERRES
   145   74   75 1    
   146   74  195 1    
   147   75   76 1    
   148   75   77 1    
   149   75  196 1    
   150   76  197 1    
   151   76  198 1    
   152   76  199 1    
   153   77   78 2    
   154   77   79 am   BACKBONE|DICT|INTERRES
   155   79   80 1    
   156   79  200 1    
   157   80   81 1    
   158   80   82 1    
   159   80  201 1    
   160   81  202 1    
   161   81  203 1    
   162   81  204 1    
   163   82   83 2    
   164   82   84 am   BACKBONE|DICT|INTERRES
   165   84   85 1    
   166   84  205 1    
   167   85   86 1    
   168   85   87 1    
   169   85  206 1    
   170   86  207 1    
   171   86  208 1    
   172   86  209 1    
   173   87   88 2    
   174   87   89 am   BACKBONE|DICT|INTERRES
   175   89   90 1    
   176   89  210 1    
   177   90   91 1    
   178   90   92 1    
   179   90  211 1    
   180   91  212 1    
   181   91  213 1    
   182   91  214 1    
   183   92   93 2    
   184   92   94 am   BACKBONE|DICT|INTERRES
   185   94   95 1    
   186   94  215 1    
   187   95   96 1    
   188   95   97 1    
   189   95  216 1    
   190   96  217 1    
   191   96  218 1    
   192   96  219 1    
   193   97   98 2    
   194   97   99 am   BACKBONE|DICT|INTERRES
   195   99  100 1    
   196   99  220 1    
   197  100  101 1    
   198  100  102 1    
   199  100  221 1    
   200  101  222 1    
   201  101  223 1    
   202  101  224 1    
   203  102  103 2    
   204  102  104 am   BACKBONE|DICT|INTERRES
   205  104  105 1    
   206  104  225 1    
   207  105  106 1    
   208  105  107 1    
   209  105  226 1    
   210  106  227 1    
   211  106  228 1    
   212  106  229 1    
   213  107  108 2    
   214  107  109 am   BACKBONE|DICT|INTERRES
   215  109  110 1    
   216  109  230 1    
   217  110  111 1    
   218  110  112 1    
   219  110  231 1    
   220  111  232 1    
   221  111  233 1    
   222  111  234 1    
   223  112  113 2    
   224  112  114 am   BACKBONE|DICT|INTERRES
   225  114  115 1    
   226  114  235 1    
   227  115  116 1    
   228  115  117 1    
   229  115  236 1    
   230  116  237 1    
   231  116  238 1    
   232  116  239 1    
   233  117  118 2    
   234  117  119 am   BACKBONE|DICT|INTERRES
   235  119  120 1    
   236  119  240 1    
   237  120  121 1    
   238  120  124 1    
   239  120  241 1    
   240  121  122 am   BACKBONE|DICT|INTERRES
   241  121  123 2    
   242  122  242 1    
   243  122  243 1    
   244  124  125 1    
   245  124  244 1    
   246  124  245 1    
   247  125  126 1    
   248  126  246 1    
   249  126  247 1    
@<TRIPOS>SUBSTRUCTURE
     1 UNK         1 GROUP             0       ****    0 ROOT    
