@<TRIPOS>MOLECULE
3R540
247   249    1
SMALL
USER_CHARGES


@<TRIPOS>ATOM
      1 CA         -1.1063  -15.6230  -49.5279 C.3       0 UNK        -0.1800 
      2 C          -0.0758  -14.9365  -48.6470 C.2       0 UNK         0.5000 
      3 O          -0.4378  -14.3713  -47.6158 O.2       0 UNK        -0.5000 
      4 N           1.2039  -14.9933  -49.0440 N.am      1 UNK        -0.5000 
      5 CA          2.3346  -14.3434  -48.3638 C.3       1 UNK         0.1400 
      6 C6          3.6813  -14.5422  -49.1026 C.3       23 UNK        -0.0398 
      7 S7          3.7087  -13.7822  -50.7600 S.3       23 UNK        -0.2404 
      8 C8          3.8929  -15.2372  -51.8394 C.3       23 UNK        -0.0205 
      9 C9          2.5977  -16.0256  -51.9387 C.ar      23 UNK        -0.0193 
     10 C10         1.5414  -15.5259  -52.7032 C.ar      23 UNK        -0.1150 
     11 C11         0.3363  -16.2240  -52.8014 C.ar      23 UNK        -0.0193 
     12 C12         0.1994  -17.4362  -52.1151 C.ar      23 UNK        -0.1150 
     13 C13         1.2461  -17.9535  -51.3452 C.ar      23 UNK        -0.0193 
     14 C14         2.4490  -17.2437  -51.2698 C.ar      23 UNK        -0.1150 
     15 C15         1.0933  -19.2965  -50.6371 C.3       23 UNK        -0.0205 
     16 S16         1.4772  -19.2160  -48.8535 S.3       23 UNK        -0.2404 
     17 C17        -0.1528  -19.4387  -48.0602 C.3       23 UNK        -0.0398 
     18 CA         -0.6219  -20.9142  -47.9807 C.3       11 UNK         0.1400 
     19 N           0.3820  -21.8252  -47.4267 N.am      11 UNK        -0.5000 
     20 C           0.2969  -23.1623  -47.4903 C.2       10 UNK         0.5000 
     21 O          -0.6367  -23.7617  -48.0206 O.2       10 UNK        -0.5000 
     22 CA          1.4284  -23.9734  -46.8370 C.3       10 UNK         0.1400 
     23 CB          2.5342  -24.2664  -47.8618 C.3       10 UNK        -0.1800 
     24 N           2.0181  -23.3199  -45.6702 N.am      10 UNK        -0.5000 
     25 C           1.3740  -23.0192  -44.5343 C.2       9 UNK         0.5000 
     26 O           0.1815  -23.2711  -44.3383 O.2       9 UNK        -0.5000 
     27 CA          2.2163  -22.3334  -43.4341 C.3       9 UNK         0.1400 
     28 CB          3.5070  -21.6713  -43.9680 C.3       9 UNK        -0.1800 
     29 N           1.4772  -21.3571  -42.6320 N.am      9 UNK        -0.5000 
     30 C           0.7297  -20.3323  -43.0607 C.2       8 UNK         0.5000 
     31 O           0.4449  -20.1156  -44.2412 O.2       8 UNK        -0.5000 
     32 CA          0.2682  -19.3392  -41.9784 C.3       8 UNK         0.1400 
     33 CB         -0.3934  -20.0108  -40.7555 C.3       8 UNK        -0.1800 
     34 N           1.3604  -18.4383  -41.5998 N.am      8 UNK        -0.5000 
     35 C           2.4905  -18.7375  -40.9399 C.2       7 UNK         0.5000 
     36 O           2.7053  -19.8315  -40.4163 O.2       7 UNK        -0.5000 
     37 CA          3.5853  -17.6592  -40.8595 C.3       7 UNK         0.1400 
     38 CB          4.7887  -18.0437  -41.7432 C.3       7 UNK        -0.1800 
     39 N           3.1198  -16.3135  -41.2108 N.am      7 UNK        -0.5000 
     40 C           3.7240  -15.1865  -40.8112 C.2       6 UNK         0.5000 
     41 O           4.7145  -15.1612  -40.0791 O.2       6 UNK        -0.5000 
     42 CA          3.1263  -13.8611  -41.3088 C.3       6 UNK         0.1400 
     43 CB          3.6509  -13.5171  -42.7093 C.3       6 UNK        -0.1800 
     44 N           1.6654  -13.8847  -41.3341 N.am      6 UNK        -0.5000 
     45 C           0.8919  -13.6363  -40.2695 C.2       5 UNK         0.5000 
     46 O           1.3455  -13.4251  -39.1432 O.2       5 UNK        -0.5000 
     47 CA         -0.6383  -13.6230  -40.4837 C.3       5 UNK         0.1400 
     48 CB         -1.3301  -12.5114  -39.6679 C.3       5 UNK        -0.1800 
     49 N          -1.0660  -13.5686  -41.8871 N.am      5 UNK        -0.5000 
     50 C          -0.8519  -12.6110  -42.8013 C.2       4 UNK         0.5000 
     51 O          -0.2059  -11.5872  -42.5729 O.2       4 UNK        -0.5000 
     52 CA         -1.4512  -12.8542  -44.2096 C.3       4 UNK         0.1400 
     53 CB         -0.9028  -11.8715  -45.2599 C.3       4 UNK        -0.1800 
     54 N          -1.2491  -14.2191  -44.7078 N.am      4 UNK        -0.5000 
     55 C          -1.8555  -15.3290  -44.2662 C.2       3 UNK         0.5000 
     56 O          -2.7097  -15.3300  -43.3796 O.2       3 UNK        -0.5000 
     57 CA         -1.4037  -16.6689  -44.8696 C.3       3 UNK         0.1400 
     58 CB         -2.3531  -17.0985  -45.9992 C.3       3 UNK        -0.1800 
     59 N          -0.0200  -16.6684  -45.3527 N.am      3 UNK        -0.5000 
     60 C           1.0763  -16.5336  -44.5900 C.2       2 UNK         0.5000 
     61 O           1.0578  -16.3098  -43.3766 O.2       2 UNK        -0.5000 
     62 CA          2.4292  -16.6747  -45.3080 C.3       2 UNK         0.1400 
     63 CB          2.8488  -18.1479  -45.3852 C.3       2 UNK        -0.1800 
     64 N           2.3995  -16.1018  -46.6527 N.am      2 UNK        -0.5000 
     65 C           2.4765  -14.7854  -46.8945 C.2       1 UNK         0.5000 
     66 O           2.6270  -13.9348  -46.0177 O.2       1 UNK        -0.5000 
     67 C          -1.9527  -21.0357  -47.2122 C.2       11 UNK         0.5000 
     68 O          -2.9989  -21.2052  -47.8378 O.2       11 UNK        -0.5000 
     69 N          -1.8958  -21.0009  -45.8718 N.am      12 UNK        -0.5000 
     70 CA         -3.0671  -21.1904  -45.0123 C.3       12 UNK         0.1400 
     71 CB         -2.7272  -20.8340  -43.5623 C.3       12 UNK        -0.1800 
     72 C          -3.6368  -22.6162  -45.0966 C.2       12 UNK         0.5000 
     73 O          -4.8574  -22.7705  -45.1516 O.2       12 UNK        -0.5000 
     74 N          -2.7505  -23.6224  -45.1601 N.am      13 UNK        -0.5000 
     75 CA         -3.1054  -25.0358  -45.3332 C.3       13 UNK         0.1400 
     76 CB         -1.8429  -25.9005  -45.2123 C.3       13 UNK        -0.1800 
     77 C          -3.8349  -25.3246  -46.6612 C.2       13 UNK         0.5000 
     78 O          -4.6930  -26.2059  -46.7045 O.2       13 UNK        -0.5000 
     79 N          -3.5240  -24.5392  -47.7003 N.am      14 UNK        -0.5000 
     80 CA         -4.1843  -24.5342  -49.0055 C.3       14 UNK         0.1400 
     81 CB         -3.1663  -24.0864  -50.0667 C.3       14 UNK        -0.1800 
     82 C          -5.4660  -23.6707  -49.0401 C.2       14 UNK         0.5000 
     83 O          -5.8844  -23.2644  -50.1256 O.2       14 UNK        -0.5000 
     84 N          -6.0645  -23.4025  -47.8693 N.am      15 UNK        -0.5000 
     85 CA         -7.2982  -22.6432  -47.6457 C.3       15 UNK         0.1400 
     86 CB         -8.5081  -23.3596  -48.2826 C.3       15 UNK        -0.1800 
     87 C          -7.1559  -21.1748  -48.0852 C.2       15 UNK         0.5000 
     88 O          -7.9456  -20.6873  -48.8942 O.2       15 UNK        -0.5000 
     89 N          -6.1122  -20.5138  -47.5625 N.am      16 UNK        -0.5000 
     90 CA         -5.6757  -19.1523  -47.9030 C.3       16 UNK         0.1400 
     91 CB         -6.7086  -18.1027  -47.4445 C.3       16 UNK        -0.1800 
     92 C          -5.2998  -19.0362  -49.3952 C.2       16 UNK         0.5000 
     93 O          -5.7190  -18.1063  -50.0854 O.2       16 UNK        -0.5000 
     94 N          -4.5254  -20.0300  -49.8484 N.am      17 UNK        -0.5000 
     95 CA         -3.9919  -20.2454  -51.1920 C.3       17 UNK         0.1400 
     96 CB         -3.0537  -19.0963  -51.5942 C.3       17 UNK        -0.1800 
     97 C          -5.0400  -20.5444  -52.2807 C.2       17 UNK         0.5000 
     98 O          -4.6717  -20.5908  -53.4543 O.2       17 UNK        -0.5000 
     99 N          -6.3017  -20.7904  -51.9031 N.am      18 UNK        -0.5000 
    100 CA        -7.3945  -21.1093  -52.8240 C.3       18 UNK         0.1400 
    101 CB        -8.7245  -21.1265  -52.0579 C.3       18 UNK        -0.1800 
    102 C         -7.1874  -22.4363  -53.5771 C.2       18 UNK         0.5000 
    103 O         -7.5008  -22.5114  -54.7657 O.2       18 UNK        -0.5000 
    104 N         -6.6433  -23.4471  -52.8856 N.am      19 UNK        -0.5000 
    105 CA        -6.3228  -24.7529  -53.4649 C.3       19 UNK         0.1400 
    106 CB        -6.2838  -25.8055  -52.3464 C.3       19 UNK        -0.1800 
    107 C         -4.9927  -24.7434  -54.2423 C.2       19 UNK         0.5000 
    108 O         -4.8300  -25.5337  -55.1726 O.2       19 UNK        -0.5000 
    109 N         -4.0647  -23.8631  -53.8433 N.am      20 UNK        -0.5000 
    110 CA        -2.7354  -23.7291  -54.4428 C.3       20 UNK         0.1400 
    111 CB        -1.7669  -23.1559  -53.3944 C.3       20 UNK        -0.1800 
    112 C         -2.7284  -22.8396  -55.6976 C.2       20 UNK         0.5000 
    113 O         -1.8326  -22.9824  -56.5312 O.2       20 UNK        -0.5000 
    114 N         -3.6779  -21.8941  -55.7735 N.am      21 UNK        -0.5000 
    115 CA        -3.7940  -20.8237  -56.7726 C.3       21 UNK         0.1400 
    116 CB        -4.1520  -21.4067  -58.1550 C.3       21 UNK        -0.1800 
    117 C         -2.5536  -19.9009  -56.8097 C.2       21 UNK         0.5000 
    118 O         -2.2325  -19.3393  -57.8584 O.2       21 UNK        -0.5000 
    119 N         -1.8662  -19.7944  -55.6627 N.am      22 UNK        -0.5000 
    120 CA        -0.5687  -19.1219  -55.4685 C.3       22 UNK         0.1400 
    121 C          0.6190  -19.7738  -56.2455 C.2       22 UNK         0.5000 
    122 N          0.5075  -21.0101  -56.7209 N.am      22 UNK        -0.7600 
    123 O          1.6759  -19.1671  -56.3958 O.2       22 UNK        -0.5000 
    124 C124       -0.6487  -17.5812  -55.6602 C.3       23 UNK        -0.0398 
    125 S125       -1.8476  -16.8171  -54.5129 S.3       23 UNK        -0.2404 
    126 C126       -0.8078  -15.6166  -53.6138 C.3       23 UNK        -0.0205 
    127 H127       -1.0983  -15.1880  -50.5259 H         1 UNK         0.0600 
    128 H128       -0.8965  -16.6881  -49.6055 H         1 UNK         0.0600 
    129 H129       -2.1096  -15.5028  -49.1195 H         1 UNK         0.0600 
    130 H130        1.4301  -15.4635  -49.9107 H         1 UNK         0.3000 
    131 H131        2.1165  -13.2733  -48.3494 H         1 UNK         0.0600 
    132 H132        4.4948  -14.0843  -48.5363 H         1 UNK         0.0800 
    133 H133        3.9286  -15.6025  -49.1743 H         1 UNK         0.0800 
    134 H134        4.7103  -15.8653  -51.4816 H         1 UNK         0.0800 
    135 H135        4.1834  -14.9008  -52.8357 H         1 UNK         0.0800 
    136 H136        1.6582  -14.5798  -53.2137 H         1 UNK         0.1150 
    137 H137       -0.7275  -17.9775  -52.1843 H         1 UNK         0.1150 
    138 H138        3.2679  -17.6416  -50.6868 H         1 UNK         0.1150 
    139 H139        0.0931  -19.7048  -50.7853 H         1 UNK         0.0800 
    140 H140        1.7785  -20.0061  -51.1024 H         1 UNK         0.0800 
    141 H141       -0.0705  -19.0226  -47.0556 H         1 UNK         0.0800 
    142 H142       -0.8904  -18.8313  -48.5865 H         1 UNK         0.0800 
    143 H143       -0.8189  -21.2435  -49.0034 H         1 UNK         0.0600 
    144 H144        1.1735  -21.4048  -46.9626 H         1 UNK         0.3000 
    145 H145        1.0096  -24.9255  -46.5076 H         1 UNK         0.0600 
    146 H146        3.3054  -24.9101  -47.4383 H         1 UNK         0.0600 
    147 H147        2.1299  -24.7785  -48.7361 H         1 UNK         0.0600 
    148 H148        3.0134  -23.3506  -48.2105 H         1 UNK         0.0600 
    149 H149        2.9957  -23.0783  -45.7413 H         1 UNK         0.3000 
    150 H150        2.5102  -23.1253  -42.7442 H         1 UNK         0.0600 
    151 H151        4.2044  -22.4118  -44.3613 H         1 UNK         0.0600 
    152 H152        4.0312  -21.1374  -43.1748 H         1 UNK         0.0600 
    153 H153        3.2946  -20.9554  -44.7621 H         1 UNK         0.0600 
    154 H154        1.6691  -21.3857  -41.6387 H         1 UNK         0.3000 
    155 H155       -0.4884  -18.7044  -42.4378 H         1 UNK         0.0600 
    156 H156       -0.7459  -19.2620  -40.0464 H         1 UNK         0.0600 
    157 H157        0.2799  -20.6794  -40.2201 H         1 UNK         0.0600 
    158 H158       -1.2589  -20.6013  -41.0542 H         1 UNK         0.0600 
    159 H159        1.2922  -17.5319  -42.0504 H         1 UNK         0.3000 
    160 H160        3.9132  -17.6505  -39.8178 H         1 UNK         0.0600 
    161 H161        4.5442  -17.9832  -42.8031 H         1 UNK         0.0600 
    162 H162        5.1211  -19.0626  -41.5395 H         1 UNK         0.0600 
    163 H163        5.6404  -17.3884  -41.5613 H         1 UNK         0.0600 
    164 H164        2.3147  -16.2368  -41.8205 H         1 UNK         0.3000 
    165 H165        3.4573  -13.0714  -40.6305 H         1 UNK         0.0600 
    166 H166        3.3388  -14.2555  -43.4451 H         1 UNK         0.0600 
    167 H167        3.2857  -12.5443  -43.0394 H         1 UNK         0.0600 
    168 H168        4.7408  -13.4786  -42.7222 H         1 UNK         0.0600 
    169 H169        1.2207  -14.0797  -42.2199 H         1 UNK         0.3000 
    170 H170       -0.9968  -14.5802  -40.1027 H         1 UNK         0.0600 
    171 H171       -1.1457  -12.6332  -38.6000 H         1 UNK         0.0600 
    172 H172       -0.9721  -11.5208  -39.9497 H         1 UNK         0.0600 
    173 H173       -2.4105  -12.5312  -39.8114 H         1 UNK         0.0600 
    174 H174       -1.6286  -14.3562  -42.1985 H         1 UNK         0.3000 
    175 H175       -2.5259  -12.6821  -44.1249 H         1 UNK         0.0600 
    176 H176        0.1728  -11.9929  -45.3967 H         1 UNK         0.0600 
    177 H177       -1.3805  -12.0232  -46.2281 H         1 UNK         0.0600 
    178 H178       -1.0865  -10.8364  -44.9695 H         1 UNK         0.0600 
    179 H179       -0.6011  -14.3159  -45.4816 H         1 UNK         0.3000 
    180 H180       -1.4749  -17.4144  -44.0770 H         1 UNK         0.0600 
    181 H181       -3.3907  -17.0876  -45.6626 H         1 UNK         0.0600 
    182 H182       -2.2831  -16.4337  -46.8594 H         1 UNK         0.0600 
    183 H183       -2.1408  -18.1119  -46.3325 H         1 UNK         0.0600 
    184 H184        0.1080  -16.7740  -46.3463 H         1 UNK         0.3000 
    185 H185        3.1822  -16.1528  -44.7158 H         1 UNK         0.0600 
    186 H186        3.8329  -18.2571  -45.8409 H         1 UNK         0.0600 
    187 H187        2.9009  -18.5868  -44.3892 H         1 UNK         0.0600 
    188 H188        2.1429  -18.7434  -45.9630 H         1 UNK         0.0600 
    189 H189        2.2801  -16.7398  -47.4266 H         1 UNK         0.3000 
    190 H190       -1.0011  -20.8721  -45.4073 H         1 UNK         0.3000 
    191 H191       -3.8440  -20.5008  -45.3487 H         1 UNK         0.0600 
    192 H192       -3.6039  -20.9292  -42.9204 H         1 UNK         0.0600 
    193 H193       -2.3786  -19.8051  -43.4835 H         1 UNK         0.0600 
    194 H194       -1.9570  -21.4947  -43.1643 H         1 UNK         0.0600 
    195 H195       -1.7621  -23.4086  -45.0716 H         1 UNK         0.3000 
    196 H196       -3.7820  -25.3061  -44.5200 H         1 UNK         0.0600 
    197 H197       -2.0922  -26.9615  -45.2540 H         1 UNK         0.0600 
    198 H198       -1.3286  -25.7232  -44.2675 H         1 UNK         0.0600 
    199 H199       -1.1422  -25.6979  -46.0213 H         1 UNK         0.0600 
    200 H200       -2.7692  -23.8726  -47.5871 H         1 UNK         0.3000 
    201 H201       -4.4899  -25.5534  -49.2492 H         1 UNK         0.0600 
    202 H202       -2.3057  -24.7551  -50.0893 H         1 UNK         0.0600 
    203 H203       -2.7978  -23.0802  -49.8690 H         1 UNK         0.0600 
    204 H204       -3.6023  -24.0929  -51.0644 H         1 UNK         0.0600 
    205 H205       -5.6075  -23.7273  -47.0268 H         1 UNK         0.3000 
    206 H206       -7.4592  -22.6266  -46.5668 H         1 UNK         0.0600 
    207 H207       -8.5997  -24.3803  -47.9116 H         1 UNK         0.0600 
    208 H208       -9.4375  -22.8422  -48.0424 H         1 UNK         0.0600 
    209 H209       -8.4327  -23.4053  -49.3691 H         1 UNK         0.0600 
    210 H210       -5.4980  -21.0316  -46.9491 H         1 UNK         0.3000 
    211 H211       -4.7572  -18.9726  -47.3425 H         1 UNK         0.0600 
    212 H212       -7.6440  -18.1805  -47.9993 H         1 UNK         0.0600 
    213 H213       -6.3262  -17.0920  -47.5914 H         1 UNK         0.0600 
    214 H214       -6.9369  -18.2121  -46.3844 H         1 UNK         0.0600 
    215 H215       -4.2063  -20.7021  -49.1545 H         1 UNK         0.3000 
    216 H216       -3.3838  -21.1466  -51.1185 H         1 UNK         0.0600 
    217 H217       -3.5987  -18.1702  -51.7788 H         1 UNK         0.0600 
    218 H218       -2.5125  -19.3425  -52.5081 H         1 UNK         0.0600 
    219 H219       -2.3188  -18.9035  -50.8133 H         1 UNK         0.0600 
    220 H220       -6.5257  -20.7796  -50.9166 H         1 UNK         0.3000 
    221 H221       -7.4426  -20.3114  -53.5679 H         1 UNK         0.0600 
    222 H222       -8.7339  -21.9000  -51.2895 H         1 UNK         0.0600 
    223 H223       -8.9120  -20.1692  -51.5711 H         1 UNK         0.0600 
    224 H224       -9.5613  -21.3203  -52.7300 H         1 UNK         0.0600 
    225 H225       -6.4216  -23.3103  -51.9005 H         1 UNK         0.3000 
    226 H226       -7.1148  -25.0343  -54.1622 H         1 UNK         0.0600 
    227 H227       -7.2213  -25.8262  -51.7903 H         1 UNK         0.0600 
    228 H228       -6.1258  -26.8036  -52.7567 H         1 UNK         0.0600 
    229 H229       -5.4786  -25.6128  -51.6381 H         1 UNK         0.0600 
    230 H230       -4.2993  -23.2326  -53.0922 H         1 UNK         0.3000 
    231 H231       -2.3715  -24.7162  -54.7362 H         1 UNK         0.0600 
    232 H232       -2.1033  -22.1909  -53.0149 H         1 UNK         0.0600 
    233 H233       -1.6562  -23.8333  -52.5484 H         1 UNK         0.0600 
    234 H234       -0.7718  -23.0114  -53.8178 H         1 UNK         0.0600 
    235 H235       -4.3065  -21.7949  -54.9831 H         1 UNK         0.3000 
    236 H236       -4.6269  -20.1974  -56.4501 H         1 UNK         0.0600 
    237 H237       -5.0291  -22.0510  -58.0945 H         1 UNK         0.0600 
    238 H238       -4.3819  -20.6134  -58.8670 H         1 UNK         0.0600 
    239 H239       -3.3328  -21.9930  -58.5721 H         1 UNK         0.0600 
    240 H240       -2.2379  -20.2735  -54.8563 H         1 UNK         0.3000 
    241 H241       -0.3153  -19.2956  -54.4224 H         1 UNK         0.0600 
    242 H242       -0.3496  -21.5417  -56.6219 H         1 UNK         0.3800 
    243 H243        1.2878  -21.4183  -57.2107 H         1 UNK         0.3800 
    244 H244       -0.9324  -17.3310  -56.6828 H         1 UNK         0.0800 
    245 H245        0.3289  -17.1238  -55.5012 H         1 UNK         0.0800 
    246 H246       -0.4178  -14.8991  -54.3376 H         1 UNK         0.0800 
    247 H247       -1.4473  -15.0493  -52.9373 H         1 UNK         0.0800 
@<TRIPOS>BOND
     1    1    2 1    
     2    1  127 1    
     3    1  128 1    
     4    1  129 1    
     5    2    3 2    
     6    2    4 am   BACKBONE|DICT|INTERRES
     7    4    5 1    
     8    4  130 1    
     9    5    6 1    
    10    5   65 1    
    11    5  131 1    
    12    6    7 1    
    13    6  132 1    
    14    6  133 1    
    15    7    8 1    
    16    8    9 1    
    17    8  134 1    
    18    8  135 1    
    19    9   10 ar   
    20    9   14 ar   
    21   10   11 ar   
    22   10  136 1    
    23   11   12 ar   
    24   11  126 1    
    25   12   13 ar   
    26   12  137 1    
    27   13   14 ar   
    28   13   15 1    
    29   14  138 1    
    30   15   16 1    
    31   15  139 1    
    32   15  140 1    
    33   16   17 1    
    34   17   18 1    
    35   17  141 1    
    36   17  142 1    
    37   18   19 1    
    38   18   67 1    
    39   18  143 1    
    40   19   20 am   BACKBONE|DICT|INTERRES
    41   19  144 1    
    42   20   21 2    
    43   20   22 1    
    44   22   23 1    
    45   22   24 1    
    46   22  145 1    
    47   23  146 1    
    48   23  147 1    
    49   23  148 1    
    50   24   25 am   BACKBONE|DICT|INTERRES
    51   24  149 1    
    52   25   26 2    
    53   25   27 1    
    54   27   28 1    
    55   27   29 1    
    56   27  150 1    
    57   28  151 1    
    58   28  152 1    
    59   28  153 1    
    60   29   30 am   BACKBONE|DICT|INTERRES
    61   29  154 1    
    62   30   31 2    
    63   30   32 1    
    64   32   33 1    
    65   32   34 1    
    66   32  155 1    
    67   33  156 1    
    68   33  157 1    
    69   33  158 1    
    70   34   35 am   BACKBONE|DICT|INTERRES
    71   34  159 1    
    72   35   36 2    
    73   35   37 1    
    74   37   38 1    
    75   37   39 1    
    76   37  160 1    
    77   38  161 1    
    78   38  162 1    
    79   38  163 1    
    80   39   40 am   BACKBONE|DICT|INTERRES
    81   39  164 1    
    82   40   41 2    
    83   40   42 1    
    84   42   43 1    
    85   42   44 1    
    86   42  165 1    
    87   43  166 1    
    88   43  167 1    
    89   43  168 1    
    90   44   45 am   BACKBONE|DICT|INTERRES
    91   44  169 1    
    92   45   46 2    
    93   45   47 1    
    94   47   48 1    
    95   47   49 1    
    96   47  170 1    
    97   48  171 1    
    98   48  172 1    
    99   48  173 1    
   100   49   50 am   BACKBONE|DICT|INTERRES
   101   49  174 1    
   102   50   51 2    
   103   50   52 1    
   104   52   53 1    
   105   52   54 1    
   106   52  175 1    
   107   53  176 1    
   108   53  177 1    
   109   53  178 1    
   110   54   55 am   BACKBONE|DICT|INTERRES
   111   54  179 1    
   112   55   56 2    
   113   55   57 1    
   114   57   58 1    
   115   57   59 1    
   116   57  180 1    
   117   58  181 1    
   118   58  182 1    
   119   58  183 1    
   120   59   60 am   BACKBONE|DICT|INTERRES
   121   59  184 1    
   122   60   61 2    
   123   60   62 1    
   124   62   63 1    
   125   62   64 1    
   126   62  185 1    
   127   63  186 1    
   128   63  187 1    
   129   63  188 1    
   130   64   65 am   BACKBONE|DICT|INTERRES
   131   64  189 1    
   132   65   66 2    
   133   67   68 2    
   134   67   69 am   BACKBONE|DICT|INTERRES
   135   69   70 1    
   136   69  190 1    
   137   70   71 1    
   138   70   72 1    
   139   70  191 1    
   140   71  192 1    
   141   71  193 1    
   142   71  194 1    
   143   72   73 2    
   144   72   74 am   BACKBONE|DICT|INTERRES
   145   74   75 1    
   146   74  195 1    
   147   75   76 1    
   148   75   77 1    
   149   75  196 1    
   150   76  197 1    
   151   76  198 1    
   152   76  199 1    
   153   77   78 2    
   154   77   79 am   BACKBONE|DICT|INTERRES
   155   79   80 1    
   156   79  200 1    
   157   80   81 1    
   158   80   82 1    
   159   80  201 1    
   160   81  202 1    
   161   81  203 1    
   162   81  204 1    
   163   82   83 2    
   164   82   84 am   BACKBONE|DICT|INTERRES
   165   84   85 1    
   166   84  205 1    
   167   85   86 1    
   168   85   87 1    
   169   85  206 1    
   170   86  207 1    
   171   86  208 1    
   172   86  209 1    
   173   87   88 2    
   174   87   89 am   BACKBONE|DICT|INTERRES
   175   89   90 1    
   176   89  210 1    
   177   90   91 1    
   178   90   92 1    
   179   90  211 1    
   180   91  212 1    
   181   91  213 1    
   182   91  214 1    
   183   92   93 2    
   184   92   94 am   BACKBONE|DICT|INTERRES
   185   94   95 1    
   186   94  215 1    
   187   95   96 1    
   188   95   97 1    
   189   95  216 1    
   190   96  217 1    
   191   96  218 1    
   192   96  219 1    
   193   97   98 2    
   194   97   99 am   BACKBONE|DICT|INTERRES
   195   99  100 1    
   196   99  220 1    
   197  100  101 1    
   198  100  102 1    
   199  100  221 1    
   200  101  222 1    
   201  101  223 1    
   202  101  224 1    
   203  102  103 2    
   204  102  104 am   BACKBONE|DICT|INTERRES
   205  104  105 1    
   206  104  225 1    
   207  105  106 1    
   208  105  107 1    
   209  105  226 1    
   210  106  227 1    
   211  106  228 1    
   212  106  229 1    
   213  107  108 2    
   214  107  109 am   BACKBONE|DICT|INTERRES
   215  109  110 1    
   216  109  230 1    
   217  110  111 1    
   218  110  112 1    
   219  110  231 1    
   220  111  232 1    
   221  111  233 1    
   222  111  234 1    
   223  112  113 2    
   224  112  114 am   BACKBONE|DICT|INTERRES
   225  114  115 1    
   226  114  235 1    
   227  115  116 1    
   228  115  117 1    
   229  115  236 1    
   230  116  237 1    
   231  116  238 1    
   232  116  239 1    
   233  117  118 2    
   234  117  119 am   BACKBONE|DICT|INTERRES
   235  119  120 1    
   236  119  240 1    
   237  120  121 1    
   238  120  124 1    
   239  120  241 1    
   240  121  122 am   BACKBONE|DICT|INTERRES
   241  121  123 2    
   242  122  242 1    
   243  122  243 1    
   244  124  125 1    
   245  124  244 1    
   246  124  245 1    
   247  125  126 1    
   248  126  246 1    
   249  126  247 1    
@<TRIPOS>SUBSTRUCTURE
     1 UNK         1 GROUP             0       ****    0 ROOT    
