@<TRIPOS>MOLECULE
3R540
247   249    1
SMALL
USER_CHARGES


@<TRIPOS>ATOM
      1 CA          0.8376  -13.0762  -45.8825 C.3       0 UNK        -0.1800 
      2 C           2.1729  -12.9152  -46.5948 C.2       0 UNK         0.5000 
      3 O           3.2059  -13.3297  -46.0763 O.2       0 UNK        -0.5000 
      4 N           2.1369  -12.3320  -47.7977 N.am      1 UNK        -0.5000 
      5 CA          3.2586  -12.1622  -48.7322 C.3       1 UNK         0.1400 
      6 C6          3.7033  -13.5177  -49.3583 C.3       23 UNK        -0.0398 
      7 S7          2.3546  -14.4746  -50.1375 S.3       23 UNK        -0.2404 
      8 C8          2.0180  -15.7074  -48.8393 C.3       23 UNK        -0.0205 
      9 C9          1.1365  -16.8352  -49.3428 C.ar      23 UNK        -0.0193 
     10 C10        -0.2426  -16.6482  -49.4797 C.ar      23 UNK        -0.1150 
     11 C11        -1.0598  -17.7009  -49.9018 C.ar      23 UNK        -0.0193 
     12 C12        -0.4867  -18.9385  -50.2004 C.ar      23 UNK        -0.1150 
     13 C13         0.8884  -19.1404  -50.0516 C.ar      23 UNK        -0.0193 
     14 C14         1.6963  -18.0824  -49.6305 C.ar      23 UNK        -0.1150 
     15 C15         1.4963  -20.5122  -50.2990 C.3       23 UNK        -0.0205 
     16 S16         1.5754  -21.4814  -48.7582 S.3       23 UNK        -0.2404 
     17 C17        -0.1994  -21.6272  -48.3801 C.3       23 UNK        -0.0398 
     18 CA         -0.5087  -22.7698  -47.3943 C.3       11 UNK         0.1400 
     19 N          -0.1235  -22.4432  -46.0170 N.am      11 UNK        -0.5000 
     20 C          -0.1793  -23.2958  -44.9831 C.2       10 UNK         0.5000 
     21 O          -0.5765  -24.4581  -45.0756 O.2       10 UNK        -0.5000 
     22 CA          0.2101  -22.7372  -43.6050 C.3       10 UNK         0.1400 
     23 CB          1.7277  -22.5246  -43.4989 C.3       10 UNK        -0.1800 
     24 N          -0.4970  -21.4901  -43.3158 N.am      10 UNK        -0.5000 
     25 C          -1.8206  -21.4089  -43.1164 C.2       9 UNK         0.5000 
     26 O          -2.5590  -22.3914  -43.0510 O.2       9 UNK        -0.5000 
     27 CA         -2.4332  -20.0003  -43.0029 C.3       9 UNK         0.1400 
     28 CB         -2.3734  -19.5000  -41.5529 C.3       9 UNK        -0.1800 
     29 N          -1.7972  -19.0214  -43.8861 N.am      9 UNK        -0.5000 
     30 C          -1.8159  -19.0726  -45.2259 C.2       8 UNK         0.5000 
     31 O          -2.3975  -19.9448  -45.8693 O.2       8 UNK        -0.5000 
     32 CA         -1.0069  -17.9976  -45.9727 C.3       8 UNK         0.1400 
     33 CB         -1.8011  -16.6889  -46.0982 C.3       8 UNK        -0.1800 
     34 N           0.2775  -17.7310  -45.3288 N.am      8 UNK        -0.5000 
     35 C           1.2832  -18.6134  -45.2600 C.2       7 UNK         0.5000 
     36 O           1.2377  -19.7455  -45.7422 O.2       7 UNK        -0.5000 
     37 CA          2.5224  -18.1650  -44.4662 C.3       7 UNK         0.1400 
     38 CB          3.3547  -17.1615  -45.2803 C.3       7 UNK        -0.1800 
     39 N           2.1623  -17.5741  -43.1749 N.am      7 UNK        -0.5000 
     40 C           1.5963  -18.2560  -42.1659 C.2       6 UNK         0.5000 
     41 O           1.3668  -19.4639  -42.2072 O.2       6 UNK        -0.5000 
     42 CA          1.1734  -17.4584  -40.9143 C.3       6 UNK         0.1400 
     43 CB          2.3233  -17.4087  -39.8977 C.3       6 UNK        -0.1800 
     44 N           0.7355  -16.0936  -41.2068 N.am      6 UNK        -0.5000 
     45 C          -0.2506  -15.7560  -42.0486 C.2       5 UNK         0.5000 
     46 O          -0.9851  -16.5762  -42.5987 O.2       5 UNK        -0.5000 
     47 CA         -0.4185  -14.2604  -42.3807 C.3       5 UNK         0.1400 
     48 CB         -1.6091  -13.6742  -41.6083 C.3       5 UNK        -0.1800 
     49 N           0.7569  -13.4095  -42.1520 N.am      5 UNK        -0.5000 
     50 C           2.0046  -13.5916  -42.6076 C.2       4 UNK         0.5000 
     51 O           2.3706  -14.6045  -43.2065 O.2       4 UNK        -0.5000 
     52 CA          2.9874  -12.4276  -42.3577 C.3       4 UNK         0.1400 
     53 CB          4.4402  -12.7926  -42.7094 C.3       4 UNK        -0.1800 
     54 N           2.6093  -11.2239  -43.1034 N.am      4 UNK        -0.5000 
     55 C           1.6038  -10.3916  -42.8061 C.2       3 UNK         0.5000 
     56 O           0.8740  -10.5513  -41.8261 O.2       3 UNK        -0.5000 
     57 CA          1.3304   -9.1955  -43.7463 C.3       3 UNK         0.1400 
     58 CB          1.8801   -7.8899  -43.1396 C.3       3 UNK        -0.1800 
     59 N           1.7571   -9.3434  -45.1494 N.am      3 UNK        -0.5000 
     60 C           3.0002   -9.4334  -45.6403 C.2       2 UNK         0.5000 
     61 O           4.0127   -9.4925  -44.9387 O.2       2 UNK        -0.5000 
     62 CA          3.1362   -9.4463  -47.1733 C.3       2 UNK         0.1400 
     63 CB          3.3035   -8.0111  -47.6955 C.3       2 UNK        -0.1800 
     64 N           4.3342  -10.2070  -47.5209 N.am      2 UNK        -0.5000 
     65 C           4.4757  -11.3867  -48.1440 C.2       1 UNK         0.5000 
     66 O           5.6022  -11.8696  -48.2641 O.2       1 UNK        -0.5000 
     67 C          -1.9854  -23.1840  -47.5378 C.2       11 UNK         0.5000 
     68 O          -2.2854  -23.9837  -48.4233 O.2       11 UNK        -0.5000 
     69 N          -2.8812  -22.6741  -46.6816 N.am      12 UNK        -0.5000 
     70 CA         -4.2952  -23.0593  -46.6317 C.3       12 UNK         0.1400 
     71 CB         -5.0290  -22.2195  -45.5769 C.3       12 UNK        -0.1800 
     72 C          -4.5097  -24.5659  -46.3831 C.2       12 UNK         0.5000 
     73 O          -5.4644  -25.1334  -46.9143 O.2       12 UNK        -0.5000 
     74 N          -3.5968  -25.1853  -45.6236 N.am      13 UNK        -0.5000 
     75 CA         -3.5525  -26.6251  -45.3924 C.3       13 UNK         0.1400 
     76 CB         -3.1416  -26.8875  -43.9345 C.3       13 UNK        -0.1800 
     77 C          -2.5802  -27.3160  -46.3639 C.2       13 UNK         0.5000 
     78 O          -2.9518  -28.3076  -46.9916 O.2       13 UNK        -0.5000 
     79 N          -1.3475  -26.7978  -46.4555 N.am      14 UNK        -0.5000 
     80 CA         -0.2225  -27.4552  -47.1243 C.3       14 UNK         0.1400 
     81 CB          1.0883  -26.8304  -46.6211 C.3       14 UNK        -0.1800 
     82 C          -0.2699  -27.4119  -48.6617 C.2       14 UNK         0.5000 
     83 O           0.2707  -28.3165  -49.2995 O.2       14 UNK        -0.5000 
     84 N          -0.8813  -26.3658  -49.2287 N.am      15 UNK        -0.5000 
     85 CA         -0.9093  -26.0929  -50.6679 C.3       15 UNK         0.1400 
     86 CB          0.0105  -24.8915  -50.9565 C.3       15 UNK        -0.1800 
     87 C          -2.3366  -25.8377  -51.1827 C.2       15 UNK         0.5000 
     88 O          -2.4904  -25.3767  -52.3142 O.2       15 UNK        -0.5000 
     89 N          -3.3524  -26.0970  -50.3446 N.am      16 UNK        -0.5000 
     90 CA         -4.7795  -25.8531  -50.5859 C.3       16 UNK         0.1400 
     91 CB         -5.3243  -26.8514  -51.6285 C.3       16 UNK        -0.1800 
     92 C          -5.0836  -24.3827  -50.9499 C.2       16 UNK         0.5000 
     93 O          -5.8489  -24.1223  -51.8784 O.2       16 UNK        -0.5000 
     94 N          -4.4369  -23.4490  -50.2358 N.am      17 UNK        -0.5000 
     95 CA         -4.4939  -21.9936  -50.4288 C.3       17 UNK         0.1400 
     96 CB         -5.9154  -21.4559  -50.1593 C.3       17 UNK        -0.1800 
     97 C          -3.9274  -21.5743  -51.8011 C.2       17 UNK         0.5000 
     98 O          -4.5322  -20.7631  -52.5064 O.2       17 UNK        -0.5000 
     99 N          -2.7811  -22.1821  -52.1477 N.am      18 UNK        -0.5000 
    100 CA        -2.0671  -22.0846  -53.4247 C.3       18 UNK         0.1400 
    101 CB        -1.5126  -20.6603  -53.6402 C.3       18 UNK        -0.1800 
    102 C         -2.9323  -22.5879  -54.5970 C.2       18 UNK         0.5000 
    103 O         -3.1065  -21.8800  -55.5876 O.2       18 UNK        -0.5000 
    104 N         -3.5011  -23.7920  -54.4348 N.am      19 UNK        -0.5000 
    105 CA        -4.4731  -24.4342  -55.3292 C.3       19 UNK         0.1400 
    106 CB        -3.7924  -24.8820  -56.6388 C.3       19 UNK        -0.1800 
    107 C         -5.7206  -23.5526  -55.5614 C.2       19 UNK         0.5000 
    108 O         -6.1634  -23.3757  -56.6976 O.2       19 UNK        -0.5000 
    109 N         -6.2287  -22.9862  -54.4589 N.am      20 UNK        -0.5000 
    110 CA        -7.3451  -22.0470  -54.3401 C.3       20 UNK         0.1400 
    111 CB        -8.6615  -22.6950  -54.8160 C.3       20 UNK        -0.1800 
    112 C         -7.1126  -20.6599  -54.9788 C.2       20 UNK         0.5000 
    113 O         -8.0558  -19.8672  -55.0233 O.2       20 UNK        -0.5000 
    114 N         -5.8852  -20.3473  -55.4263 N.am      21 UNK        -0.5000 
    115 CA        -5.5362  -19.0613  -56.0430 C.3       21 UNK         0.1400 
    116 CB        -4.1227  -19.1231  -56.6374 C.3       21 UNK        -0.1800 
    117 C         -5.6607  -17.8621  -55.0849 C.2       21 UNK         0.5000 
    118 O         -5.9412  -16.7538  -55.5443 O.2       21 UNK        -0.5000 
    119 N         -5.4875  -18.1041  -53.7793 N.am      22 UNK        -0.5000 
    120 CA        -5.7462  -17.1197  -52.7167 C.3       22 UNK         0.1400 
    121 C         -7.2575  -16.9249  -52.3824 C.2       22 UNK         0.5000 
    122 N         -8.1883  -17.6662  -52.9739 N.am      22 UNK        -0.7600 
    123 O         -7.5983  -16.0684  -51.5709 O.2       22 UNK        -0.5000 
    124 C124       -4.9313  -17.4255  -51.4364 C.3       23 UNK        -0.0398 
    125 S125       -3.1301  -17.4204  -51.7140 S.3       23 UNK        -0.2404 
    126 C126       -2.5662  -17.5274  -49.9904 C.3       23 UNK        -0.0205 
    127 H127        0.7481  -14.0873  -45.4856 H         1 UNK         0.0600 
    128 H128       -0.0031  -12.9061  -46.5554 H         1 UNK         0.0600 
    129 H129        0.7599  -12.3705  -45.0571 H         1 UNK         0.0600 
    130 H130        1.2431  -12.0318  -48.1603 H         1 UNK         0.3000 
    131 H131        2.8798  -11.5394  -49.5438 H         1 UNK         0.0600 
    132 H132        4.4495  -13.3410  -50.1349 H         1 UNK         0.0800 
    133 H133        4.1983  -14.1385  -48.6095 H         1 UNK         0.0800 
    134 H134        2.9583  -16.1097  -48.4591 H         1 UNK         0.0800 
    135 H135        1.5243  -15.2310  -47.9940 H         1 UNK         0.0800 
    136 H136       -0.6780  -15.6876  -49.2429 H         1 UNK         0.1150 
    137 H137       -1.1216  -19.7516  -50.5216 H         1 UNK         0.1150 
    138 H138        2.7584  -18.2390  -49.5047 H         1 UNK         0.1150 
    139 H139        0.9222  -21.0575  -51.0497 H         1 UNK         0.0800 
    140 H140        2.5036  -20.4047  -50.7037 H         1 UNK         0.0800 
    141 H141       -0.7154  -21.7845  -49.3291 H         1 UNK         0.0800 
    142 H142       -0.5610  -20.6771  -47.9837 H         1 UNK         0.0800 
    143 H143        0.0770  -23.6424  -47.6911 H         1 UNK         0.0600 
    144 H144        0.2369  -21.5058  -45.8621 H         1 UNK         0.3000 
    145 H145       -0.0783  -23.4746  -42.8530 H         1 UNK         0.0600 
    146 H146        2.0099  -22.2104  -42.4941 H         1 UNK         0.0600 
    147 H147        2.2668  -23.4480  -43.7144 H         1 UNK         0.0600 
    148 H148        2.0833  -21.7662  -44.1963 H         1 UNK         0.0600 
    149 H149        0.0613  -20.6439  -43.2876 H         1 UNK         0.3000 
    150 H150       -3.4832  -20.0725  -43.2943 H         1 UNK         0.0600 
    151 H151       -2.8291  -18.5146  -41.4539 H         1 UNK         0.0600 
    152 H152       -2.9087  -20.1762  -40.8852 H         1 UNK         0.0600 
    153 H153       -1.3462  -19.4335  -41.1961 H         1 UNK         0.0600 
    154 H154       -1.3378  -18.2331  -43.4369 H         1 UNK         0.3000 
    155 H155       -0.8060  -18.3708  -46.9789 H         1 UNK         0.0600 
    156 H156       -2.0376  -16.2626  -45.1229 H         1 UNK         0.0600 
    157 H157       -2.7434  -16.8562  -46.6212 H         1 UNK         0.0600 
    158 H158       -1.2439  -15.9421  -46.6639 H         1 UNK         0.0600 
    159 H159        0.3750  -16.8493  -44.8486 H         1 UNK         0.3000 
    160 H160        3.1379  -19.0473  -44.2780 H         1 UNK         0.0600 
    161 H161        2.8011  -16.2432  -45.4820 H         1 UNK         0.0600 
    162 H162        3.6475  -17.5859  -46.2415 H         1 UNK         0.0600 
    163 H163        4.2681  -16.8875  -44.7524 H         1 UNK         0.0600 
    164 H164        2.2948  -16.5705  -43.0802 H         1 UNK         0.3000 
    165 H165        0.3341  -17.9811  -40.4537 H         1 UNK         0.0600 
    166 H166        2.0120  -16.9242  -38.9721 H         1 UNK         0.0600 
    167 H167        2.6599  -18.4138  -39.6397 H         1 UNK         0.0600 
    168 H168        3.1835  -16.8647  -40.2902 H         1 UNK         0.0600 
    169 H169        1.2937  -15.3483  -40.8185 H         1 UNK         0.3000 
    170 H170       -0.6489  -14.2030  -43.4456 H         1 UNK         0.0600 
    171 H171       -2.5149  -14.2577  -41.7796 H         1 UNK         0.0600 
    172 H172       -1.4227  -13.6634  -40.5338 H         1 UNK         0.0600 
    173 H173       -1.8191  -12.6517  -41.9232 H         1 UNK         0.0600 
    174 H174        0.5698  -12.5126  -41.7142 H         1 UNK         0.3000 
    175 H175        2.9556  -12.2000  -41.2902 H         1 UNK         0.0600 
    176 H176        4.5569  -13.0063  -43.7722 H         1 UNK         0.0600 
    177 H177        5.1224  -11.9810  -42.4557 H         1 UNK         0.0600 
    178 H178        4.7665  -13.6758  -42.1589 H         1 UNK         0.0600 
    179 H179        3.1893  -10.9850  -43.8998 H         1 UNK         0.3000 
    180 H180        0.2445   -9.0969  -43.7881 H         1 UNK         0.0600 
    181 H181        2.9653   -7.9127  -43.0374 H         1 UNK         0.0600 
    182 H182        1.4651   -7.7172  -42.1457 H         1 UNK         0.0600 
    183 H183        1.6183   -7.0283  -43.7538 H         1 UNK         0.0600 
    184 H184        0.9961   -9.3198  -45.8142 H         1 UNK         0.3000 
    185 H185        2.2355   -9.8546  -47.6260 H         1 UNK         0.0600 
    186 H186        2.4296   -7.4032  -47.4575 H         1 UNK         0.0600 
    187 H187        4.1739   -7.5193  -47.2585 H         1 UNK         0.0600 
    188 H188        3.4221   -7.9980  -48.7791 H         1 UNK         0.0600 
    189 H189        5.1703   -9.8193  -47.1082 H         1 UNK         0.3000 
    190 H190       -2.5857  -21.9378  -46.0486 H         1 UNK         0.3000 
    191 H191       -4.7344  -22.8228  -47.5998 H         1 UNK         0.0600 
    192 H192       -4.9104  -21.1526  -45.7664 H         1 UNK         0.0600 
    193 H193       -6.0983  -22.4338  -45.5861 H         1 UNK         0.0600 
    194 H194       -4.6650  -22.4263  -44.5715 H         1 UNK         0.0600 
    195 H195       -2.8260  -24.6426  -45.2544 H         1 UNK         0.3000 
    196 H196       -4.5428  -27.0609  -45.5414 H         1 UNK         0.0600 
    197 H197       -3.0866  -27.9575  -43.7303 H         1 UNK         0.0600 
    198 H198       -3.8666  -26.4611  -43.2410 H         1 UNK         0.0600 
    199 H199       -2.1666  -26.4570  -43.7022 H         1 UNK         0.0600 
    200 H200       -1.1178  -25.9690  -45.9103 H         1 UNK         0.3000 
    201 H201       -0.2249  -28.5068  -46.8296 H         1 UNK         0.0600 
    202 H202        1.1730  -26.9093  -45.5371 H         1 UNK         0.0600 
    203 H203        1.1589  -25.7749  -46.8860 H         1 UNK         0.0600 
    204 H204        1.9539  -27.3351  -47.0521 H         1 UNK         0.0600 
    205 H205       -1.3205  -25.6638  -48.6417 H         1 UNK         0.3000 
    206 H206       -0.5364  -26.9509  -51.2301 H         1 UNK         0.0600 
    207 H207        1.0236  -25.0767  -50.5994 H         1 UNK         0.0600 
    208 H208        0.0786  -24.6931  -52.0268 H         1 UNK         0.0600 
    209 H209       -0.3506  -23.9829  -50.4753 H         1 UNK         0.0600 
    210 H210       -3.1192  -26.4670  -49.4344 H         1 UNK         0.3000 
    211 H211       -5.2917  -26.0452  -49.6421 H         1 UNK         0.0600 
    212 H212       -4.8795  -26.6947  -52.6115 H         1 UNK         0.0600 
    213 H213       -6.4048  -26.7523  -51.7386 H         1 UNK         0.0600 
    214 H214       -5.1229  -27.8802  -51.3303 H         1 UNK         0.0600 
    215 H215       -3.7707  -23.7732  -49.5389 H         1 UNK         0.3000 
    216 H216       -3.8318  -21.5566  -49.6800 H         1 UNK         0.0600 
    217 H217       -5.9229  -20.3676  -50.1295 H         1 UNK         0.0600 
    218 H218       -6.2960  -21.8049  -49.1998 H         1 UNK         0.0600 
    219 H219       -6.6223  -21.7643  -50.9293 H         1 UNK         0.0600 
    220 H220       -2.4250  -22.8828  -51.5148 H         1 UNK         0.3000 
    221 H221       -1.2156  -22.7634  -53.3601 H         1 UNK         0.0600 
    222 H222       -2.3070  -19.9162  -53.7020 H         1 UNK         0.0600 
    223 H223       -0.8464  -20.3698  -52.8294 H         1 UNK         0.0600 
    224 H224       -0.9381  -20.6007  -54.5651 H         1 UNK         0.0600 
    225 H225       -3.2640  -24.3191  -53.5958 H         1 UNK         0.3000 
    226 H226       -4.8214  -25.3297  -54.8129 H         1 UNK         0.0600 
    227 H227       -2.9311  -25.5185  -56.4363 H         1 UNK         0.0600 
    228 H228       -4.4810  -25.4560  -57.2599 H         1 UNK         0.0600 
    229 H229       -3.4499  -24.0320  -57.2297 H         1 UNK         0.0600 
    230 H230       -5.8147  -23.2489  -53.5676 H         1 UNK         0.3000 
    231 H231       -7.4459  -21.8588  -53.2707 H         1 UNK         0.0600 
    232 H232       -8.6696  -22.8529  -55.8946 H         1 UNK         0.0600 
    233 H233       -9.5187  -22.0660  -54.5735 H         1 UNK         0.0600 
    234 H234       -8.8231  -23.6588  -54.3330 H         1 UNK         0.0600 
    235 H235       -5.1378  -21.0252  -55.3352 H         1 UNK         0.3000 
    236 H236       -6.2361  -18.8948  -56.8645 H         1 UNK         0.0600 
    237 H237       -4.0253  -19.9473  -57.3441 H         1 UNK         0.0600 
    238 H238       -3.8858  -18.2044  -57.1752 H         1 UNK         0.0600 
    239 H239       -3.3674  -19.2495  -55.8614 H         1 UNK         0.0600 
    240 H240       -5.2323  -19.0389  -53.4765 H         1 UNK         0.3000 
    241 H241       -5.4074  -16.1472  -53.0790 H         1 UNK         0.0600 
    242 H242       -9.1565  -17.5118  -52.7416 H         1 UNK         0.3800 
    243 H243       -7.9514  -18.3634  -53.6706 H         1 UNK         0.3800 
    244 H244       -5.1494  -16.6888  -50.6610 H         1 UNK         0.0800 
    245 H245       -5.2170  -18.3949  -51.0303 H         1 UNK         0.0800 
    246 H246       -3.0531  -18.3718  -49.4996 H         1 UNK         0.0800 
    247 H247       -2.8810  -16.6324  -49.4511 H         1 UNK         0.0800 
@<TRIPOS>BOND
     1    1    2 1    
     2    1  127 1    
     3    1  128 1    
     4    1  129 1    
     5    2    3 2    
     6    2    4 am   BACKBONE|DICT|INTERRES
     7    4    5 1    
     8    4  130 1    
     9    5    6 1    
    10    5   65 1    
    11    5  131 1    
    12    6    7 1    
    13    6  132 1    
    14    6  133 1    
    15    7    8 1    
    16    8    9 1    
    17    8  134 1    
    18    8  135 1    
    19    9   10 ar   
    20    9   14 ar   
    21   10   11 ar   
    22   10  136 1    
    23   11   12 ar   
    24   11  126 1    
    25   12   13 ar   
    26   12  137 1    
    27   13   14 ar   
    28   13   15 1    
    29   14  138 1    
    30   15   16 1    
    31   15  139 1    
    32   15  140 1    
    33   16   17 1    
    34   17   18 1    
    35   17  141 1    
    36   17  142 1    
    37   18   19 1    
    38   18   67 1    
    39   18  143 1    
    40   19   20 am   BACKBONE|DICT|INTERRES
    41   19  144 1    
    42   20   21 2    
    43   20   22 1    
    44   22   23 1    
    45   22   24 1    
    46   22  145 1    
    47   23  146 1    
    48   23  147 1    
    49   23  148 1    
    50   24   25 am   BACKBONE|DICT|INTERRES
    51   24  149 1    
    52   25   26 2    
    53   25   27 1    
    54   27   28 1    
    55   27   29 1    
    56   27  150 1    
    57   28  151 1    
    58   28  152 1    
    59   28  153 1    
    60   29   30 am   BACKBONE|DICT|INTERRES
    61   29  154 1    
    62   30   31 2    
    63   30   32 1    
    64   32   33 1    
    65   32   34 1    
    66   32  155 1    
    67   33  156 1    
    68   33  157 1    
    69   33  158 1    
    70   34   35 am   BACKBONE|DICT|INTERRES
    71   34  159 1    
    72   35   36 2    
    73   35   37 1    
    74   37   38 1    
    75   37   39 1    
    76   37  160 1    
    77   38  161 1    
    78   38  162 1    
    79   38  163 1    
    80   39   40 am   BACKBONE|DICT|INTERRES
    81   39  164 1    
    82   40   41 2    
    83   40   42 1    
    84   42   43 1    
    85   42   44 1    
    86   42  165 1    
    87   43  166 1    
    88   43  167 1    
    89   43  168 1    
    90   44   45 am   BACKBONE|DICT|INTERRES
    91   44  169 1    
    92   45   46 2    
    93   45   47 1    
    94   47   48 1    
    95   47   49 1    
    96   47  170 1    
    97   48  171 1    
    98   48  172 1    
    99   48  173 1    
   100   49   50 am   BACKBONE|DICT|INTERRES
   101   49  174 1    
   102   50   51 2    
   103   50   52 1    
   104   52   53 1    
   105   52   54 1    
   106   52  175 1    
   107   53  176 1    
   108   53  177 1    
   109   53  178 1    
   110   54   55 am   BACKBONE|DICT|INTERRES
   111   54  179 1    
   112   55   56 2    
   113   55   57 1    
   114   57   58 1    
   115   57   59 1    
   116   57  180 1    
   117   58  181 1    
   118   58  182 1    
   119   58  183 1    
   120   59   60 am   BACKBONE|DICT|INTERRES
   121   59  184 1    
   122   60   61 2    
   123   60   62 1    
   124   62   63 1    
   125   62   64 1    
   126   62  185 1    
   127   63  186 1    
   128   63  187 1    
   129   63  188 1    
   130   64   65 am   BACKBONE|DICT|INTERRES
   131   64  189 1    
   132   65   66 2    
   133   67   68 2    
   134   67   69 am   BACKBONE|DICT|INTERRES
   135   69   70 1    
   136   69  190 1    
   137   70   71 1    
   138   70   72 1    
   139   70  191 1    
   140   71  192 1    
   141   71  193 1    
   142   71  194 1    
   143   72   73 2    
   144   72   74 am   BACKBONE|DICT|INTERRES
   145   74   75 1    
   146   74  195 1    
   147   75   76 1    
   148   75   77 1    
   149   75  196 1    
   150   76  197 1    
   151   76  198 1    
   152   76  199 1    
   153   77   78 2    
   154   77   79 am   BACKBONE|DICT|INTERRES
   155   79   80 1    
   156   79  200 1    
   157   80   81 1    
   158   80   82 1    
   159   80  201 1    
   160   81  202 1    
   161   81  203 1    
   162   81  204 1    
   163   82   83 2    
   164   82   84 am   BACKBONE|DICT|INTERRES
   165   84   85 1    
   166   84  205 1    
   167   85   86 1    
   168   85   87 1    
   169   85  206 1    
   170   86  207 1    
   171   86  208 1    
   172   86  209 1    
   173   87   88 2    
   174   87   89 am   BACKBONE|DICT|INTERRES
   175   89   90 1    
   176   89  210 1    
   177   90   91 1    
   178   90   92 1    
   179   90  211 1    
   180   91  212 1    
   181   91  213 1    
   182   91  214 1    
   183   92   93 2    
   184   92   94 am   BACKBONE|DICT|INTERRES
   185   94   95 1    
   186   94  215 1    
   187   95   96 1    
   188   95   97 1    
   189   95  216 1    
   190   96  217 1    
   191   96  218 1    
   192   96  219 1    
   193   97   98 2    
   194   97   99 am   BACKBONE|DICT|INTERRES
   195   99  100 1    
   196   99  220 1    
   197  100  101 1    
   198  100  102 1    
   199  100  221 1    
   200  101  222 1    
   201  101  223 1    
   202  101  224 1    
   203  102  103 2    
   204  102  104 am   BACKBONE|DICT|INTERRES
   205  104  105 1    
   206  104  225 1    
   207  105  106 1    
   208  105  107 1    
   209  105  226 1    
   210  106  227 1    
   211  106  228 1    
   212  106  229 1    
   213  107  108 2    
   214  107  109 am   BACKBONE|DICT|INTERRES
   215  109  110 1    
   216  109  230 1    
   217  110  111 1    
   218  110  112 1    
   219  110  231 1    
   220  111  232 1    
   221  111  233 1    
   222  111  234 1    
   223  112  113 2    
   224  112  114 am   BACKBONE|DICT|INTERRES
   225  114  115 1    
   226  114  235 1    
   227  115  116 1    
   228  115  117 1    
   229  115  236 1    
   230  116  237 1    
   231  116  238 1    
   232  116  239 1    
   233  117  118 2    
   234  117  119 am   BACKBONE|DICT|INTERRES
   235  119  120 1    
   236  119  240 1    
   237  120  121 1    
   238  120  124 1    
   239  120  241 1    
   240  121  122 am   BACKBONE|DICT|INTERRES
   241  121  123 2    
   242  122  242 1    
   243  122  243 1    
   244  124  125 1    
   245  124  244 1    
   246  124  245 1    
   247  125  126 1    
   248  126  246 1    
   249  126  247 1    
@<TRIPOS>SUBSTRUCTURE
     1 UNK         1 GROUP             0       ****    0 ROOT    
