@<TRIPOS>MOLECULE
3R540
247   249    1
SMALL
USER_CHARGES


@<TRIPOS>ATOM
      1 CA          2.2468   -8.7686  -50.2100 C.3       0 UNK        -0.1800 
      2 C           2.3585   -9.9271  -49.2299 C.2       0 UNK         0.5000 
      3 O           3.1311   -9.8492  -48.2751 O.2       0 UNK        -0.5000 
      4 N           1.5767  -10.9946  -49.4482 N.am      1 UNK        -0.5000 
      5 CA          1.5617  -12.2233  -48.6363 C.3       1 UNK         0.1400 
      6 C6          0.6922  -13.3328  -49.2913 C.3       23 UNK        -0.0398 
      7 S7          1.5307  -14.9517  -49.3455 S.3       23 UNK        -0.2404 
      8 C8          0.3772  -15.8611  -50.4196 C.3       23 UNK        -0.0205 
      9 C9          0.9953  -17.1296  -50.9881 C.ar      23 UNK        -0.0193 
     10 C10         2.0279  -17.0360  -51.9264 C.ar      23 UNK        -0.1150 
     11 C11         2.5716  -18.1865  -52.5028 C.ar      23 UNK        -0.0193 
     12 C12         2.0658  -19.4373  -52.1431 C.ar      23 UNK        -0.1150 
     13 C13         1.0321  -19.5469  -51.2093 C.ar      23 UNK        -0.0193 
     14 C14         0.5058  -18.3896  -50.6250 C.ar      23 UNK        -0.1150 
     15 C15         0.4616  -20.9181  -50.8818 C.3       23 UNK        -0.0205 
     16 S16         1.5551  -21.8569  -49.7716 S.3       23 UNK        -0.2404 
     17 C17         0.9934  -21.2655  -48.1412 C.3       23 UNK        -0.0398 
     18 CA          0.1628  -22.3258  -47.3782 C.3       11 UNK         0.1400 
     19 N           0.0477  -21.9982  -45.9556 N.am      11 UNK        -0.5000 
     20 C          -0.4650  -22.8052  -45.0167 C.2       10 UNK         0.5000 
     21 O          -0.8653  -23.9455  -45.2398 O.2       10 UNK        -0.5000 
     22 CA         -0.6096  -22.2237  -43.5997 C.3       10 UNK         0.1400 
     23 CB          0.7286  -22.2662  -42.8480 C.3       10 UNK        -0.1800 
     24 N          -1.1395  -20.8596  -43.6100 N.am      10 UNK        -0.5000 
     25 C          -2.3562  -20.5315  -44.0695 C.2       9 UNK         0.5000 
     26 O          -3.1767  -21.3545  -44.4765 O.2       9 UNK        -0.5000 
     27 CA         -2.7002  -19.0330  -44.1258 C.3       9 UNK         0.1400 
     28 CB         -3.1369  -18.5240  -42.7443 C.3       9 UNK        -0.1800 
     29 N          -1.5941  -18.2160  -44.6258 N.am      9 UNK        -0.5000 
     30 C          -1.0697  -18.3030  -45.8575 C.2       8 UNK         0.5000 
     31 O          -1.4861  -19.0655  -46.7293 O.2       8 UNK        -0.5000 
     32 CA          0.1683  -17.4329  -46.1416 C.3       8 UNK         0.1400 
     33 CB         -0.2310  -15.9659  -46.3585 C.3       8 UNK        -0.1800 
     34 N           1.1592  -17.5217  -45.0682 N.am      8 UNK        -0.5000 
     35 C           1.7814  -18.6496  -44.6959 C.2       7 UNK         0.5000 
     36 O           1.6324  -19.7317  -45.2611 O.2       7 UNK        -0.5000 
     37 CA          2.6782  -18.5697  -43.4505 C.3       7 UNK         0.1400 
     38 CB          4.0876  -18.0807  -43.8164 C.3       7 UNK        -0.1800 
     39 N           2.0975  -17.7037  -42.4251 N.am      7 UNK        -0.5000 
     40 C           1.0331  -18.0302  -41.6786 C.2       6 UNK         0.5000 
     41 O           0.4551  -19.1146  -41.7515 O.2       6 UNK        -0.5000 
     42 CA          0.5013  -16.9486  -40.7195 C.3       6 UNK         0.1400 
     43 CB          1.3070  -16.9388  -39.4120 C.3       6 UNK        -0.1800 
     44 N           0.5195  -15.6101  -41.3121 N.am      6 UNK        -0.5000 
     45 C          -0.2429  -15.2364  -42.3489 C.2       5 UNK         0.5000 
     46 O          -1.0722  -15.9712  -42.8832 O.2       5 UNK        -0.5000 
     47 CA         -0.0168  -13.8205  -42.9122 C.3       5 UNK         0.1400 
     48 CB         -0.9094  -12.8103  -42.1761 C.3       5 UNK        -0.1800 
     49 N           1.3749  -13.3562  -42.8809 N.am      5 UNK        -0.5000 
     50 C           2.4269  -14.0004  -43.4098 C.2       4 UNK         0.5000 
     51 O           2.3596  -15.1276  -43.9007 O.2       4 UNK        -0.5000 
     52 CA          3.7569  -13.2310  -43.4152 C.3       4 UNK         0.1400 
     53 CB          4.8955  -13.9876  -44.1233 C.3       4 UNK        -0.1800 
     54 N           3.5337  -11.9545  -44.0820 N.am      4 UNK        -0.5000 
     55 C           3.9828  -10.7630  -43.6688 C.2       3 UNK         0.5000 
     56 O           4.7262  -10.6130  -42.6984 O.2       3 UNK        -0.5000 
     57 CA          3.5081   -9.5218  -44.4558 C.3       3 UNK         0.1400 
     58 CB          4.6124   -9.0349  -45.4057 C.3       3 UNK        -0.1800 
     59 N           2.2814   -9.7571  -45.2239 N.am      3 UNK        -0.5000 
     60 C           1.0797  -10.0023  -44.6777 C.2       2 UNK         0.5000 
     61 O           0.8654   -9.9397  -43.4670 O.2       2 UNK        -0.5000 
     62 CA         -0.0680  -10.4290  -45.6182 C.3       2 UNK         0.1400 
     63 CB         -1.0587   -9.2721  -45.8161 C.3       2 UNK        -0.1800 
     64 N           0.3674  -10.9075  -46.9327 N.am      2 UNK        -0.5000 
     65 C           1.1473  -11.9740  -47.1674 C.2       1 UNK         0.5000 
     66 O           1.5771  -12.7060  -46.2774 O.2       1 UNK        -0.5000 
     67 C          -1.2188  -22.5653  -48.0261 C.2       11 UNK         0.5000 
     68 O          -1.4004  -23.5709  -48.7123 O.2       11 UNK        -0.5000 
     69 N          -2.1778  -21.6680  -47.7565 N.am      12 UNK        -0.5000 
     70 CA         -3.5658  -21.7589  -48.2140 C.3       12 UNK         0.1400 
     71 CB         -4.3189  -20.4908  -47.7791 C.3       12 UNK        -0.1800 
     72 C          -4.2894  -23.0282  -47.7205 C.2       12 UNK         0.5000 
     73 O          -5.0381  -23.6386  -48.4865 O.2       12 UNK        -0.5000 
     74 N          -4.0308  -23.4126  -46.4629 N.am      13 UNK        -0.5000 
     75 CA         -4.5124  -24.6528  -45.8590 C.3       13 UNK         0.1400 
     76 CB         -4.3229  -24.5924  -44.3359 C.3       13 UNK        -0.1800 
     77 C          -3.8260  -25.8965  -46.4529 C.2       13 UNK         0.5000 
     78 O          -4.5138  -26.8551  -46.8050 O.2       13 UNK        -0.5000 
     79 N          -2.4905  -25.8538  -46.5743 N.am      14 UNK        -0.5000 
     80 CA         -1.6563  -26.9322  -47.1142 C.3       14 UNK         0.1400 
     81 CB         -0.1719  -26.5782  -46.9419 C.3       14 UNK        -0.1800 
     82 C          -1.9591  -27.2712  -48.5840 C.2       14 UNK         0.5000 
     83 O          -1.8582  -28.4376  -48.9682 O.2       14 UNK        -0.5000 
     84 N          -2.3736  -26.2676  -49.3681 N.am      15 UNK        -0.5000 
     85 CA         -2.8527  -26.3870  -50.7460 C.3       15 UNK         0.1400 
     86 CB         -2.8005  -24.9974  -51.4057 C.3       15 UNK        -0.1800 
     87 C          -4.2582  -27.0264  -50.8312 C.2       15 UNK         0.5000 
     88 O          -5.1732  -26.4330  -51.4037 O.2       15 UNK        -0.5000 
     89 N          -4.4131  -28.2162  -50.2307 N.am      16 UNK        -0.5000 
     90 CA         -5.6115  -29.0664  -50.1836 C.3       16 UNK         0.1400 
     91 CB         -5.8633  -29.6856  -51.5738 C.3       16 UNK        -0.1800 
     92 C          -6.8704  -28.3673  -49.6207 C.2       16 UNK         0.5000 
     93 O          -7.9891  -28.7481  -49.9700 O.2       16 UNK        -0.5000 
     94 N          -6.6635  -27.3339  -48.7901 N.am      17 UNK        -0.5000 
     95 CA         -7.6555  -26.3853  -48.2734 C.3       17 UNK         0.1400 
     96 CB         -8.6030  -27.0790  -47.2738 C.3       17 UNK        -0.1800 
     97 C          -8.4130  -25.6011  -49.3717 C.2       17 UNK         0.5000 
     98 O          -9.4911  -25.0682  -49.1031 O.2       17 UNK        -0.5000 
     99 N          -7.8436  -25.5260  -50.5845 N.am      18 UNK        -0.5000 
    100 CA        -8.4257  -24.8367  -51.7382 C.3       18 UNK         0.1400 
    101 CB        -7.8712  -25.4633  -53.0276 C.3       18 UNK        -0.1800 
    102 C         -8.1625  -23.3197  -51.7211 C.2       18 UNK         0.5000 
    103 O         -8.7870  -22.5952  -52.4969 O.2       18 UNK        -0.5000 
    104 N         -7.2450  -22.8726  -50.8501 N.am      19 UNK        -0.5000 
    105 CA        -6.8137  -21.4877  -50.6518 C.3       19 UNK         0.1400 
    106 CB        -7.9596  -20.6188  -50.0932 C.3       19 UNK        -0.1800 
    107 C         -6.1214  -20.8785  -51.8868 C.2       19 UNK         0.5000 
    108 O         -6.2879  -19.6905  -52.1701 O.2       19 UNK        -0.5000 
    109 N         -5.3379  -21.7064  -52.5913 N.am      20 UNK        -0.5000 
    110 CA        -4.4548  -21.2818  -53.6761 C.3       20 UNK         0.1400 
    111 CB        -3.9497  -22.5220  -54.4279 C.3       20 UNK        -0.1800 
    112 C         -3.2735  -20.4576  -53.1308 C.2       20 UNK         0.5000 
    113 O         -2.8062  -20.7162  -52.0187 O.2       20 UNK        -0.5000 
    114 N         -2.8078  -19.4933  -53.9276 N.am      21 UNK        -0.5000 
    115 CA        -1.7277  -18.5755  -53.5886 C.3       21 UNK         0.1400 
    116 CB        -2.2662  -17.4557  -52.6778 C.3       21 UNK        -0.1800 
    117 C         -1.1236  -17.9989  -54.8748 C.2       21 UNK         0.5000 
    118 O         -1.7564  -18.0636  -55.9326 O.2       21 UNK        -0.5000 
    119 N          0.0806  -17.4299  -54.7538 N.am      22 UNK        -0.5000 
    120 CA         0.8184  -16.7824  -55.8529 C.3       22 UNK         0.1400 
    121 C          0.2486  -15.4023  -56.3009 C.2       22 UNK         0.5000 
    122 N         -0.6851  -14.7948  -55.5786 N.am      22 UNK        -0.7600 
    123 O          0.6597  -14.8742  -57.3305 O.2       22 UNK        -0.5000 
    124 C124        2.3333  -16.6659  -55.5428 C.3       23 UNK        -0.0398 
    125 S125        3.1274  -18.2795  -55.2238 S.3       23 UNK        -0.2404 
    126 C126        3.7085  -18.0873  -53.5083 C.3       23 UNK        -0.0205 
    127 H127        1.9400   -7.8632  -49.6864 H         1 UNK         0.0600 
    128 H128        3.2125   -8.5814  -50.6795 H         1 UNK         0.0600 
    129 H129        1.5193   -8.9706  -50.9964 H         1 UNK         0.0600 
    130 H130        0.9589  -10.9884  -50.2474 H         1 UNK         0.3000 
    131 H131        2.5994  -12.5628  -48.6038 H         1 UNK         0.0600 
    132 H132       -0.2751  -13.4491  -48.7979 H         1 UNK         0.0800 
    133 H133        0.4572  -13.0663  -50.3226 H         1 UNK         0.0800 
    134 H134       -0.5303  -16.0880  -49.8581 H         1 UNK         0.0800 
    135 H135        0.0745  -15.2242  -51.2518 H         1 UNK         0.0800 
    136 H136        2.4081  -16.0626  -52.2039 H         1 UNK         0.1150 
    137 H137        2.4744  -20.3299  -52.5963 H         1 UNK         0.1150 
    138 H138       -0.3035  -18.4690  -49.9122 H         1 UNK         0.1150 
    139 H139       -0.5360  -20.8324  -50.4479 H         1 UNK         0.0800 
    140 H140        0.3342  -21.4820  -51.8071 H         1 UNK         0.0800 
    141 H141        0.4490  -20.3250  -48.2366 H         1 UNK         0.0800 
    142 H142        1.8940  -21.0286  -47.5738 H         1 UNK         0.0800 
    143 H143        0.7084  -23.2703  -47.4279 H         1 UNK         0.0600 
    144 H144        0.4016  -21.0873  -45.6738 H         1 UNK         0.3000 
    145 H145       -1.3202  -22.8502  -43.0564 H         1 UNK         0.0600 
    146 H146        0.6152  -21.9185  -41.8212 H         1 UNK         0.0600 
    147 H147        1.1187  -23.2838  -42.8054 H         1 UNK         0.0600 
    148 H148        1.4836  -21.6463  -43.3305 H         1 UNK         0.0600 
    149 H149       -0.5370  -20.1319  -43.2409 H         1 UNK         0.3000 
    150 H150       -3.5398  -18.9100  -44.8124 H         1 UNK         0.0600 
    151 H151       -3.9655  -19.1155  -42.3530 H         1 UNK         0.0600 
    152 H152       -3.4725  -17.4881  -42.7951 H         1 UNK         0.0600 
    153 H153       -2.3233  -18.5760  -42.0200 H         1 UNK         0.0600 
    154 H154       -1.2195  -17.5238  -43.9823 H         1 UNK         0.3000 
    155 H155        0.6388  -17.7976  -47.0572 H         1 UNK         0.0600 
    156 H156       -0.8453  -15.8602  -47.2530 H         1 UNK         0.0600 
    157 H157        0.6466  -15.3323  -46.4857 H         1 UNK         0.0600 
    158 H158       -0.8056  -15.5715  -45.5218 H         1 UNK         0.0600 
    159 H159        1.3894  -16.6621  -44.5778 H         1 UNK         0.3000 
    160 H160        2.7705  -19.5756  -43.0359 H         1 UNK         0.0600 
    161 H161        4.7264  -18.0182  -42.9354 H         1 UNK         0.0600 
    162 H162        4.0681  -17.0989  -44.2890 H         1 UNK         0.0600 
    163 H163        4.5645  -18.7677  -44.5164 H         1 UNK         0.0600 
    164 H164        2.4520  -16.7580  -42.3829 H         1 UNK         0.3000 
    165 H165       -0.5344  -17.1988  -40.4794 H         1 UNK         0.0600 
    166 H166        0.8879  -16.2316  -38.6961 H         1 UNK         0.0600 
    167 H167        1.2959  -17.9223  -38.9402 H         1 UNK         0.0600 
    168 H168        2.3498  -16.6677  -39.5817 H         1 UNK         0.0600 
    169 H169        1.1783  -14.9460  -40.9330 H         1 UNK         0.3000 
    170 H170       -0.3201  -13.8363  -43.9604 H         1 UNK         0.0600 
    171 H171       -1.9523  -13.1304  -42.1844 H         1 UNK         0.0600 
    172 H172       -0.6098  -12.6938  -41.1340 H         1 UNK         0.0600 
    173 H173       -0.8726  -11.8290  -42.6473 H         1 UNK         0.0600 
    174 H174        1.5222  -12.4237  -42.5207 H         1 UNK         0.3000 
    175 H175        4.0380  -13.0739  -42.3720 H         1 UNK         0.0600 
    176 H176        5.8182  -13.4072  -44.1154 H         1 UNK         0.0600 
    177 H177        5.1038  -14.9348  -43.6250 H         1 UNK         0.0600 
    178 H178        4.6460  -14.2065  -45.1624 H         1 UNK         0.0600 
    179 H179        2.9016  -11.9952  -44.8762 H         1 UNK         0.3000 
    180 H180        3.3067   -8.7298  -43.7315 H         1 UNK         0.0600 
    181 H181        4.8750   -9.7980  -46.1394 H         1 UNK         0.0600 
    182 H182        5.5196   -8.7845  -44.8544 H         1 UNK         0.0600 
    183 H183        4.3034   -8.1408  -45.9473 H         1 UNK         0.0600 
    184 H184        2.3886   -9.8269  -46.2295 H         1 UNK         0.3000 
    185 H185       -0.5940  -11.2511  -45.1289 H         1 UNK         0.0600 
    186 H186       -1.9221   -9.5868  -46.4026 H         1 UNK         0.0600 
    187 H187       -1.4342   -8.9096  -44.8582 H         1 UNK         0.0600 
    188 H188       -0.5933   -8.4282  -46.3270 H         1 UNK         0.0600 
    189 H189        0.0838  -10.3511  -47.7259 H         1 UNK         0.3000 
    190 H190       -1.9371  -20.8428  -47.2127 H         1 UNK         0.3000 
    191 H191       -3.5519  -21.7939  -49.3056 H         1 UNK         0.0600 
    192 H192       -4.2373  -20.3261  -46.7056 H         1 UNK         0.0600 
    193 H193       -5.3820  -20.5468  -48.0090 H         1 UNK         0.0600 
    194 H194       -3.9210  -19.6087  -48.2812 H         1 UNK         0.0600 
    195 H195       -3.4513  -22.8161  -45.8811 H         1 UNK         0.3000 
    196 H196       -5.5825  -24.7333  -46.0582 H         1 UNK         0.0600 
    197 H197       -3.2736  -24.4817  -44.0615 H         1 UNK         0.0600 
    198 H198       -4.6937  -25.5009  -43.8599 H         1 UNK         0.0600 
    199 H199       -4.8687  -23.7525  -43.9054 H         1 UNK         0.0600 
    200 H200       -1.9920  -25.0390  -46.2234 H         1 UNK         0.3000 
    201 H201       -1.8608  -27.8286  -46.5255 H         1 UNK         0.0600 
    202 H202        0.0855  -25.6622  -47.4740 H         1 UNK         0.0600 
    203 H203        0.4682  -27.3731  -47.3267 H         1 UNK         0.0600 
    204 H204        0.0814  -26.4395  -45.8908 H         1 UNK         0.0600 
    205 H205       -2.3618  -25.3292  -48.9803 H         1 UNK         0.3000 
    206 H206       -2.1705  -27.0406  -51.2928 H         1 UNK         0.0600 
    207 H207       -1.7906  -24.5872  -51.3862 H         1 UNK         0.0600 
    208 H208       -3.1078  -25.0536  -52.4500 H         1 UNK         0.0600 
    209 H209       -3.4579  -24.2871  -50.9021 H         1 UNK         0.0600 
    210 H210       -3.5951  -28.5854  -49.7531 H         1 UNK         0.3000 
    211 H211       -5.3828  -29.8786  -49.4925 H         1 UNK         0.0600 
    212 H212       -6.1535  -28.9288  -52.3037 H         1 UNK         0.0600 
    213 H213       -6.6605  -30.4289  -51.5369 H         1 UNK         0.0600 
    214 H214       -4.9722  -30.1888  -51.9489 H         1 UNK         0.0600 
    215 H215       -5.7079  -27.1401  -48.5109 H         1 UNK         0.3000 
    216 H216       -7.0878  -25.6366  -47.7208 H         1 UNK         0.0600 
    217 H217       -8.0419  -27.6046  -46.5011 H         1 UNK         0.0600 
    218 H218       -9.2425  -26.3533  -46.7701 H         1 UNK         0.0600 
    219 H219       -9.2540  -27.8012  -47.7671 H         1 UNK         0.0600 
    220 H220       -6.9413  -25.9691  -50.7381 H         1 UNK         0.3000 
    221 H221       -9.5075  -24.9852  -51.7291 H         1 UNK         0.0600 
    222 H222       -6.8039  -25.2721  -53.1430 H         1 UNK         0.0600 
    223 H223       -8.0225  -26.5429  -53.0406 H         1 UNK         0.0600 
    224 H224       -8.3715  -25.0535  -53.9059 H         1 UNK         0.0600 
    225 H225       -6.7835  -23.5579  -50.2656 H         1 UNK         0.3000 
    226 H226       -6.0414  -21.5358  -49.8892 H         1 UNK         0.0600 
    227 H227       -8.4012  -21.0731  -49.2063 H         1 UNK         0.0600 
    228 H228       -7.5959  -19.6322  -49.8038 H         1 UNK         0.0600 
    229 H229       -8.7528  -20.4720  -50.8265 H         1 UNK         0.0600 
    230 H230       -5.2417  -22.6603  -52.2775 H         1 UNK         0.3000 
    231 H231       -5.0323  -20.6646  -54.3678 H         1 UNK         0.0600 
    232 H232       -4.7774  -23.1338  -54.7874 H         1 UNK         0.0600 
    233 H233       -3.3188  -23.1452  -53.7945 H         1 UNK         0.0600 
    234 H234       -3.3559  -22.2349  -55.2965 H         1 UNK         0.0600 
    235 H235       -3.1871  -19.3615  -54.8573 H         1 UNK         0.3000 
    236 H236       -0.9419  -19.1281  -53.0735 H         1 UNK         0.0600 
    237 H237       -1.5051  -16.7019  -52.4812 H         1 UNK         0.0600 
    238 H238       -3.1186  -16.9478  -53.1303 H         1 UNK         0.0600 
    239 H239       -2.5854  -17.8506  -51.7131 H         1 UNK         0.0600 
    240 H240        0.5460  -17.4397  -53.8571 H         1 UNK         0.3000 
    241 H241        0.7210  -17.4308  -56.7260 H         1 UNK         0.0600 
    242 H242       -1.0467  -13.9051  -55.8850 H         1 UNK         0.3800 
    243 H243       -1.0405  -15.2170  -54.7371 H         1 UNK         0.3800 
    244 H244        2.8593  -16.2167  -56.3872 H         1 UNK         0.0800 
    245 H245        2.4975  -15.9941  -54.6994 H         1 UNK         0.0800 
    246 H246        4.4397  -18.8694  -53.2985 H         1 UNK         0.0800 
    247 H247        4.2421  -17.1414  -53.4014 H         1 UNK         0.0800 
@<TRIPOS>BOND
     1    1    2 1    
     2    1  127 1    
     3    1  128 1    
     4    1  129 1    
     5    2    3 2    
     6    2    4 am   BACKBONE|DICT|INTERRES
     7    4    5 1    
     8    4  130 1    
     9    5    6 1    
    10    5   65 1    
    11    5  131 1    
    12    6    7 1    
    13    6  132 1    
    14    6  133 1    
    15    7    8 1    
    16    8    9 1    
    17    8  134 1    
    18    8  135 1    
    19    9   10 ar   
    20    9   14 ar   
    21   10   11 ar   
    22   10  136 1    
    23   11   12 ar   
    24   11  126 1    
    25   12   13 ar   
    26   12  137 1    
    27   13   14 ar   
    28   13   15 1    
    29   14  138 1    
    30   15   16 1    
    31   15  139 1    
    32   15  140 1    
    33   16   17 1    
    34   17   18 1    
    35   17  141 1    
    36   17  142 1    
    37   18   19 1    
    38   18   67 1    
    39   18  143 1    
    40   19   20 am   BACKBONE|DICT|INTERRES
    41   19  144 1    
    42   20   21 2    
    43   20   22 1    
    44   22   23 1    
    45   22   24 1    
    46   22  145 1    
    47   23  146 1    
    48   23  147 1    
    49   23  148 1    
    50   24   25 am   BACKBONE|DICT|INTERRES
    51   24  149 1    
    52   25   26 2    
    53   25   27 1    
    54   27   28 1    
    55   27   29 1    
    56   27  150 1    
    57   28  151 1    
    58   28  152 1    
    59   28  153 1    
    60   29   30 am   BACKBONE|DICT|INTERRES
    61   29  154 1    
    62   30   31 2    
    63   30   32 1    
    64   32   33 1    
    65   32   34 1    
    66   32  155 1    
    67   33  156 1    
    68   33  157 1    
    69   33  158 1    
    70   34   35 am   BACKBONE|DICT|INTERRES
    71   34  159 1    
    72   35   36 2    
    73   35   37 1    
    74   37   38 1    
    75   37   39 1    
    76   37  160 1    
    77   38  161 1    
    78   38  162 1    
    79   38  163 1    
    80   39   40 am   BACKBONE|DICT|INTERRES
    81   39  164 1    
    82   40   41 2    
    83   40   42 1    
    84   42   43 1    
    85   42   44 1    
    86   42  165 1    
    87   43  166 1    
    88   43  167 1    
    89   43  168 1    
    90   44   45 am   BACKBONE|DICT|INTERRES
    91   44  169 1    
    92   45   46 2    
    93   45   47 1    
    94   47   48 1    
    95   47   49 1    
    96   47  170 1    
    97   48  171 1    
    98   48  172 1    
    99   48  173 1    
   100   49   50 am   BACKBONE|DICT|INTERRES
   101   49  174 1    
   102   50   51 2    
   103   50   52 1    
   104   52   53 1    
   105   52   54 1    
   106   52  175 1    
   107   53  176 1    
   108   53  177 1    
   109   53  178 1    
   110   54   55 am   BACKBONE|DICT|INTERRES
   111   54  179 1    
   112   55   56 2    
   113   55   57 1    
   114   57   58 1    
   115   57   59 1    
   116   57  180 1    
   117   58  181 1    
   118   58  182 1    
   119   58  183 1    
   120   59   60 am   BACKBONE|DICT|INTERRES
   121   59  184 1    
   122   60   61 2    
   123   60   62 1    
   124   62   63 1    
   125   62   64 1    
   126   62  185 1    
   127   63  186 1    
   128   63  187 1    
   129   63  188 1    
   130   64   65 am   BACKBONE|DICT|INTERRES
   131   64  189 1    
   132   65   66 2    
   133   67   68 2    
   134   67   69 am   BACKBONE|DICT|INTERRES
   135   69   70 1    
   136   69  190 1    
   137   70   71 1    
   138   70   72 1    
   139   70  191 1    
   140   71  192 1    
   141   71  193 1    
   142   71  194 1    
   143   72   73 2    
   144   72   74 am   BACKBONE|DICT|INTERRES
   145   74   75 1    
   146   74  195 1    
   147   75   76 1    
   148   75   77 1    
   149   75  196 1    
   150   76  197 1    
   151   76  198 1    
   152   76  199 1    
   153   77   78 2    
   154   77   79 am   BACKBONE|DICT|INTERRES
   155   79   80 1    
   156   79  200 1    
   157   80   81 1    
   158   80   82 1    
   159   80  201 1    
   160   81  202 1    
   161   81  203 1    
   162   81  204 1    
   163   82   83 2    
   164   82   84 am   BACKBONE|DICT|INTERRES
   165   84   85 1    
   166   84  205 1    
   167   85   86 1    
   168   85   87 1    
   169   85  206 1    
   170   86  207 1    
   171   86  208 1    
   172   86  209 1    
   173   87   88 2    
   174   87   89 am   BACKBONE|DICT|INTERRES
   175   89   90 1    
   176   89  210 1    
   177   90   91 1    
   178   90   92 1    
   179   90  211 1    
   180   91  212 1    
   181   91  213 1    
   182   91  214 1    
   183   92   93 2    
   184   92   94 am   BACKBONE|DICT|INTERRES
   185   94   95 1    
   186   94  215 1    
   187   95   96 1    
   188   95   97 1    
   189   95  216 1    
   190   96  217 1    
   191   96  218 1    
   192   96  219 1    
   193   97   98 2    
   194   97   99 am   BACKBONE|DICT|INTERRES
   195   99  100 1    
   196   99  220 1    
   197  100  101 1    
   198  100  102 1    
   199  100  221 1    
   200  101  222 1    
   201  101  223 1    
   202  101  224 1    
   203  102  103 2    
   204  102  104 am   BACKBONE|DICT|INTERRES
   205  104  105 1    
   206  104  225 1    
   207  105  106 1    
   208  105  107 1    
   209  105  226 1    
   210  106  227 1    
   211  106  228 1    
   212  106  229 1    
   213  107  108 2    
   214  107  109 am   BACKBONE|DICT|INTERRES
   215  109  110 1    
   216  109  230 1    
   217  110  111 1    
   218  110  112 1    
   219  110  231 1    
   220  111  232 1    
   221  111  233 1    
   222  111  234 1    
   223  112  113 2    
   224  112  114 am   BACKBONE|DICT|INTERRES
   225  114  115 1    
   226  114  235 1    
   227  115  116 1    
   228  115  117 1    
   229  115  236 1    
   230  116  237 1    
   231  116  238 1    
   232  116  239 1    
   233  117  118 2    
   234  117  119 am   BACKBONE|DICT|INTERRES
   235  119  120 1    
   236  119  240 1    
   237  120  121 1    
   238  120  124 1    
   239  120  241 1    
   240  121  122 am   BACKBONE|DICT|INTERRES
   241  121  123 2    
   242  122  242 1    
   243  122  243 1    
   244  124  125 1    
   245  124  244 1    
   246  124  245 1    
   247  125  126 1    
   248  126  246 1    
   249  126  247 1    
@<TRIPOS>SUBSTRUCTURE
     1 UNK         1 GROUP             0       ****    0 ROOT    
