@<TRIPOS>MOLECULE
3R540
247   249    1
SMALL
USER_CHARGES


@<TRIPOS>ATOM
      1 CA          3.8894  -19.0576  -47.2764 C.3       0 UNK        -0.1800 
      2 C           3.3524  -17.6386  -47.1876 C.2       0 UNK         0.5000 
      3 O           3.5170  -16.9889  -46.1583 O.2       0 UNK        -0.5000 
      4 N           2.7404  -17.1353  -48.2677 N.am      1 UNK        -0.5000 
      5 CA          2.1730  -15.7800  -48.3554 C.3       1 UNK         0.1400 
      6 C6          1.3097  -15.5944  -49.6272 C.3       23 UNK        -0.0398 
      7 S7         -0.1742  -16.6565  -49.6261 S.3       23 UNK        -0.2404 
      8 C8         -1.3627  -15.5214  -48.8492 C.3       23 UNK        -0.0205 
      9 C9         -2.7463  -16.1355  -48.7060 C.ar      23 UNK        -0.0193 
     10 C10        -3.7768  -15.7630  -49.5724 C.ar      23 UNK        -0.1150 
     11 C11        -5.0724  -16.2514  -49.3844 C.ar      23 UNK        -0.0193 
     12 C12        -5.3319  -17.1273  -48.3267 C.ar      23 UNK        -0.1150 
     13 C13        -4.3059  -17.5250  -47.4613 C.ar      23 UNK        -0.0193 
     14 C14        -3.0153  -17.0252  -47.6631 C.ar      23 UNK        -0.1150 
     15 C15        -4.5780  -18.4127  -46.2497 C.3       23 UNK        -0.0205 
     16 S16        -5.8679  -19.6842  -46.4915 S.3       23 UNK        -0.2404 
     17 C17        -5.1035  -20.8894  -47.6360 C.3       23 UNK        -0.0398 
     18 CA         -3.6825  -21.3756  -47.2518 C.3       11 UNK         0.1400 
     19 N          -3.5588  -21.6704  -45.8170 N.am      11 UNK        -0.5000 
     20 C          -2.4262  -21.9956  -45.1816 C.2       10 UNK         0.5000 
     21 O          -1.3812  -22.2920  -45.7582 O.2       10 UNK        -0.5000 
     22 CA         -2.4512  -21.8593  -43.6565 C.3       10 UNK         0.1400 
     23 CB         -1.2809  -22.5798  -42.9615 C.3       10 UNK        -0.1800 
     24 N          -2.3793  -20.4300  -43.4024 N.am      10 UNK        -0.5000 
     25 C          -2.8369  -19.7660  -42.3419 C.2       9 UNK         0.5000 
     26 O          -3.3578  -20.3182  -41.3711 O.2       9 UNK        -0.5000 
     27 CA         -2.6999  -18.2246  -42.3965 C.3       9 UNK         0.1400 
     28 CB         -3.1513  -17.5482  -41.0899 C.3       9 UNK        -0.1800 
     29 N          -1.3505  -17.7527  -42.7363 N.am      9 UNK        -0.5000 
     30 C          -0.7482  -17.8482  -43.9318 C.2       8 UNK         0.5000 
     31 O          -1.2746  -18.3666  -44.9157 O.2       8 UNK        -0.5000 
     32 CA          0.6850  -17.3011  -44.0565 C.3       8 UNK         0.1400 
     33 CB          0.6620  -15.8286  -44.4907 C.3       8 UNK        -0.1800 
     34 N           1.4678  -17.4337  -42.8286 N.am      8 UNK        -0.5000 
     35 C           1.8710  -18.5966  -42.2974 C.2       7 UNK         0.5000 
     36 O           1.6225  -19.6983  -42.7871 O.2       7 UNK        -0.5000 
     37 CA          2.6792  -18.5152  -40.9915 C.3       7 UNK         0.1400 
     38 CB          4.1683  -18.2727  -41.2837 C.3       7 UNK        -0.1800 
     39 N           2.1792  -17.4516  -40.1218 N.am      7 UNK        -0.5000 
     40 C           1.2004  -17.6070  -39.2204 C.2       6 UNK         0.5000 
     41 O           0.6581  -18.6859  -38.9795 O.2       6 UNK        -0.5000 
     42 CA          0.7421  -16.3474  -38.4574 C.3       6 UNK         0.1400 
     43 CB          1.5107  -16.2125  -37.1341 C.3       6 UNK        -0.1800 
     44 N           0.8912  -15.1074  -39.2221 N.am      6 UNK        -0.5000 
     45 C           0.1977  -14.8081  -40.3288 C.2       5 UNK         0.5000 
     46 O          -0.6469  -15.5499  -40.8275 O.2       5 UNK        -0.5000 
     47 CA          0.5447  -13.4792  -41.0271 C.3       5 UNK         0.1400 
     48 CB         -0.2493  -12.3226  -40.4017 C.3       5 UNK        -0.1800 
     49 N           1.9730  -13.1399  -41.0305 N.am      5 UNK        -0.5000 
     50 C           2.9620  -13.9319  -41.4664 C.2       4 UNK         0.5000 
     51 O           2.7994  -15.1062  -41.8059 O.2       4 UNK        -0.5000 
     52 CA          4.3757  -13.3196  -41.4825 C.3       4 UNK         0.1400 
     53 CB          5.0138  -13.4275  -40.0888 C.3       4 UNK        -0.1800 
     54 N           5.2527  -13.9808  -42.4510 N.am      4 UNK        -0.5000 
     55 C           5.0625  -13.9964  -43.7773 C.2       3 UNK         0.5000 
     56 O           4.1799  -13.3475  -44.3457 O.2       3 UNK        -0.5000 
     57 CA          6.0266  -14.8912  -44.5831 C.3       3 UNK         0.1400 
     58 CB          6.0004  -16.3460  -44.0781 C.3       3 UNK        -0.1800 
     59 N           5.6997  -14.8869  -46.0090 N.am      3 UNK        -0.5000 
     60 C           6.1318  -13.9735  -46.8901 C.2       2 UNK         0.5000 
     61 O           6.9006  -13.0570  -46.5938 O.2       2 UNK        -0.5000 
     62 CA          5.6581  -14.1047  -48.3539 C.3       2 UNK         0.1400 
     63 CB          6.8010  -14.6209  -49.2428 C.3       2 UNK        -0.1800 
     64 N           4.5070  -14.9936  -48.5150 N.am      2 UNK        -0.5000 
     65 C           3.2356  -14.6598  -48.2529 C.2       1 UNK         0.5000 
     66 O           2.8850  -13.5240  -47.9316 O.2       1 UNK        -0.5000 
     67 C          -3.2418  -22.5253  -48.1837 C.2       11 UNK         0.5000 
     68 O          -2.8082  -22.2578  -49.3046 O.2       11 UNK        -0.5000 
     69 N          -3.3563  -23.7763  -47.7175 N.am      12 UNK        -0.5000 
     70 CA         -2.8938  -24.9669  -48.4325 C.3       12 UNK         0.1400 
     71 CB         -3.6044  -26.2068  -47.8714 C.3       12 UNK        -0.1800 
     72 C          -1.3653  -25.1348  -48.3650 C.2       12 UNK         0.5000 
     73 O          -0.7565  -25.5144  -49.3644 O.2       12 UNK        -0.5000 
     74 N          -0.7688  -24.8174  -47.2071 N.am      13 UNK        -0.5000 
     75 CA          0.6793  -24.8437  -46.9821 C.3       13 UNK         0.1400 
     76 CB          0.9650  -24.8732  -45.4728 C.3       13 UNK        -0.1800 
     77 C           1.3787  -23.6460  -47.6481 C.2       13 UNK         0.5000 
     78 O           2.4739  -23.7987  -48.1889 O.2       13 UNK        -0.5000 
     79 N           0.7023  -22.4890  -47.6412 N.am      14 UNK        -0.5000 
     80 CA          1.0910  -21.2710  -48.3535 C.3       14 UNK         0.1400 
     81 CB          0.3064  -20.0862  -47.7690 C.3       14 UNK        -0.1800 
     82 C           0.8929  -21.3647  -49.8817 C.2       14 UNK         0.5000 
     83 O           1.3646  -20.4881  -50.6050 O.2       14 UNK        -0.5000 
     84 N           0.2048  -22.4238  -50.3320 N.am      15 UNK        -0.5000 
     85 CA         -0.0746  -22.8318  -51.7108 C.3       15 UNK         0.1400 
     86 CB          1.2223  -23.0115  -52.5247 C.3       15 UNK        -0.1800 
     87 C          -1.1117  -21.9658  -52.4502 C.2       15 UNK         0.5000 
     88 O          -1.3827  -22.2290  -53.6209 O.2       15 UNK        -0.5000 
     89 N          -1.7270  -20.9980  -51.7617 N.am      16 UNK        -0.5000 
     90 CA         -2.7895  -20.1426  -52.2895 C.3       16 UNK         0.1400 
     91 CB         -3.0495  -19.0029  -51.2954 C.3       16 UNK        -0.1800 
     92 C          -4.0819  -20.9277  -52.5809 C.2       16 UNK         0.5000 
     93 O          -4.7351  -20.6856  -53.5983 O.2       16 UNK        -0.5000 
     94 N          -4.4122  -21.8828  -51.7008 N.am      17 UNK        -0.5000 
     95 CA         -5.5286  -22.8081  -51.8958 C.3       17 UNK         0.1400 
     96 CB         -6.0202  -23.3339  -50.5412 C.3       17 UNK        -0.1800 
     97 C          -5.1643  -23.9661  -52.8407 C.2       17 UNK         0.5000 
     98 O          -6.0386  -24.4493  -53.5583 O.2       17 UNK        -0.5000 
     99 N          -3.8836  -24.3673  -52.8627 N.am      18 UNK        -0.5000 
    100 CA        -3.3581  -25.4086  -53.7540 C.3       18 UNK         0.1400 
    101 CB        -1.9461  -25.8155  -53.3070 C.3       18 UNK        -0.1800 
    102 C         -3.3587  -24.9690  -55.2309 C.2       18 UNK         0.5000 
    103 O         -3.6711  -25.7734  -56.1087 O.2       18 UNK        -0.5000 
    104 N         -3.0628  -23.6834  -55.4679 N.am      19 UNK        -0.5000 
    105 CA        -3.1696  -23.0094  -56.7637 C.3       19 UNK         0.1400 
    106 CB        -2.3589  -21.7045  -56.7004 C.3       19 UNK        -0.1800 
    107 C         -4.6250  -22.7118  -57.1848 C.2       19 UNK         0.5000 
    108 O         -4.8421  -22.2687  -58.3130 O.2       19 UNK        -0.5000 
    109 N         -5.5841  -22.9343  -56.2723 N.am      20 UNK        -0.5000 
    110 CA        -7.0245  -22.6889  -56.3962 C.3       20 UNK         0.1400 
    111 CB        -7.6433  -23.5475  -57.5190 C.3       20 UNK        -0.1800 
    112 C         -7.3908  -21.1941  -56.5100 C.2       20 UNK         0.5000 
    113 O         -8.4829  -20.8680  -56.9779 O.2       20 UNK        -0.5000 
    114 N         -6.4930  -20.3099  -56.0540 N.am      21 UNK        -0.5000 
    115 CA        -6.7166  -18.8666  -55.9888 C.3       21 UNK         0.1400 
    116 CB        -5.3607  -18.1427  -55.9702 C.3       21 UNK        -0.1800 
    117 C         -7.5530  -18.4895  -54.7547 C.2       21 UNK         0.5000 
    118 O         -8.4258  -17.6258  -54.8500 O.2       21 UNK        -0.5000 
    119 N         -7.2727  -19.1610  -53.6316 N.am      22 UNK        -0.5000 
    120 CA        -7.9009  -18.9449  -52.3174 C.3       22 UNK         0.1400 
    121 C         -8.6093  -20.2206  -51.7750 C.2       22 UNK         0.5000 
    122 N         -8.9040  -21.2139  -52.6052 N.am      22 UNK        -0.7600 
    123 O         -8.9133  -20.3124  -50.5892 O.2       22 UNK        -0.5000 
    124 C124       -6.8905  -18.3529  -51.2994 C.3       23 UNK        -0.0398 
    125 S125       -6.2205  -16.7441  -51.8506 S.3       23 UNK        -0.2404 
    126 C126       -6.1967  -15.7964  -50.3011 C.3       23 UNK        -0.0205 
    127 H127        4.9383  -19.0786  -46.9810 H         1 UNK         0.0600 
    128 H128        3.8166  -19.4530  -48.2895 H         1 UNK         0.0600 
    129 H129        3.3335  -19.7093  -46.6025 H         1 UNK         0.0600 
    130 H130        2.6207  -17.7115  -49.0891 H         1 UNK         0.3000 
    131 H131        1.5214  -15.6509  -47.4891 H         1 UNK         0.0600 
    132 H132        0.9913  -14.5559  -49.7376 H         1 UNK         0.0800 
    133 H133        1.8947  -15.8220  -50.5199 H         1 UNK         0.0800 
    134 H134       -0.9940  -15.2327  -47.8638 H         1 UNK         0.0800 
    135 H135       -1.4200  -14.6032  -49.4360 H         1 UNK         0.0800 
    136 H136       -3.5782  -15.0726  -50.3802 H         1 UNK         0.1150 
    137 H137       -6.3403  -17.4803  -48.1667 H         1 UNK         0.1150 
    138 H138       -2.2179  -17.3005  -46.9889 H         1 UNK         0.1150 
    139 H139       -4.8965  -17.7645  -45.4327 H         1 UNK         0.0800 
    140 H140       -3.6591  -18.8872  -45.9086 H         1 UNK         0.0800 
    141 H141       -5.0938  -20.4475  -48.6343 H         1 UNK         0.0800 
    142 H142       -5.7886  -21.7374  -47.6876 H         1 UNK         0.0800 
    143 H143       -2.9956  -20.5523  -47.4527 H         1 UNK         0.0600 
    144 H144       -4.3665  -21.4261  -45.2613 H         1 UNK         0.3000 
    145 H145       -3.3959  -22.2614  -43.2851 H         1 UNK         0.0600 
    146 H146       -1.2849  -23.6451  -43.1942 H         1 UNK         0.0600 
    147 H147       -1.3465  -22.4821  -41.8780 H         1 UNK         0.0600 
    148 H148       -0.3166  -22.1751  -43.2730 H         1 UNK         0.0600 
    149 H149       -1.9603  -19.8762  -44.1480 H         1 UNK         0.3000 
    150 H150       -3.3751  -17.8864  -43.1849 H         1 UNK         0.0600 
    151 H151       -4.1621  -17.8511  -40.8138 H         1 UNK         0.0600 
    152 H152       -3.1622  -16.4632  -41.1930 H         1 UNK         0.0600 
    153 H153       -2.4901  -17.8004  -40.2597 H         1 UNK         0.0600 
    154 H154       -0.8566  -17.2664  -41.9960 H         1 UNK         0.3000 
    155 H155        1.1884  -17.8766  -44.8359 H         1 UNK         0.0600 
    156 H156        0.1660  -15.2020  -43.7503 H         1 UNK         0.0600 
    157 H157        0.1266  -15.7094  -45.4332 H         1 UNK         0.0600 
    158 H158        1.6719  -15.4431  -44.6367 H         1 UNK         0.0600 
    159 H159        1.7811  -16.5700  -42.3939 H         1 UNK         0.3000 
    160 H160        2.5914  -19.4778  -40.4830 H         1 UNK         0.0600 
    161 H161        4.3345  -17.3039  -41.7539 H         1 UNK         0.0600 
    162 H162        4.5658  -19.0361  -41.9536 H         1 UNK         0.0600 
    163 H163        4.7580  -18.3033  -40.3675 H         1 UNK         0.0600 
    164 H164        2.5216  -16.5182  -40.3158 H         1 UNK         0.3000 
    165 H165       -0.3177  -16.4730  -38.2257 H         1 UNK         0.0600 
    166 H166        1.1383  -15.3746  -36.5446 H         1 UNK         0.0600 
    167 H167        1.4007  -17.1108  -36.5251 H         1 UNK         0.0600 
    168 H168        2.5774  -16.0585  -37.3025 H         1 UNK         0.0600 
    169 H169        1.5784  -14.4461  -38.8919 H         1 UNK         0.3000 
    170 H170        0.2357  -13.5708  -42.0693 H         1 UNK         0.0600 
    171 H171       -0.1060  -11.3973  -40.9599 H         1 UNK         0.0600 
    172 H172        0.0488  -12.1418  -39.3682 H         1 UNK         0.0600 
    173 H173       -1.3190  -12.5373  -40.4022 H         1 UNK         0.0600 
    174 H174        2.2018  -12.1987  -40.7449 H         1 UNK         0.3000 
    175 H175        4.2970  -12.2662  -41.7585 H         1 UNK         0.0600 
    176 H176        4.4105  -12.9151  -39.3384 H         1 UNK         0.0600 
    177 H177        5.1165  -14.4667  -39.7729 H         1 UNK         0.0600 
    178 H178        6.0041  -12.9719  -40.0715 H         1 UNK         0.0600 
    179 H179        5.9864  -14.5539  -42.0623 H         1 UNK         0.3000 
    180 H180        7.0378  -14.5027  -44.4465 H         1 UNK         0.0600 
    181 H181        6.5849  -17.0014  -44.7240 H         1 UNK         0.0600 
    182 H182        4.9842  -16.7386  -44.0356 H         1 UNK         0.0600 
    183 H183        6.4224  -16.4266  -43.0762 H         1 UNK         0.0600 
    184 H184        5.0011  -15.5622  -46.2984 H         1 UNK         0.3000 
    185 H185        5.3836  -13.1059  -48.6999 H         1 UNK         0.0600 
    186 H186        6.4996  -14.6610  -50.2897 H         1 UNK         0.0600 
    187 H187        7.6709  -13.9656  -49.1820 H         1 UNK         0.0600 
    188 H188        7.1217  -15.6203  -48.9460 H         1 UNK         0.0600 
    189 H189        4.7050  -15.9488  -48.7748 H         1 UNK         0.3000 
    190 H190       -3.7338  -23.9129  -46.7912 H         1 UNK         0.3000 
    191 H191       -3.1645  -24.8738  -49.4862 H         1 UNK         0.0600 
    192 H192       -4.6855  -26.1253  -47.9857 H         1 UNK         0.0600 
    193 H193       -3.2899  -27.1087  -48.3984 H         1 UNK         0.0600 
    194 H194       -3.3883  -26.3526  -46.8124 H         1 UNK         0.0600 
    195 H195       -1.3281  -24.4250  -46.4624 H         1 UNK         0.3000 
    196 H196        1.0832  -25.7578  -47.4224 H         1 UNK         0.0600 
    197 H197        2.0362  -24.9484  -45.2820 H         1 UNK         0.0600 
    198 H198        0.4888  -25.7306  -44.9970 H         1 UNK         0.0600 
    199 H199        0.6080  -23.9714  -44.9752 H         1 UNK         0.0600 
    200 H200       -0.1520  -22.4388  -47.0890 H         1 UNK         0.3000 
    201 H201        2.1537  -21.1085  -48.1774 H         1 UNK         0.0600 
    202 H202        0.6349  -19.1453  -48.2085 H         1 UNK         0.0600 
    203 H203        0.4486  -20.0063  -46.6908 H         1 UNK         0.0600 
    204 H204       -0.7619  -20.1787  -47.9601 H         1 UNK         0.0600 
    205 H205       -0.1542  -23.0544  -49.6291 H         1 UNK         0.3000 
    206 H206       -0.5325  -23.8159  -51.6158 H         1 UNK         0.0600 
    207 H207        1.9311  -23.6525  -52.0004 H         1 UNK         0.0600 
    208 H208        1.0171  -23.4777  -53.4891 H         1 UNK         0.0600 
    209 H209        1.7125  -22.0585  -52.7244 H         1 UNK         0.0600 
    210 H210       -1.5021  -20.8986  -50.7820 H         1 UNK         0.3000 
    211 H211       -2.4420  -19.7083  -53.2291 H         1 UNK         0.0600 
    212 H212       -3.4437  -19.3670  -50.3457 H         1 UNK         0.0600 
    213 H213       -3.7658  -18.2911  -51.7024 H         1 UNK         0.0600 
    214 H214       -2.1359  -18.4479  -51.0849 H         1 UNK         0.0600 
    215 H215       -3.8205  -22.0222  -50.8857 H         1 UNK         0.3000 
    216 H216       -6.3560  -22.2663  -52.3560 H         1 UNK         0.0600 
    217 H217       -5.2453  -23.8864  -50.0129 H         1 UNK         0.0600 
    218 H218       -6.8692  -24.0061  -50.6709 H         1 UNK         0.0600 
    219 H219       -6.3538  -22.5159  -49.9039 H         1 UNK         0.0600 
    220 H220       -3.2225  -23.8994  -52.2634 H         1 UNK         0.3000 
    221 H221       -4.0061  -26.2832  -53.6636 H         1 UNK         0.0600 
    222 H222       -1.2200  -25.0249  -53.4933 H         1 UNK         0.0600 
    223 H223       -1.9169  -26.0637  -52.2456 H         1 UNK         0.0600 
    224 H224       -1.6088  -26.6955  -53.8557 H         1 UNK         0.0600 
    225 H225       -2.7224  -23.1127  -54.6992 H         1 UNK         0.3000 
    226 H226       -2.7306  -23.6527  -57.5288 H         1 UNK         0.0600 
    227 H227       -1.3135  -21.9014  -56.4618 H         1 UNK         0.0600 
    228 H228       -2.3791  -21.1794  -57.6562 H         1 UNK         0.0600 
    229 H229       -2.7522  -21.0249  -55.9427 H         1 UNK         0.0600 
    230 H230       -5.2961  -23.3195  -55.3829 H         1 UNK         0.3000 
    231 H231       -7.4625  -23.0257  -55.4559 H         1 UNK         0.0600 
    232 H232       -7.3263  -23.2152  -58.5077 H         1 UNK         0.0600 
    233 H233       -8.7324  -23.4983  -57.4938 H         1 UNK         0.0600 
    234 H234       -7.3656  -24.5960  -57.4111 H         1 UNK         0.0600 
    235 H235       -5.6416  -20.6553  -55.6292 H         1 UNK         0.3000 
    236 H236       -7.2596  -18.5467  -56.8808 H         1 UNK         0.0600 
    237 H237       -4.7692  -18.4089  -55.0935 H         1 UNK         0.0600 
    238 H238       -4.7733  -18.3840  -56.8562 H         1 UNK         0.0600 
    239 H239       -5.4984  -17.0609  -55.9544 H         1 UNK         0.0600 
    240 H240       -6.5091  -19.8293  -53.6519 H         1 UNK         0.3000 
    241 H241       -8.7096  -18.2198  -52.4214 H         1 UNK         0.0600 
    242 H242       -9.3805  -22.0284  -52.2515 H         1 UNK         0.3800 
    243 H243       -8.7201  -21.1247  -53.5905 H         1 UNK         0.3800 
    244 H244       -6.0632  -19.0429  -51.1322 H         1 UNK         0.0800 
    245 H245       -7.3712  -18.2156  -50.3300 H         1 UNK         0.0800 
    246 H246       -6.0638  -14.7401  -50.5397 H         1 UNK         0.0800 
    247 H247       -7.1637  -15.8726  -49.8016 H         1 UNK         0.0800 
@<TRIPOS>BOND
     1    1    2 1    
     2    1  127 1    
     3    1  128 1    
     4    1  129 1    
     5    2    3 2    
     6    2    4 am   BACKBONE|DICT|INTERRES
     7    4    5 1    
     8    4  130 1    
     9    5    6 1    
    10    5   65 1    
    11    5  131 1    
    12    6    7 1    
    13    6  132 1    
    14    6  133 1    
    15    7    8 1    
    16    8    9 1    
    17    8  134 1    
    18    8  135 1    
    19    9   10 ar   
    20    9   14 ar   
    21   10   11 ar   
    22   10  136 1    
    23   11   12 ar   
    24   11  126 1    
    25   12   13 ar   
    26   12  137 1    
    27   13   14 ar   
    28   13   15 1    
    29   14  138 1    
    30   15   16 1    
    31   15  139 1    
    32   15  140 1    
    33   16   17 1    
    34   17   18 1    
    35   17  141 1    
    36   17  142 1    
    37   18   19 1    
    38   18   67 1    
    39   18  143 1    
    40   19   20 am   BACKBONE|DICT|INTERRES
    41   19  144 1    
    42   20   21 2    
    43   20   22 1    
    44   22   23 1    
    45   22   24 1    
    46   22  145 1    
    47   23  146 1    
    48   23  147 1    
    49   23  148 1    
    50   24   25 am   BACKBONE|DICT|INTERRES
    51   24  149 1    
    52   25   26 2    
    53   25   27 1    
    54   27   28 1    
    55   27   29 1    
    56   27  150 1    
    57   28  151 1    
    58   28  152 1    
    59   28  153 1    
    60   29   30 am   BACKBONE|DICT|INTERRES
    61   29  154 1    
    62   30   31 2    
    63   30   32 1    
    64   32   33 1    
    65   32   34 1    
    66   32  155 1    
    67   33  156 1    
    68   33  157 1    
    69   33  158 1    
    70   34   35 am   BACKBONE|DICT|INTERRES
    71   34  159 1    
    72   35   36 2    
    73   35   37 1    
    74   37   38 1    
    75   37   39 1    
    76   37  160 1    
    77   38  161 1    
    78   38  162 1    
    79   38  163 1    
    80   39   40 am   BACKBONE|DICT|INTERRES
    81   39  164 1    
    82   40   41 2    
    83   40   42 1    
    84   42   43 1    
    85   42   44 1    
    86   42  165 1    
    87   43  166 1    
    88   43  167 1    
    89   43  168 1    
    90   44   45 am   BACKBONE|DICT|INTERRES
    91   44  169 1    
    92   45   46 2    
    93   45   47 1    
    94   47   48 1    
    95   47   49 1    
    96   47  170 1    
    97   48  171 1    
    98   48  172 1    
    99   48  173 1    
   100   49   50 am   BACKBONE|DICT|INTERRES
   101   49  174 1    
   102   50   51 2    
   103   50   52 1    
   104   52   53 1    
   105   52   54 1    
   106   52  175 1    
   107   53  176 1    
   108   53  177 1    
   109   53  178 1    
   110   54   55 am   BACKBONE|DICT|INTERRES
   111   54  179 1    
   112   55   56 2    
   113   55   57 1    
   114   57   58 1    
   115   57   59 1    
   116   57  180 1    
   117   58  181 1    
   118   58  182 1    
   119   58  183 1    
   120   59   60 am   BACKBONE|DICT|INTERRES
   121   59  184 1    
   122   60   61 2    
   123   60   62 1    
   124   62   63 1    
   125   62   64 1    
   126   62  185 1    
   127   63  186 1    
   128   63  187 1    
   129   63  188 1    
   130   64   65 am   BACKBONE|DICT|INTERRES
   131   64  189 1    
   132   65   66 2    
   133   67   68 2    
   134   67   69 am   BACKBONE|DICT|INTERRES
   135   69   70 1    
   136   69  190 1    
   137   70   71 1    
   138   70   72 1    
   139   70  191 1    
   140   71  192 1    
   141   71  193 1    
   142   71  194 1    
   143   72   73 2    
   144   72   74 am   BACKBONE|DICT|INTERRES
   145   74   75 1    
   146   74  195 1    
   147   75   76 1    
   148   75   77 1    
   149   75  196 1    
   150   76  197 1    
   151   76  198 1    
   152   76  199 1    
   153   77   78 2    
   154   77   79 am   BACKBONE|DICT|INTERRES
   155   79   80 1    
   156   79  200 1    
   157   80   81 1    
   158   80   82 1    
   159   80  201 1    
   160   81  202 1    
   161   81  203 1    
   162   81  204 1    
   163   82   83 2    
   164   82   84 am   BACKBONE|DICT|INTERRES
   165   84   85 1    
   166   84  205 1    
   167   85   86 1    
   168   85   87 1    
   169   85  206 1    
   170   86  207 1    
   171   86  208 1    
   172   86  209 1    
   173   87   88 2    
   174   87   89 am   BACKBONE|DICT|INTERRES
   175   89   90 1    
   176   89  210 1    
   177   90   91 1    
   178   90   92 1    
   179   90  211 1    
   180   91  212 1    
   181   91  213 1    
   182   91  214 1    
   183   92   93 2    
   184   92   94 am   BACKBONE|DICT|INTERRES
   185   94   95 1    
   186   94  215 1    
   187   95   96 1    
   188   95   97 1    
   189   95  216 1    
   190   96  217 1    
   191   96  218 1    
   192   96  219 1    
   193   97   98 2    
   194   97   99 am   BACKBONE|DICT|INTERRES
   195   99  100 1    
   196   99  220 1    
   197  100  101 1    
   198  100  102 1    
   199  100  221 1    
   200  101  222 1    
   201  101  223 1    
   202  101  224 1    
   203  102  103 2    
   204  102  104 am   BACKBONE|DICT|INTERRES
   205  104  105 1    
   206  104  225 1    
   207  105  106 1    
   208  105  107 1    
   209  105  226 1    
   210  106  227 1    
   211  106  228 1    
   212  106  229 1    
   213  107  108 2    
   214  107  109 am   BACKBONE|DICT|INTERRES
   215  109  110 1    
   216  109  230 1    
   217  110  111 1    
   218  110  112 1    
   219  110  231 1    
   220  111  232 1    
   221  111  233 1    
   222  111  234 1    
   223  112  113 2    
   224  112  114 am   BACKBONE|DICT|INTERRES
   225  114  115 1    
   226  114  235 1    
   227  115  116 1    
   228  115  117 1    
   229  115  236 1    
   230  116  237 1    
   231  116  238 1    
   232  116  239 1    
   233  117  118 2    
   234  117  119 am   BACKBONE|DICT|INTERRES
   235  119  120 1    
   236  119  240 1    
   237  120  121 1    
   238  120  124 1    
   239  120  241 1    
   240  121  122 am   BACKBONE|DICT|INTERRES
   241  121  123 2    
   242  122  242 1    
   243  122  243 1    
   244  124  125 1    
   245  124  244 1    
   246  124  245 1    
   247  125  126 1    
   248  126  246 1    
   249  126  247 1    
@<TRIPOS>SUBSTRUCTURE
     1 UNK         1 GROUP             0       ****    0 ROOT    
