@<TRIPOS>MOLECULE
3R540
247   249    1
SMALL
USER_CHARGES


@<TRIPOS>ATOM
      1 CA         -3.1129  -10.9554  -43.9403 C.3       0 UNK        -0.1800 
      2 C          -2.3063  -10.9526  -45.2310 C.2       0 UNK         0.5000 
      3 O          -1.8923   -9.8889  -45.6943 O.2       0 UNK        -0.5000 
      4 N          -2.0787  -12.1363  -45.8141 N.am      1 UNK        -0.5000 
      5 CA         -1.2921  -12.3402  -47.0331 C.3       1 UNK         0.1400 
      6 C6         -1.7124  -13.6406  -47.7632 C.3       23 UNK        -0.0398 
      7 S7         -1.2251  -13.6255  -49.5212 S.3       23 UNK        -0.2404 
      8 C8         -2.5793  -14.5817  -50.2711 C.3       23 UNK        -0.0205 
      9 C9         -2.4851  -16.0571  -49.9158 C.ar      23 UNK        -0.0193 
     10 C10        -1.5778  -16.8740  -50.5923 C.ar      23 UNK        -0.1150 
     11 C11        -1.4927  -18.2415  -50.3076 C.ar      23 UNK        -0.0193 
     12 C12        -2.3080  -18.7712  -49.3025 C.ar      23 UNK        -0.1150 
     13 C13        -3.2117  -17.9647  -48.5997 C.ar      23 UNK        -0.0193 
     14 C14        -3.2990  -16.6071  -48.9222 C.ar      23 UNK        -0.1150 
     15 C15        -4.0586  -18.5159  -47.4531 C.3       23 UNK        -0.0205 
     16 S16        -4.6111  -20.2434  -47.6724 S.3       23 UNK        -0.2404 
     17 C17        -4.4668  -20.8942  -45.9676 C.3       23 UNK        -0.0398 
     18 CA         -3.1749  -21.7311  -45.7698 C.3       11 UNK         0.1400 
     19 N          -2.6406  -21.6877  -44.4001 N.am      11 UNK        -0.5000 
     20 C          -3.2452  -22.0482  -43.2579 C.2       10 UNK         0.5000 
     21 O          -4.3919  -22.4912  -43.2070 O.2       10 UNK        -0.5000 
     22 CA         -2.4135  -21.9374  -41.9693 C.3       10 UNK         0.1400 
     23 CB         -1.4461  -23.1274  -41.8574 C.3       10 UNK        -0.1800 
     24 N          -1.6510  -20.6908  -41.9516 N.am      10 UNK        -0.5000 
     25 C          -2.0297  -19.5728  -41.3150 C.2       9 UNK         0.5000 
     26 O          -2.9987  -19.5083  -40.5577 O.2       9 UNK        -0.5000 
     27 CA         -1.2039  -18.2983  -41.5951 C.3       9 UNK         0.1400 
     28 CB         -0.0610  -18.1595  -40.5787 C.3       9 UNK        -0.1800 
     29 N          -0.6484  -18.2677  -42.9499 N.am      9 UNK        -0.5000 
     30 C          -1.3840  -18.2606  -44.0712 C.2       8 UNK         0.5000 
     31 O          -2.6056  -18.1136  -44.0800 O.2       8 UNK        -0.5000 
     32 CA         -0.6521  -18.5141  -45.4029 C.3       8 UNK         0.1400 
     33 CB         -0.6040  -17.2359  -46.2503 C.3       8 UNK        -0.1800 
     34 N           0.6966  -19.0774  -45.2626 N.am      8 UNK        -0.5000 
     35 C           0.9767  -20.2955  -44.7726 C.2       7 UNK         0.5000 
     36 O           0.1095  -21.0584  -44.3431 O.2       7 UNK        -0.5000 
     37 CA          2.4482  -20.7391  -44.7346 C.3       7 UNK         0.1400 
     38 CB          2.8363  -21.4528  -46.0371 C.3       7 UNK        -0.1800 
     39 N           3.3505  -19.6088  -44.5161 N.am      7 UNK        -0.5000 
     40 C           4.2328  -19.5206  -43.5106 C.2       6 UNK         0.5000 
     41 O           4.4227  -20.4138  -42.6838 O.2       6 UNK        -0.5000 
     42 CA          5.0397  -18.2100  -43.3907 C.3       6 UNK         0.1400 
     43 CB          6.4093  -18.3601  -44.0704 C.3       6 UNK        -0.1800 
     44 N           4.3599  -17.0397  -43.9490 N.am      6 UNK        -0.5000 
     45 C           3.1872  -16.5523  -43.5227 C.2       5 UNK         0.5000 
     46 O           2.5665  -17.0055  -42.5611 O.2       5 UNK        -0.5000 
     47 CA          2.5774  -15.3887  -44.3249 C.3       5 UNK         0.1400 
     48 CB          2.8947  -14.0501  -43.6444 C.3       5 UNK        -0.1800 
     49 N           2.9510  -15.3032  -45.7437 N.am      5 UNK        -0.5000 
     50 C           2.8595  -16.2712  -46.6687 C.2       4 UNK         0.5000 
     51 O           2.6463  -17.4536  -46.3944 O.2       4 UNK        -0.5000 
     52 CA          3.0139  -15.8615  -48.1455 C.3       4 UNK         0.1400 
     53 CB          1.8552  -16.4058  -49.0011 C.3       4 UNK        -0.1800 
     54 N           3.0698  -14.4076  -48.3198 N.am      4 UNK        -0.5000 
     55 C           4.0360  -13.7505  -48.9755 C.2       3 UNK         0.5000 
     56 O           5.0337  -14.2979  -49.4471 O.2       3 UNK        -0.5000 
     57 CA          3.8672  -12.2281  -49.1617 C.3       3 UNK         0.1400 
     58 CB          3.3590  -11.9202  -50.5790 C.3       3 UNK        -0.1800 
     59 N           2.9621  -11.6028  -48.1970 N.am      3 UNK        -0.5000 
     60 C           3.2241  -11.4312  -46.8950 C.2       2 UNK         0.5000 
     61 O           4.2762  -11.7775  -46.3578 O.2       2 UNK        -0.5000 
     62 CA          2.1098  -10.7913  -46.0422 C.3       2 UNK         0.1400 
     63 CB          2.2956   -9.2678  -45.9799 C.3       2 UNK        -0.1800 
     64 N           0.7408  -11.0841  -46.4843 N.am      2 UNK        -0.5000 
     65 C           0.2134  -12.2983  -46.6951 C.2       1 UNK         0.5000 
     66 O           0.8563  -13.3444  -46.6044 O.2       1 UNK        -0.5000 
     67 C          -3.2988  -23.1672  -46.3310 C.2       11 UNK         0.5000 
     68 O          -3.0225  -23.3865  -47.5133 O.2       11 UNK        -0.5000 
     69 N          -3.6413  -24.1376  -45.4731 N.am      12 UNK        -0.5000 
     70 CA         -3.6314  -25.5765  -45.7482 C.3       12 UNK         0.1400 
     71 CB         -4.1402  -26.3315  -44.5122 C.3       12 UNK        -0.1800 
     72 C          -2.2409  -26.0862  -46.1688 C.2       12 UNK         0.5000 
     73 O          -2.1329  -26.8628  -47.1172 O.2       12 UNK        -0.5000 
     74 N          -1.2036  -25.5849  -45.4857 N.am      13 UNK        -0.5000 
     75 CA          0.2029  -25.8568  -45.7815 C.3       13 UNK         0.1400 
     76 CB          1.0419  -25.4677  -44.5535 C.3       13 UNK        -0.1800 
     77 C           0.7184  -25.1109  -47.0283 C.2       13 UNK         0.5000 
     78 O           1.7184  -25.5326  -47.6098 O.2       13 UNK        -0.5000 
     79 N           0.0549  -24.0062  -47.3949 N.am      14 UNK        -0.5000 
     80 CA          0.4551  -23.1288  -48.4906 C.3       14 UNK         0.1400 
     81 CB         -0.0635  -21.7081  -48.2215 C.3       14 UNK        -0.1800 
     82 C          -0.0571  -23.6392  -49.8436 C.2       14 UNK         0.5000 
     83 O           0.7377  -23.8031  -50.7697 O.2       14 UNK        -0.5000 
     84 N          -1.3749  -23.8581  -49.9380 N.am      15 UNK        -0.5000 
     85 CA         -2.0607  -24.1896  -51.1858 C.3       15 UNK         0.1400 
     86 CB         -2.1786  -22.9360  -52.0788 C.3       15 UNK        -0.1800 
     87 C          -3.4187  -24.8543  -50.9104 C.2       15 UNK         0.5000 
     88 O          -4.4081  -24.5224  -51.5631 O.2       15 UNK        -0.5000 
     89 N          -3.4568  -25.7749  -49.9343 N.am      16 UNK        -0.5000 
     90 CA         -4.6212  -26.5941  -49.5611 C.3       16 UNK         0.1400 
     91 CB         -4.9314  -27.6198  -50.6715 C.3       16 UNK        -0.1800 
     92 C          -5.8624  -25.7671  -49.1528 C.2       16 UNK         0.5000 
     93 O          -6.9945  -26.1913  -49.3880 O.2       16 UNK        -0.5000 
     94 N          -5.6111  -24.5943  -48.5536 N.am      17 UNK        -0.5000 
     95 CA         -6.5749  -23.5948  -48.0859 C.3       17 UNK         0.1400 
     96 CB         -7.5429  -24.1802  -47.0373 C.3       17 UNK        -0.1800 
     97 C          -7.2918  -22.8189  -49.2099 C.2       17 UNK         0.5000 
     98 O          -8.2290  -22.0733  -48.9198 O.2       17 UNK        -0.5000 
     99 N          -6.8253  -22.9531  -50.4589 N.am      18 UNK        -0.5000 
    100 CA        -7.2345  -22.1143  -51.5793 C.3       18 UNK         0.1400 
    101 CB        -7.1541  -22.9253  -52.8826 C.3       18 UNK        -0.1800 
    102 C         -6.3209  -20.8793  -51.5993 C.2       18 UNK         0.5000 
    103 O         -5.1839  -20.9602  -52.0679 O.2       18 UNK        -0.5000 
    104 N         -6.8096  -19.7683  -51.0352 N.am      19 UNK        -0.5000 
    105 CA        -6.0649  -18.5164  -50.9092 C.3       19 UNK         0.1400 
    106 CB        -6.8938  -17.4991  -50.1123 C.3       19 UNK        -0.1800 
    107 C         -5.6453  -17.9466  -52.2764 C.2       19 UNK         0.5000 
    108 O         -6.4801  -17.8457  -53.1778 O.2       19 UNK        -0.5000 
    109 N         -4.3537  -17.6142  -52.3939 N.am      20 UNK        -0.5000 
    110 CA        -3.6593  -17.0978  -53.5788 C.3       20 UNK         0.1400 
    111 CB        -4.2743  -15.7667  -54.0564 C.3       20 UNK        -0.1800 
    112 C         -3.4873  -18.1110  -54.7322 C.2       20 UNK         0.5000 
    113 O         -2.9146  -17.7443  -55.7603 O.2       20 UNK        -0.5000 
    114 N         -3.9013  -19.3769  -54.5505 N.am      21 UNK        -0.5000 
    115 CA        -3.7080  -20.4543  -55.5335 C.3       21 UNK         0.1400 
    116 CB        -4.6054  -21.6478  -55.1822 C.3       21 UNK        -0.1800 
    117 C         -2.2343  -20.8909  -55.6790 C.2       21 UNK         0.5000 
    118 O         -1.8863  -21.5511  -56.6586 O.2       21 UNK        -0.5000 
    119 N         -1.3940  -20.4732  -54.7252 N.am      22 UNK        -0.5000 
    120 CA         0.0733  -20.4698  -54.7981 C.3       22 UNK         0.1400 
    121 C          0.6721  -19.5656  -55.9208 C.2       22 UNK         0.5000 
    122 N         -0.0684  -18.6230  -56.4960 N.am      22 UNK        -0.7600 
    123 O          1.8337  -19.7316  -56.2828 O.2       22 UNK        -0.5000 
    124 C124        0.6990  -20.1276  -53.4181 C.3       23 UNK        -0.0398 
    125 S125        0.0152  -18.5949  -52.6830 S.3       23 UNK        -0.2404 
    126 C126       -0.5242  -19.1732  -51.0376 C.3       23 UNK        -0.0205 
    127 H127       -3.4152  -11.9627  -43.6528 H         1 UNK         0.0600 
    128 H128       -4.0124  -10.3513  -44.0590 H         1 UNK         0.0600 
    129 H129       -2.5216  -10.5328  -43.1280 H         1 UNK         0.0600 
    130 H130       -2.4184  -12.9761  -45.3675 H         1 UNK         0.3000 
    131 H131       -1.5019  -11.5059  -47.7067 H         1 UNK         0.0600 
    132 H132       -2.7974  -13.7412  -47.7188 H         1 UNK         0.0800 
    133 H133       -1.3121  -14.5337  -47.2817 H         1 UNK         0.0800 
    134 H134       -2.5292  -14.4688  -51.3551 H         1 UNK         0.0800 
    135 H135       -3.5424  -14.1676  -49.9691 H         1 UNK         0.0800 
    136 H136       -0.9402  -16.4291  -51.3422 H         1 UNK         0.1150 
    137 H137       -2.2318  -19.8199  -49.0620 H         1 UNK         0.1150 
    138 H138       -3.9901  -15.9718  -48.3861 H         1 UNK         0.1150 
    139 H139       -3.4692  -18.4294  -46.5431 H         1 UNK         0.0800 
    140 H140       -4.9440  -17.8962  -47.3036 H         1 UNK         0.0800 
    141 H141       -5.3571  -21.4754  -45.7227 H         1 UNK         0.0800 
    142 H142       -4.4785  -20.0531  -45.2731 H         1 UNK         0.0800 
    143 H143       -2.3897  -21.2579  -46.3585 H         1 UNK         0.0600 
    144 H144       -1.6627  -21.4119  -44.3396 H         1 UNK         0.3000 
    145 H145       -3.0991  -21.9779  -41.1203 H         1 UNK         0.0600 
    146 H146       -0.8880  -23.0904  -40.9217 H         1 UNK         0.0600 
    147 H147       -1.9867  -24.0747  -41.8752 H         1 UNK         0.0600 
    148 H148       -0.7235  -23.1448  -42.6742 H         1 UNK         0.0600 
    149 H149       -0.8535  -20.6467  -42.5746 H         1 UNK         0.3000 
    150 H150       -1.8699  -17.4401  -41.4838 H         1 UNK         0.0600 
    151 H151       -0.4410  -18.1817  -39.5564 H         1 UNK         0.0600 
    152 H152        0.4670  -17.2145  -40.7071 H         1 UNK         0.0600 
    153 H153        0.6667  -18.9660  -40.6778 H         1 UNK         0.0600 
    154 H154        0.3553  -18.3522  -43.0305 H         1 UNK         0.3000 
    155 H155       -1.2474  -19.2438  -45.9528 H         1 UNK         0.0600 
    156 H156        0.0239  -16.4696  -45.7997 H         1 UNK         0.0600 
    157 H157       -1.5986  -16.8063  -46.3703 H         1 UNK         0.0600 
    158 H158       -0.2257  -17.4474  -47.2494 H         1 UNK         0.0600 
    159 H159        1.4512  -18.5081  -45.6405 H         1 UNK         0.3000 
    160 H160        2.5337  -21.4603  -43.9193 H         1 UNK         0.0600 
    161 H161        2.7102  -20.8061  -46.9065 H         1 UNK         0.0600 
    162 H162        2.2246  -22.3423  -46.1876 H         1 UNK         0.0600 
    163 H163        3.8760  -21.7793  -46.0112 H         1 UNK         0.0600 
    164 H164        3.2586  -18.8214  -45.1507 H         1 UNK         0.3000 
    165 H165        5.2025  -18.0229  -42.3273 H         1 UNK         0.0600 
    166 H166        7.0245  -17.4728  -43.9202 H         1 UNK         0.0600 
    167 H167        6.9589  -19.2082  -43.6596 H         1 UNK         0.0600 
    168 H168        6.3088  -18.5230  -45.1443 H         1 UNK         0.0600 
    169 H169        4.7844  -16.6102  -44.7576 H         1 UNK         0.3000 
    170 H170        1.4957  -15.5250  -44.2900 H         1 UNK         0.0600 
    171 H171        2.6744  -14.0853  -42.5764 H         1 UNK         0.0600 
    172 H172        3.9451  -13.7789  -43.7573 H         1 UNK         0.0600 
    173 H173        2.2903  -13.2500  -44.0677 H         1 UNK         0.0600 
    174 H174        3.1355  -14.3704  -46.0832 H         1 UNK         0.3000 
    175 H175        3.9382  -16.3292  -48.4894 H         1 UNK         0.0600 
    176 H176        0.9032  -15.9551  -48.7177 H         1 UNK         0.0600 
    177 H177        2.0156  -16.1966  -50.0587 H         1 UNK         0.0600 
    178 H178        1.7538  -17.4871  -48.9000 H         1 UNK         0.0600 
    179 H179        2.2861  -13.8876  -47.9362 H         1 UNK         0.3000 
    180 H180        4.8535  -11.7736  -49.0463 H         1 UNK         0.0600 
    181 H181        2.3651  -12.3372  -50.7483 H         1 UNK         0.0600 
    182 H182        4.0243  -12.3412  -51.3340 H         1 UNK         0.0600 
    183 H183        3.3083  -10.8458  -50.7562 H         1 UNK         0.0600 
    184 H184        2.0662  -11.2972  -48.5474 H         1 UNK         0.3000 
    185 H185        2.2117  -11.1799  -45.0287 H         1 UNK         0.0600 
    186 H186        3.2946   -9.0087  -45.6264 H         1 UNK         0.0600 
    187 H187        2.1634   -8.8067  -46.9594 H         1 UNK         0.0600 
    188 H188        1.5816   -8.8107  -45.2943 H         1 UNK         0.0600 
    189 H189        0.1061  -10.2952  -46.5180 H         1 UNK         0.3000 
    190 H190       -3.9089  -23.8517  -44.5366 H         1 UNK         0.3000 
    191 H191       -4.3212  -25.7749  -46.5658 H         1 UNK         0.0600 
    192 H192       -5.1581  -26.0324  -44.2612 H         1 UNK         0.0600 
    193 H193       -3.5128  -26.1484  -43.6389 H         1 UNK         0.0600 
    194 H194       -4.1529  -27.4078  -44.6891 H         1 UNK         0.0600 
    195 H195       -1.3911  -24.9557  -44.7199 H         1 UNK         0.3000 
    196 H196        0.3232  -26.9277  -45.9588 H         1 UNK         0.0600 
    197 H197        2.0976  -25.6899  -44.7148 H         1 UNK         0.0600 
    198 H198        0.7269  -26.0201  -43.6680 H         1 UNK         0.0600 
    199 H199        0.9620  -24.4023  -44.3317 H         1 UNK         0.0600 
    200 H200       -0.7939  -23.7682  -46.9059 H         1 UNK         0.3000 
    201 H201        1.5459  -23.0848  -48.5297 H         1 UNK         0.0600 
    202 H202        0.1707  -21.3801  -47.2131 H         1 UNK         0.0600 
    203 H203       -1.1425  -21.6375  -48.3458 H         1 UNK         0.0600 
    204 H204        0.3966  -20.9983  -48.9060 H         1 UNK         0.0600 
    205 H205       -1.9656  -23.7033  -49.1250 H         1 UNK         0.3000 
    206 H206       -1.4689  -24.9340  -51.7223 H         1 UNK         0.0600 
    207 H207       -1.2014  -22.5221  -52.3211 H         1 UNK         0.0600 
    208 H208       -2.6599  -23.1767  -53.0262 H         1 UNK         0.0600 
    209 H209       -2.7651  -22.1538  -51.5957 H         1 UNK         0.0600 
    210 H210       -2.6058  -25.9718  -49.4233 H         1 UNK         0.3000 
    211 H211       -4.3312  -27.1572  -48.6739 H         1 UNK         0.0600 
    212 H212       -5.2905  -27.1359  -51.5804 H         1 UNK         0.0600 
    213 H213       -5.6989  -28.3255  -50.3515 H         1 UNK         0.0600 
    214 H214       -4.0464  -28.2019  -50.9285 H         1 UNK         0.0600 
    215 H215       -4.6392  -24.3279  -48.4406 H         1 UNK         0.3000 
    216 H216       -5.9766  -22.8470  -47.5715 H         1 UNK         0.0600 
    217 H217       -8.1263  -23.3910  -46.5620 H         1 UNK         0.0600 
    218 H218       -7.0005  -24.6998  -46.2472 H         1 UNK         0.0600 
    219 H219       -8.2496  -24.8817  -47.4806 H         1 UNK         0.0600 
    220 H220       -6.0263  -23.5546  -50.6299 H         1 UNK         0.3000 
    221 H221       -8.2710  -21.7932  -51.4556 H         1 UNK         0.0600 
    222 H222       -6.1413  -23.2702  -53.0893 H         1 UNK         0.0600 
    223 H223       -7.8001  -23.8022  -52.8395 H         1 UNK         0.0600 
    224 H224       -7.4769  -22.3240  -53.7328 H         1 UNK         0.0600 
    225 H225       -7.7431  -19.7821  -50.6510 H         1 UNK         0.3000 
    226 H226       -5.1652  -18.7435  -50.3376 H         1 UNK         0.0600 
    227 H227       -7.1254  -17.8750  -49.1155 H         1 UNK         0.0600 
    228 H228       -6.3457  -16.5643  -49.9867 H         1 UNK         0.0600 
    229 H229       -7.8340  -17.2654  -50.6133 H         1 UNK         0.0600 
    230 H230       -3.7577  -17.7541  -51.5883 H         1 UNK         0.3000 
    231 H231       -2.6458  -16.8744  -53.2450 H         1 UNK         0.0600 
    232 H232       -3.6485  -15.2988  -54.8171 H         1 UNK         0.0600 
    233 H233       -4.3673  -15.0572  -53.2341 H         1 UNK         0.0600 
    234 H234       -5.2628  -15.9074  -54.4938 H         1 UNK         0.0600 
    235 H235       -4.3490  -19.6355  -53.6787 H         1 UNK         0.3000 
    236 H236       -4.0266  -20.0775  -56.5076 H         1 UNK         0.0600 
    237 H237       -4.5473  -22.4204  -55.9497 H         1 UNK         0.0600 
    238 H238       -4.3134  -22.1051  -54.2384 H         1 UNK         0.0600 
    239 H239       -5.6492  -21.3450  -55.1031 H         1 UNK         0.0600 
    240 H240       -1.7841  -19.9388  -53.9636 H         1 UNK         0.3000 
    241 H241        0.3758  -21.4881  -55.0490 H         1 UNK         0.0600 
    242 H242       -1.0236  -18.4500  -56.2052 H         1 UNK         0.3800 
    243 H243        0.3380  -18.0542  -57.2216 H         1 UNK         0.3800 
    244 H244        0.5383  -20.9612  -52.7346 H         1 UNK         0.0800 
    245 H245        1.7834  -20.0271  -53.4918 H         1 UNK         0.0800 
    246 H246       -0.9892  -20.1547  -51.1427 H         1 UNK         0.0800 
    247 H247        0.3636  -19.3021  -50.4192 H         1 UNK         0.0800 
@<TRIPOS>BOND
     1    1    2 1    
     2    1  127 1    
     3    1  128 1    
     4    1  129 1    
     5    2    3 2    
     6    2    4 am   BACKBONE|DICT|INTERRES
     7    4    5 1    
     8    4  130 1    
     9    5    6 1    
    10    5   65 1    
    11    5  131 1    
    12    6    7 1    
    13    6  132 1    
    14    6  133 1    
    15    7    8 1    
    16    8    9 1    
    17    8  134 1    
    18    8  135 1    
    19    9   10 ar   
    20    9   14 ar   
    21   10   11 ar   
    22   10  136 1    
    23   11   12 ar   
    24   11  126 1    
    25   12   13 ar   
    26   12  137 1    
    27   13   14 ar   
    28   13   15 1    
    29   14  138 1    
    30   15   16 1    
    31   15  139 1    
    32   15  140 1    
    33   16   17 1    
    34   17   18 1    
    35   17  141 1    
    36   17  142 1    
    37   18   19 1    
    38   18   67 1    
    39   18  143 1    
    40   19   20 am   BACKBONE|DICT|INTERRES
    41   19  144 1    
    42   20   21 2    
    43   20   22 1    
    44   22   23 1    
    45   22   24 1    
    46   22  145 1    
    47   23  146 1    
    48   23  147 1    
    49   23  148 1    
    50   24   25 am   BACKBONE|DICT|INTERRES
    51   24  149 1    
    52   25   26 2    
    53   25   27 1    
    54   27   28 1    
    55   27   29 1    
    56   27  150 1    
    57   28  151 1    
    58   28  152 1    
    59   28  153 1    
    60   29   30 am   BACKBONE|DICT|INTERRES
    61   29  154 1    
    62   30   31 2    
    63   30   32 1    
    64   32   33 1    
    65   32   34 1    
    66   32  155 1    
    67   33  156 1    
    68   33  157 1    
    69   33  158 1    
    70   34   35 am   BACKBONE|DICT|INTERRES
    71   34  159 1    
    72   35   36 2    
    73   35   37 1    
    74   37   38 1    
    75   37   39 1    
    76   37  160 1    
    77   38  161 1    
    78   38  162 1    
    79   38  163 1    
    80   39   40 am   BACKBONE|DICT|INTERRES
    81   39  164 1    
    82   40   41 2    
    83   40   42 1    
    84   42   43 1    
    85   42   44 1    
    86   42  165 1    
    87   43  166 1    
    88   43  167 1    
    89   43  168 1    
    90   44   45 am   BACKBONE|DICT|INTERRES
    91   44  169 1    
    92   45   46 2    
    93   45   47 1    
    94   47   48 1    
    95   47   49 1    
    96   47  170 1    
    97   48  171 1    
    98   48  172 1    
    99   48  173 1    
   100   49   50 am   BACKBONE|DICT|INTERRES
   101   49  174 1    
   102   50   51 2    
   103   50   52 1    
   104   52   53 1    
   105   52   54 1    
   106   52  175 1    
   107   53  176 1    
   108   53  177 1    
   109   53  178 1    
   110   54   55 am   BACKBONE|DICT|INTERRES
   111   54  179 1    
   112   55   56 2    
   113   55   57 1    
   114   57   58 1    
   115   57   59 1    
   116   57  180 1    
   117   58  181 1    
   118   58  182 1    
   119   58  183 1    
   120   59   60 am   BACKBONE|DICT|INTERRES
   121   59  184 1    
   122   60   61 2    
   123   60   62 1    
   124   62   63 1    
   125   62   64 1    
   126   62  185 1    
   127   63  186 1    
   128   63  187 1    
   129   63  188 1    
   130   64   65 am   BACKBONE|DICT|INTERRES
   131   64  189 1    
   132   65   66 2    
   133   67   68 2    
   134   67   69 am   BACKBONE|DICT|INTERRES
   135   69   70 1    
   136   69  190 1    
   137   70   71 1    
   138   70   72 1    
   139   70  191 1    
   140   71  192 1    
   141   71  193 1    
   142   71  194 1    
   143   72   73 2    
   144   72   74 am   BACKBONE|DICT|INTERRES
   145   74   75 1    
   146   74  195 1    
   147   75   76 1    
   148   75   77 1    
   149   75  196 1    
   150   76  197 1    
   151   76  198 1    
   152   76  199 1    
   153   77   78 2    
   154   77   79 am   BACKBONE|DICT|INTERRES
   155   79   80 1    
   156   79  200 1    
   157   80   81 1    
   158   80   82 1    
   159   80  201 1    
   160   81  202 1    
   161   81  203 1    
   162   81  204 1    
   163   82   83 2    
   164   82   84 am   BACKBONE|DICT|INTERRES
   165   84   85 1    
   166   84  205 1    
   167   85   86 1    
   168   85   87 1    
   169   85  206 1    
   170   86  207 1    
   171   86  208 1    
   172   86  209 1    
   173   87   88 2    
   174   87   89 am   BACKBONE|DICT|INTERRES
   175   89   90 1    
   176   89  210 1    
   177   90   91 1    
   178   90   92 1    
   179   90  211 1    
   180   91  212 1    
   181   91  213 1    
   182   91  214 1    
   183   92   93 2    
   184   92   94 am   BACKBONE|DICT|INTERRES
   185   94   95 1    
   186   94  215 1    
   187   95   96 1    
   188   95   97 1    
   189   95  216 1    
   190   96  217 1    
   191   96  218 1    
   192   96  219 1    
   193   97   98 2    
   194   97   99 am   BACKBONE|DICT|INTERRES
   195   99  100 1    
   196   99  220 1    
   197  100  101 1    
   198  100  102 1    
   199  100  221 1    
   200  101  222 1    
   201  101  223 1    
   202  101  224 1    
   203  102  103 2    
   204  102  104 am   BACKBONE|DICT|INTERRES
   205  104  105 1    
   206  104  225 1    
   207  105  106 1    
   208  105  107 1    
   209  105  226 1    
   210  106  227 1    
   211  106  228 1    
   212  106  229 1    
   213  107  108 2    
   214  107  109 am   BACKBONE|DICT|INTERRES
   215  109  110 1    
   216  109  230 1    
   217  110  111 1    
   218  110  112 1    
   219  110  231 1    
   220  111  232 1    
   221  111  233 1    
   222  111  234 1    
   223  112  113 2    
   224  112  114 am   BACKBONE|DICT|INTERRES
   225  114  115 1    
   226  114  235 1    
   227  115  116 1    
   228  115  117 1    
   229  115  236 1    
   230  116  237 1    
   231  116  238 1    
   232  116  239 1    
   233  117  118 2    
   234  117  119 am   BACKBONE|DICT|INTERRES
   235  119  120 1    
   236  119  240 1    
   237  120  121 1    
   238  120  124 1    
   239  120  241 1    
   240  121  122 am   BACKBONE|DICT|INTERRES
   241  121  123 2    
   242  122  242 1    
   243  122  243 1    
   244  124  125 1    
   245  124  244 1    
   246  124  245 1    
   247  125  126 1    
   248  126  246 1    
   249  126  247 1    
@<TRIPOS>SUBSTRUCTURE
     1 UNK         1 GROUP             0       ****    0 ROOT    
