@<TRIPOS>MOLECULE
3R540
247   249    1
SMALL
USER_CHARGES


@<TRIPOS>ATOM
      1 CA         -1.8441  -11.8283  -48.9523 C.3       0 UNK        -0.1800 
      2 C          -1.7263  -12.9723  -47.9565 C.2       0 UNK         0.5000 
      3 O          -1.9378  -12.7685  -46.7619 O.2       0 UNK        -0.5000 
      4 N          -1.4161  -14.1810  -48.4445 N.am      1 UNK        -0.5000 
      5 CA         -1.1610  -15.3951  -47.6498 C.3       1 UNK         0.1400 
      6 C6         -0.5167  -16.5226  -48.4938 C.3       23 UNK        -0.0398 
      7 S7          1.0094  -15.9870  -49.3358 S.3       23 UNK        -0.2404 
      8 C8          0.8608  -16.8371  -50.9400 C.3       23 UNK        -0.0205 
      9 C9          1.0858  -18.3395  -50.8285 C.ar      23 UNK        -0.0193 
     10 C10         0.0847  -19.2385  -51.2117 C.ar      23 UNK        -0.1150 
     11 C11         0.3205  -20.6157  -51.1680 C.ar      23 UNK        -0.0193 
     12 C12         1.5565  -21.0905  -50.7275 C.ar      23 UNK        -0.1150 
     13 C13         2.5580  -20.2066  -50.3193 C.ar      23 UNK        -0.0193 
     14 C14         2.3171  -18.8313  -50.3813 C.ar      23 UNK        -0.1150 
     15 C15         3.9122  -20.7233  -49.8443 C.3       23 UNK        -0.0205 
     16 S16         3.8019  -22.1529  -48.7144 S.3       23 UNK        -0.2404 
     17 C17         2.9545  -21.4207  -47.2761 C.3       23 UNK        -0.0398 
     18 CA          1.8961  -22.3667  -46.6561 C.3       11 UNK         0.1400 
     19 N           1.6698  -22.0647  -45.2411 N.am      11 UNK        -0.5000 
     20 C           1.0053  -22.8523  -44.3844 C.2       10 UNK         0.5000 
     21 O           0.5618  -23.9623  -44.6785 O.2       10 UNK        -0.5000 
     22 CA          0.7715  -22.2957  -42.9669 C.3       10 UNK         0.1400 
     23 CB          1.9751  -22.5970  -42.0619 C.3       10 UNK        -0.1800 
     24 N           0.4946  -20.8574  -42.9539 N.am      10 UNK        -0.5000 
     25 C          -0.5825  -20.2873  -43.5139 C.2       9 UNK         0.5000 
     26 O          -1.4785  -20.9247  -44.0649 O.2       9 UNK        -0.5000 
     27 CA         -0.6433  -18.7489  -43.5109 C.3       9 UNK         0.1400 
     28 CB         -1.0964  -18.2112  -42.1459 C.3       9 UNK        -0.1800 
     29 N           0.6296  -18.1342  -43.8847 N.am      9 UNK        -0.5000 
     30 C           1.2438  -18.3093  -45.0632 C.2       8 UNK         0.5000 
     31 O           0.7918  -18.9893  -45.9843 O.2       8 UNK        -0.5000 
     32 CA          2.6382  -17.6786  -45.2056 C.3       8 UNK         0.1400 
     33 CB          2.5397  -16.1760  -45.5135 C.3       8 UNK        -0.1800 
     34 N           3.4504  -17.8933  -44.0061 N.am      8 UNK        -0.5000 
     35 C           3.9109  -19.0897  -43.6113 C.2       7 UNK         0.5000 
     36 O           3.7281  -20.1316  -44.2388 O.2       7 UNK        -0.5000 
     37 CA          4.6680  -19.1391  -42.2716 C.3       7 UNK         0.1400 
     38 CB          6.1330  -18.7183  -42.4607 C.3       7 UNK        -0.1800 
     39 N           4.0506  -18.2996  -41.2454 N.am      7 UNK        -0.5000 
     40 C           2.8410  -18.5186  -40.7098 C.2       6 UNK         0.5000 
     41 O           2.1356  -19.4872  -40.9875 O.2       6 UNK        -0.5000 
     42 CA          2.3094  -17.4442  -39.7413 C.3       6 UNK         0.1400 
     43 CB          2.7544  -17.7464  -38.3028 C.3       6 UNK        -0.1800 
     44 N           2.7208  -16.0837  -40.1034 N.am      6 UNK        -0.5000 
     45 C           2.4126  -15.4826  -41.2601 C.2       5 UNK         0.5000 
     46 O           1.7528  -16.0209  -42.1517 O.2       5 UNK        -0.5000 
     47 CA          3.0158  -14.0849  -41.4849 C.3       5 UNK         0.1400 
     48 CB          4.4442  -14.2116  -42.0388 C.3       5 UNK        -0.1800 
     49 N           2.2227  -13.2936  -42.4234 N.am      5 UNK        -0.5000 
     50 C           1.0176  -12.7735  -42.1607 C.2       4 UNK         0.5000 
     51 O           0.4812  -12.8280  -41.0507 O.2       4 UNK        -0.5000 
     52 CA          0.3057  -12.0270  -43.3118 C.3       4 UNK         0.1400 
     53 CB          0.9010  -12.3028  -44.7133 C.3       4 UNK        -0.1800 
     54 N          -1.1427  -12.2571  -43.3132 N.am      4 UNK        -0.5000 
     55 C          -1.7713  -13.4327  -43.4601 C.2       3 UNK         0.5000 
     56 O          -1.1899  -14.5067  -43.6208 O.2       3 UNK        -0.5000 
     57 CA         -3.3110  -13.4189  -43.4560 C.3       3 UNK         0.1400 
     58 CB         -3.9468  -12.0249  -43.2776 C.3       3 UNK        -0.1800 
     59 N          -3.7434  -13.9832  -44.7262 N.am      3 UNK        -0.5000 
     60 C          -4.6457  -14.9576  -44.8919 C.2       2 UNK         0.5000 
     61 O          -5.3437  -15.4093  -43.9831 O.2       2 UNK        -0.5000 
     62 CA         -4.7853  -15.5383  -46.3169 C.3       2 UNK         0.1400 
     63 CB         -5.9793  -14.8988  -47.0421 C.3       2 UNK        -0.1800 
     64 N          -3.5800  -15.3439  -47.1263 N.am      2 UNK        -0.5000 
     65 C          -2.3959  -15.9256  -46.8838 C.2       1 UNK         0.5000 
     66 O          -2.2536  -16.8362  -46.0711 O.2       1 UNK        -0.5000 
     67 C           0.5707  -22.3803  -47.4502 C.2       11 UNK         0.5000 
     68 O           0.3262  -23.3155  -48.2127 O.2       11 UNK        -0.5000 
     69 N          -0.2877  -21.3775  -47.2145 N.am      12 UNK        -0.5000 
     70 CA         -1.6254  -21.2750  -47.7989 C.3       12 UNK         0.1400 
     71 CB         -2.2162  -19.8951  -47.4941 C.3       12 UNK        -0.1800 
     72 C          -2.5928  -22.3793  -47.3409 C.2       12 UNK         0.5000 
     73 O          -3.4085  -22.8358  -48.1430 O.2       12 UNK        -0.5000 
     74 N          -2.4819  -22.7930  -46.0717 N.am      13 UNK        -0.5000 
     75 CA         -3.3097  -23.8216  -45.4364 C.3       13 UNK         0.1400 
     76 CB         -3.0443  -23.8222  -43.9229 C.3       13 UNK        -0.1800 
     77 C          -3.1368  -25.2404  -46.0148 C.2       13 UNK         0.5000 
     78 O          -3.9622  -26.1075  -45.7213 O.2       13 UNK        -0.5000 
     79 N          -2.1011  -25.4654  -46.8355 N.am      14 UNK        -0.5000 
     80 CA         -1.8420  -26.7069  -47.5656 C.3       14 UNK         0.1400 
     81 CB         -0.3693  -26.7199  -48.0115 C.3       14 UNK        -0.1800 
     82 C          -2.8233  -26.8959  -48.7450 C.2       14 UNK         0.5000 
     83 O          -2.4123  -26.8845  -49.9060 O.2       14 UNK        -0.5000 
     84 N          -4.1155  -27.0303  -48.4166 N.am      15 UNK        -0.5000 
     85 CA         -5.2896  -27.2801  -49.2661 C.3       15 UNK         0.1400 
     86 CB         -5.1458  -28.6178  -50.0170 C.3       15 UNK        -0.1800 
     87 C          -5.6821  -26.1463  -50.2381 C.2       15 UNK         0.5000 
     88 O          -6.8548  -26.0608  -50.6050 O.2       15 UNK        -0.5000 
     89 N          -4.7226  -25.3084  -50.6469 N.am      16 UNK        -0.5000 
     90 CA         -4.8954  -24.2292  -51.6199 C.3       16 UNK         0.1400 
     91 CB         -3.5149  -23.6791  -51.9936 C.3       16 UNK        -0.1800 
     92 C          -5.8071  -23.0867  -51.1385 C.2       16 UNK         0.5000 
     93 O          -6.5376  -22.5206  -51.9511 O.2       16 UNK        -0.5000 
     94 N          -5.7338  -22.7630  -49.8390 N.am      17 UNK        -0.5000 
     95 CA         -6.4995  -21.7230  -49.1423 C.3       17 UNK         0.1400 
     96 CB         -7.9977  -22.0890  -49.0928 C.3       17 UNK        -0.1800 
     97 C          -6.2359  -20.3037  -49.6928 C.2       17 UNK         0.5000 
     98 O          -7.1637  -19.5008  -49.8041 O.2       17 UNK        -0.5000 
     99 N          -4.9620  -20.0307  -50.0178 N.am      18 UNK        -0.5000 
    100 CA        -4.4313  -18.7624  -50.5373 C.3       18 UNK         0.1400 
    101 CB        -4.5597  -17.6359  -49.4891 C.3       18 UNK        -0.1800 
    102 C         -5.0245  -18.3643  -51.9064 C.2       18 UNK         0.5000 
    103 O         -5.3296  -17.1912  -52.1316 O.2       18 UNK        -0.5000 
    104 N         -5.1740  -19.3516  -52.8009 N.am      19 UNK        -0.5000 
    105 CA        -5.6161  -19.1681  -54.1854 C.3       19 UNK         0.1400 
    106 CB        -5.7460  -20.5470  -54.8505 C.3       19 UNK        -0.1800 
    107 C         -4.6559  -18.2789  -55.0001 C.2       19 UNK         0.5000 
    108 O         -3.4498  -18.2783  -54.7395 O.2       19 UNK        -0.5000 
    109 N         -5.1960  -17.5776  -56.0054 N.am      20 UNK        -0.5000 
    110 CA        -4.4600  -16.6472  -56.8711 C.3       20 UNK         0.1400 
    111 CB        -5.4557  -15.9181  -57.7862 C.3       20 UNK        -0.1800 
    112 C         -3.3445  -17.3079  -57.7062 C.2       20 UNK         0.5000 
    113 O         -2.3428  -16.6569  -58.0039 O.2       20 UNK        -0.5000 
    114 N         -3.5262  -18.5914  -58.0459 N.am      21 UNK        -0.5000 
    115 CA        -2.5246  -19.4229  -58.7171 C.3       21 UNK         0.1400 
    116 CB        -3.2334  -20.6236  -59.3633 C.3       21 UNK        -0.1800 
    117 C         -1.4095  -19.9059  -57.7660 C.2       21 UNK         0.5000 
    118 O         -0.3286  -20.2628  -58.2361 O.2       21 UNK        -0.5000 
    119 N         -1.6951  -19.9231  -56.4586 N.am      22 UNK        -0.5000 
    120 CA        -0.7660  -20.2953  -55.3858 C.3       22 UNK         0.1400 
    121 C          0.0501  -19.0695  -54.8962 C.2       22 UNK         0.5000 
    122 N         -0.6016  -17.9511  -54.5982 N.am      22 UNK        -0.7600 
    123 O          1.2739  -19.1214  -54.8167 O.2       22 UNK        -0.5000 
    124 C124       -1.5321  -20.9837  -54.2268 C.3       23 UNK        -0.0398 
    125 S125       -0.5143  -22.1749  -53.2974 S.3       23 UNK        -0.2404 
    126 C126       -0.7478  -21.6098  -51.5839 C.3       23 UNK        -0.0205 
    127 H127       -2.8484  -11.4059  -48.9210 H         1 UNK         0.0600 
    128 H128       -1.1338  -11.0405  -48.7013 H         1 UNK         0.0600 
    129 H129       -1.6430  -12.1559  -49.9725 H         1 UNK         0.0600 
    130 H130       -1.2543  -14.2789  -49.4367 H         1 UNK         0.3000 
    131 H131       -0.4397  -15.1150  -46.8785 H         1 UNK         0.0600 
    132 H132       -1.2288  -16.9008  -49.2291 H         1 UNK         0.0800 
    133 H133       -0.2482  -17.3678  -47.8588 H         1 UNK         0.0800 
    134 H134        1.6063  -16.4260  -51.6219 H         1 UNK         0.0800 
    135 H135       -0.1110  -16.6152  -51.3836 H         1 UNK         0.0800 
    136 H136       -0.8661  -18.8676  -51.5668 H         1 UNK         0.1150 
    137 H137        1.7350  -22.1563  -50.6996 H         1 UNK         0.1150 
    138 H138        3.0913  -18.1358  -50.0891 H         1 UNK         0.1150 
    139 H139        4.4958  -21.0137  -50.7186 H         1 UNK         0.0800 
    140 H140        4.4737  -19.9307  -49.3471 H         1 UNK         0.0800 
    141 H141        3.7394  -21.2121  -46.5500 H         1 UNK         0.0800 
    142 H142        2.5198  -20.4524  -47.5294 H         1 UNK         0.0800 
    143 H143        2.2976  -23.3822  -46.6872 H         1 UNK         0.0600 
    144 H144        2.0477  -21.1879  -44.9001 H         1 UNK         0.3000 
    145 H145       -0.1002  -22.8051  -42.5515 H         1 UNK         0.0600 
    146 H146        1.7816  -22.2894  -41.0342 H         1 UNK         0.0600 
    147 H147        2.1949  -23.6652  -42.0456 H         1 UNK         0.0600 
    148 H148        2.8734  -22.0810  -42.4019 H         1 UNK         0.0600 
    149 H149        1.1649  -20.2700  -42.4658 H         1 UNK         0.3000 
    150 H150       -1.3843  -18.4498  -44.2526 H         1 UNK         0.0600 
    151 H151       -2.0725  -18.6141  -41.8737 H         1 UNK         0.0600 
    152 H152       -1.1846  -17.1242  -42.1628 H         1 UNK         0.0600 
    153 H153       -0.3974  -18.4785  -41.3540 H         1 UNK         0.0600 
    154 H154        1.0590  -17.5167  -43.2013 H         1 UNK         0.3000 
    155 H155        3.1400  -18.1627  -46.0463 H         1 UNK         0.0600 
    156 H156        3.5272  -15.7313  -45.6361 H         1 UNK         0.0600 
    157 H157        2.0197  -15.6305  -44.7262 H         1 UNK         0.0600 
    158 H158        1.9906  -16.0075  -46.4398 H         1 UNK         0.0600 
    159 H159        3.5779  -17.0987  -43.3980 H         1 UNK         0.3000 
    160 H160        4.6523  -20.1724  -41.9183 H         1 UNK         0.0600 
    161 H161        6.2173  -17.6806  -42.7860 H         1 UNK         0.0600 
    162 H162        6.6228  -19.3391  -43.2122 H         1 UNK         0.0600 
    163 H163        6.6968  -18.8267  -41.5340 H         1 UNK         0.0600 
    164 H164        4.5631  -17.4807  -40.9546 H         1 UNK         0.3000 
    165 H165        1.2188  -17.4807  -39.7755 H         1 UNK         0.0600 
    166 H166        3.8387  -17.6940  -38.1963 H         1 UNK         0.0600 
    167 H167        2.3124  -17.0430  -37.5969 H         1 UNK         0.0600 
    168 H168        2.4427  -18.7471  -38.0004 H         1 UNK         0.0600 
    169 H169        3.2788  -15.5866  -39.4239 H         1 UNK         0.3000 
    170 H170        3.0517  -13.5586  -40.5287 H         1 UNK         0.0600 
    171 H171        5.0847  -14.7701  -41.3550 H         1 UNK         0.0600 
    172 H172        4.4605  -14.7279  -42.9998 H         1 UNK         0.0600 
    173 H173        4.9008  -13.2315  -42.1782 H         1 UNK         0.0600 
    174 H174        2.5764  -13.2284  -43.3657 H         1 UNK         0.3000 
    175 H175        0.4409  -10.9648  -43.1045 H         1 UNK         0.0600 
    176 H176        0.3529  -11.7570  -45.4813 H         1 UNK         0.0600 
    177 H177        1.9399  -11.9784  -44.7788 H         1 UNK         0.0600 
    178 H178        0.8621  -13.3611  -44.9738 H         1 UNK         0.0600 
    179 H179       -1.7116  -11.4356  -43.1689 H         1 UNK         0.3000 
    180 H180       -3.6272  -14.0558  -42.6274 H         1 UNK         0.0600 
    181 H181       -5.0347  -12.0949  -43.2727 H         1 UNK         0.0600 
    182 H182       -3.6529  -11.5729  -42.3295 H         1 UNK         0.0600 
    183 H183       -3.6663  -11.3436  -44.0821 H         1 UNK         0.0600 
    184 H184       -3.1820  -13.6993  -45.5246 H         1 UNK         0.3000 
    185 H185       -4.9682  -16.6110  -46.2254 H         1 UNK         0.0600 
    186 H186       -6.1208  -15.3309  -48.0324 H         1 UNK         0.0600 
    187 H187       -6.9036  -15.0566  -46.4848 H         1 UNK         0.0600 
    188 H188       -5.8475  -13.8226  -47.1611 H         1 UNK         0.0600 
    189 H189       -3.6095  -14.6036  -47.8115 H         1 UNK         0.3000 
    190 H190        0.0026  -20.6174  -46.6039 H         1 UNK         0.3000 
    191 H191       -1.5282  -21.3666  -48.8805 H         1 UNK         0.0600 
    192 H192       -3.2792  -19.8614  -47.7287 H         1 UNK         0.0600 
    193 H193       -1.7253  -19.1255  -48.0856 H         1 UNK         0.0600 
    194 H194       -2.1106  -19.6320  -46.4414 H         1 UNK         0.0600 
    195 H195       -1.8353  -22.3006  -45.4629 H         1 UNK         0.3000 
    196 H196       -4.3536  -23.5437  -45.5946 H         1 UNK         0.0600 
    197 H197       -3.6620  -24.5636  -43.4144 H         1 UNK         0.0600 
    198 H198       -3.2773  -22.8538  -43.4804 H         1 UNK         0.0600 
    199 H199       -2.0032  -24.0540  -43.6988 H         1 UNK         0.0600 
    200 H200       -1.4803  -24.6929  -47.0365 H         1 UNK         0.3000 
    201 H201       -1.9871  -27.5470  -46.8834 H         1 UNK         0.0600 
    202 H202        0.3025  -26.6051  -47.1605 H         1 UNK         0.0600 
    203 H203       -0.1547  -25.9165  -48.7170 H         1 UNK         0.0600 
    204 H204       -0.1180  -27.6616  -48.5007 H         1 UNK         0.0600 
    205 H205       -4.3244  -26.9290  -47.4267 H         1 UNK         0.3000 
    206 H206       -6.1267  -27.3841  -48.5742 H         1 UNK         0.0600 
    207 H207       -4.9484  -29.4384  -49.3273 H         1 UNK         0.0600 
    208 H208       -6.0614  -28.8617  -50.5573 H         1 UNK         0.0600 
    209 H209       -4.3364  -28.5896  -50.7470 H         1 UNK         0.0600 
    210 H210       -3.7763  -25.5063  -50.3415 H         1 UNK         0.3000 
    211 H211       -5.3482  -24.6557  -52.5174 H         1 UNK         0.0600 
    212 H212       -2.9908  -23.3091  -51.1126 H         1 UNK         0.0600 
    213 H213       -3.5972  -22.8570  -52.7055 H         1 UNK         0.0600 
    214 H214       -2.8932  -24.4473  -52.4539 H         1 UNK         0.0600 
    215 H215       -5.0308  -23.2284  -49.2727 H         1 UNK         0.3000 
    216 H216       -6.1322  -21.7173  -48.1149 H         1 UNK         0.0600 
    217 H217       -8.5489  -21.3965  -48.4557 H         1 UNK         0.0600 
    218 H218       -8.1449  -23.0898  -48.6867 H         1 UNK         0.0600 
    219 H219       -8.4558  -22.0583  -50.0818 H         1 UNK         0.0600 
    220 H220       -4.2919  -20.7763  -49.8972 H         1 UNK         0.3000 
    221 H221       -3.3663  -18.9262  -50.7077 H         1 UNK         0.0600 
    222 H222       -5.6003  -17.3590  -49.3205 H         1 UNK         0.0600 
    223 H223       -4.1365  -17.9244  -48.5295 H         1 UNK         0.0600 
    224 H224       -4.0335  -16.7378  -49.8143 H         1 UNK         0.0600 
    225 H225       -4.9467  -20.2940  -52.5234 H         1 UNK         0.3000 
    226 H226       -6.5983  -18.6917  -54.1638 H         1 UNK         0.0600 
    227 H227       -6.0776  -20.4569  -55.8857 H         1 UNK         0.0600 
    228 H228       -4.7976  -21.0850  -54.8551 H         1 UNK         0.0600 
    229 H229       -6.4790  -21.1657  -54.3327 H         1 UNK         0.0600 
    230 H230       -6.1905  -17.6443  -56.1683 H         1 UNK         0.3000 
    231 H231       -3.9841  -15.9053  -56.2264 H         1 UNK         0.0600 
    232 H232       -4.9438  -15.1985  -58.4266 H         1 UNK         0.0600 
    233 H233       -6.1941  -15.3650  -57.2054 H         1 UNK         0.0600 
    234 H234       -5.9895  -16.6135  -58.4352 H         1 UNK         0.0600 
    235 H235       -4.3886  -19.0420  -57.7779 H         1 UNK         0.3000 
    236 H236       -2.0538  -18.8373  -59.5096 H         1 UNK         0.0600 
    237 H237       -3.7293  -21.2474  -58.6185 H         1 UNK         0.0600 
    238 H238       -3.9843  -20.2977  -60.0834 H         1 UNK         0.0600 
    239 H239       -2.5232  -21.2544  -59.8995 H         1 UNK         0.0600 
    240 H240       -2.5699  -19.5188  -56.1520 H         1 UNK         0.3000 
    241 H241       -0.0567  -21.0183  -55.7940 H         1 UNK         0.0600 
    242 H242       -0.0860  -17.1379  -54.3061 H         1 UNK         0.3800 
    243 H243       -1.6162  -17.9185  -54.6568 H         1 UNK         0.3800 
    244 H244       -2.3653  -21.5614  -54.6285 H         1 UNK         0.0800 
    245 H245       -1.9846  -20.2503  -53.5578 H         1 UNK         0.0800 
    246 H246       -1.7441  -21.1880  -51.4478 H         1 UNK         0.0800 
    247 H247       -0.6965  -22.4805  -50.9277 H         1 UNK         0.0800 
@<TRIPOS>BOND
     1    1    2 1    
     2    1  127 1    
     3    1  128 1    
     4    1  129 1    
     5    2    3 2    
     6    2    4 am   BACKBONE|DICT|INTERRES
     7    4    5 1    
     8    4  130 1    
     9    5    6 1    
    10    5   65 1    
    11    5  131 1    
    12    6    7 1    
    13    6  132 1    
    14    6  133 1    
    15    7    8 1    
    16    8    9 1    
    17    8  134 1    
    18    8  135 1    
    19    9   10 ar   
    20    9   14 ar   
    21   10   11 ar   
    22   10  136 1    
    23   11   12 ar   
    24   11  126 1    
    25   12   13 ar   
    26   12  137 1    
    27   13   14 ar   
    28   13   15 1    
    29   14  138 1    
    30   15   16 1    
    31   15  139 1    
    32   15  140 1    
    33   16   17 1    
    34   17   18 1    
    35   17  141 1    
    36   17  142 1    
    37   18   19 1    
    38   18   67 1    
    39   18  143 1    
    40   19   20 am   BACKBONE|DICT|INTERRES
    41   19  144 1    
    42   20   21 2    
    43   20   22 1    
    44   22   23 1    
    45   22   24 1    
    46   22  145 1    
    47   23  146 1    
    48   23  147 1    
    49   23  148 1    
    50   24   25 am   BACKBONE|DICT|INTERRES
    51   24  149 1    
    52   25   26 2    
    53   25   27 1    
    54   27   28 1    
    55   27   29 1    
    56   27  150 1    
    57   28  151 1    
    58   28  152 1    
    59   28  153 1    
    60   29   30 am   BACKBONE|DICT|INTERRES
    61   29  154 1    
    62   30   31 2    
    63   30   32 1    
    64   32   33 1    
    65   32   34 1    
    66   32  155 1    
    67   33  156 1    
    68   33  157 1    
    69   33  158 1    
    70   34   35 am   BACKBONE|DICT|INTERRES
    71   34  159 1    
    72   35   36 2    
    73   35   37 1    
    74   37   38 1    
    75   37   39 1    
    76   37  160 1    
    77   38  161 1    
    78   38  162 1    
    79   38  163 1    
    80   39   40 am   BACKBONE|DICT|INTERRES
    81   39  164 1    
    82   40   41 2    
    83   40   42 1    
    84   42   43 1    
    85   42   44 1    
    86   42  165 1    
    87   43  166 1    
    88   43  167 1    
    89   43  168 1    
    90   44   45 am   BACKBONE|DICT|INTERRES
    91   44  169 1    
    92   45   46 2    
    93   45   47 1    
    94   47   48 1    
    95   47   49 1    
    96   47  170 1    
    97   48  171 1    
    98   48  172 1    
    99   48  173 1    
   100   49   50 am   BACKBONE|DICT|INTERRES
   101   49  174 1    
   102   50   51 2    
   103   50   52 1    
   104   52   53 1    
   105   52   54 1    
   106   52  175 1    
   107   53  176 1    
   108   53  177 1    
   109   53  178 1    
   110   54   55 am   BACKBONE|DICT|INTERRES
   111   54  179 1    
   112   55   56 2    
   113   55   57 1    
   114   57   58 1    
   115   57   59 1    
   116   57  180 1    
   117   58  181 1    
   118   58  182 1    
   119   58  183 1    
   120   59   60 am   BACKBONE|DICT|INTERRES
   121   59  184 1    
   122   60   61 2    
   123   60   62 1    
   124   62   63 1    
   125   62   64 1    
   126   62  185 1    
   127   63  186 1    
   128   63  187 1    
   129   63  188 1    
   130   64   65 am   BACKBONE|DICT|INTERRES
   131   64  189 1    
   132   65   66 2    
   133   67   68 2    
   134   67   69 am   BACKBONE|DICT|INTERRES
   135   69   70 1    
   136   69  190 1    
   137   70   71 1    
   138   70   72 1    
   139   70  191 1    
   140   71  192 1    
   141   71  193 1    
   142   71  194 1    
   143   72   73 2    
   144   72   74 am   BACKBONE|DICT|INTERRES
   145   74   75 1    
   146   74  195 1    
   147   75   76 1    
   148   75   77 1    
   149   75  196 1    
   150   76  197 1    
   151   76  198 1    
   152   76  199 1    
   153   77   78 2    
   154   77   79 am   BACKBONE|DICT|INTERRES
   155   79   80 1    
   156   79  200 1    
   157   80   81 1    
   158   80   82 1    
   159   80  201 1    
   160   81  202 1    
   161   81  203 1    
   162   81  204 1    
   163   82   83 2    
   164   82   84 am   BACKBONE|DICT|INTERRES
   165   84   85 1    
   166   84  205 1    
   167   85   86 1    
   168   85   87 1    
   169   85  206 1    
   170   86  207 1    
   171   86  208 1    
   172   86  209 1    
   173   87   88 2    
   174   87   89 am   BACKBONE|DICT|INTERRES
   175   89   90 1    
   176   89  210 1    
   177   90   91 1    
   178   90   92 1    
   179   90  211 1    
   180   91  212 1    
   181   91  213 1    
   182   91  214 1    
   183   92   93 2    
   184   92   94 am   BACKBONE|DICT|INTERRES
   185   94   95 1    
   186   94  215 1    
   187   95   96 1    
   188   95   97 1    
   189   95  216 1    
   190   96  217 1    
   191   96  218 1    
   192   96  219 1    
   193   97   98 2    
   194   97   99 am   BACKBONE|DICT|INTERRES
   195   99  100 1    
   196   99  220 1    
   197  100  101 1    
   198  100  102 1    
   199  100  221 1    
   200  101  222 1    
   201  101  223 1    
   202  101  224 1    
   203  102  103 2    
   204  102  104 am   BACKBONE|DICT|INTERRES
   205  104  105 1    
   206  104  225 1    
   207  105  106 1    
   208  105  107 1    
   209  105  226 1    
   210  106  227 1    
   211  106  228 1    
   212  106  229 1    
   213  107  108 2    
   214  107  109 am   BACKBONE|DICT|INTERRES
   215  109  110 1    
   216  109  230 1    
   217  110  111 1    
   218  110  112 1    
   219  110  231 1    
   220  111  232 1    
   221  111  233 1    
   222  111  234 1    
   223  112  113 2    
   224  112  114 am   BACKBONE|DICT|INTERRES
   225  114  115 1    
   226  114  235 1    
   227  115  116 1    
   228  115  117 1    
   229  115  236 1    
   230  116  237 1    
   231  116  238 1    
   232  116  239 1    
   233  117  118 2    
   234  117  119 am   BACKBONE|DICT|INTERRES
   235  119  120 1    
   236  119  240 1    
   237  120  121 1    
   238  120  124 1    
   239  120  241 1    
   240  121  122 am   BACKBONE|DICT|INTERRES
   241  121  123 2    
   242  122  242 1    
   243  122  243 1    
   244  124  125 1    
   245  124  244 1    
   246  124  245 1    
   247  125  126 1    
   248  126  246 1    
   249  126  247 1    
@<TRIPOS>SUBSTRUCTURE
     1 UNK         1 GROUP             0       ****    0 ROOT    
