@<TRIPOS>MOLECULE
3R540
247   249    1
SMALL
USER_CHARGES


@<TRIPOS>ATOM
      1 CA         -4.1067  -15.1097  -46.2558 C.3       0 UNK        -0.1800 
      2 C          -2.9793  -14.1517  -46.6156 C.2       0 UNK         0.5000 
      3 O          -3.2397  -13.0551  -47.1109 O.2       0 UNK        -0.5000 
      4 N          -1.7307  -14.5704  -46.3817 N.am      1 UNK        -0.5000 
      5 CA         -0.5106  -13.8052  -46.6508 C.3       1 UNK         0.1400 
      6 C6          0.7650  -14.6711  -46.5050 C.3       23 UNK        -0.0398 
      7 S7          0.7246  -16.1362  -47.5827 S.3       23 UNK        -0.2404 
      8 C8          1.8959  -15.6631  -48.8859 C.3       23 UNK        -0.0205 
      9 C9          1.7616  -16.6202  -50.0541 C.ar      23 UNK        -0.0193 
     10 C10         0.9564  -16.2860  -51.1449 C.ar      23 UNK        -0.1150 
     11 C11         0.7470  -17.2006  -52.1816 C.ar      23 UNK        -0.0193 
     12 C12         1.3746  -18.4497  -52.1282 C.ar      23 UNK        -0.1150 
     13 C13         2.1964  -18.7872  -51.0478 C.ar      23 UNK        -0.0193 
     14 C14         2.3937  -17.8645  -50.0179 C.ar      23 UNK        -0.1150 
     15 C15         2.8565  -20.1549  -50.9838 C.3       23 UNK        -0.0205 
     16 S16         1.7292  -21.4126  -50.3075 S.3       23 UNK        -0.2404 
     17 C17         1.7081  -20.9824  -48.5315 C.3       23 UNK        -0.0398 
     18 CA          0.7967  -21.9384  -47.7206 C.3       11 UNK         0.1400 
     19 N           1.1048  -21.9227  -46.2922 N.am      11 UNK        -0.5000 
     20 C           1.3682  -23.0221  -45.5728 C.2       10 UNK         0.5000 
     21 O           1.3151  -24.1681  -46.0204 O.2       10 UNK        -0.5000 
     22 CA          1.7998  -22.8202  -44.1117 C.3       10 UNK         0.1400 
     23 CB          3.2880  -22.4443  -44.0446 C.3       10 UNK        -0.1800 
     24 N           1.0058  -21.8243  -43.3951 N.am      10 UNK        -0.5000 
     25 C          -0.2715  -21.9992  -43.0283 C.2       9 UNK         0.5000 
     26 O          -0.9342  -23.0003  -43.3025 O.2       9 UNK        -0.5000 
     27 CA         -0.9159  -20.8679  -42.2060 C.3       9 UNK         0.1400 
     28 CB         -0.4620  -20.9333  -40.7396 C.3       9 UNK        -0.1800 
     29 N          -0.6273  -19.5406  -42.7433 N.am      9 UNK        -0.5000 
     30 C          -1.0595  -19.0945  -43.9294 C.2       8 UNK         0.5000 
     31 O          -1.7778  -19.7433  -44.6867 O.2       8 UNK        -0.5000 
     32 CA         -0.5684  -17.7049  -44.3652 C.3       8 UNK         0.1400 
     33 CB         -1.3380  -16.5940  -43.6335 C.3       8 UNK        -0.1800 
     34 N           0.8688  -17.5386  -44.1593 N.am      8 UNK        -0.5000 
     35 C           1.8119  -18.2829  -44.7573 C.2       7 UNK         0.5000 
     36 O           1.5756  -19.1675  -45.5825 O.2       7 UNK        -0.5000 
     37 CA          3.2617  -18.0237  -44.3168 C.3       7 UNK         0.1400 
     38 CB          3.8590  -16.8310  -45.0803 C.3       7 UNK        -0.1800 
     39 N           3.3615  -17.7941  -42.8736 N.am      7 UNK        -0.5000 
     40 C           3.1245  -18.7314  -41.9429 C.2       6 UNK         0.5000 
     41 O           2.8338  -19.8970  -42.2047 O.2       6 UNK        -0.5000 
     42 CA          3.1635  -18.2768  -40.4734 C.3       6 UNK         0.1400 
     43 CB          4.6115  -18.1852  -39.9693 C.3       6 UNK        -0.1800 
     44 N           2.4955  -16.9914  -40.2738 N.am      6 UNK        -0.5000 
     45 C           1.1871  -16.7725  -40.4718 C.2       5 UNK         0.5000 
     46 O           0.3869  -17.6559  -40.7760 O.2       5 UNK        -0.5000 
     47 CA          0.7043  -15.3135  -40.3586 C.3       5 UNK         0.1400 
     48 CB          0.2171  -15.0154  -38.9332 C.3       5 UNK        -0.1800 
     49 N           1.7418  -14.3476  -40.7305 N.am      5 UNK        -0.5000 
     50 C           2.2387  -14.2136  -41.9665 C.2       4 UNK         0.5000 
     51 O           1.8405  -14.8540  -42.9434 O.2       4 UNK        -0.5000 
     52 CA          3.4416  -13.2772  -42.1125 C.3       4 UNK         0.1400 
     53 CB          4.7476  -14.0845  -41.9637 C.3       4 UNK        -0.1800 
     54 N           3.3834  -12.6248  -43.4152 N.am      4 UNK        -0.5000 
     55 C           4.1420  -11.5893  -43.7949 C.2       3 UNK         0.5000 
     56 O           4.9900  -11.0580  -43.0764 O.2       3 UNK        -0.5000 
     57 CA          3.9102  -11.0441  -45.2154 C.3       3 UNK         0.1400 
     58 CB          4.6421  -11.9131  -46.2509 C.3       3 UNK        -0.1800 
     59 N           2.4968  -10.9511  -45.5819 N.am      3 UNK        -0.5000 
     60 C           1.5943  -10.1413  -45.0068 C.2       2 UNK         0.5000 
     61 O           1.8518   -9.3808  -44.0733 O.2       2 UNK        -0.5000 
     62 CA          0.1643  -10.1731  -45.5839 C.3       2 UNK         0.1400 
     63 CB         -0.0623   -8.9780  -46.5228 C.3       2 UNK        -0.1800 
     64 N          -0.1186  -11.4108  -46.3149 N.am      2 UNK        -0.5000 
     65 C          -0.4079  -12.5776  -45.7263 C.2       1 UNK         0.5000 
     66 O          -0.5411  -12.7169  -44.5089 O.2       1 UNK        -0.5000 
     67 C          -0.7006  -21.6772  -47.9465 C.2       11 UNK         0.5000 
     68 O          -1.4180  -22.6108  -48.3014 O.2       11 UNK        -0.5000 
     69 N          -1.1464  -20.4257  -47.7648 N.am      12 UNK        -0.5000 
     70 CA         -2.4505  -19.9366  -48.2250 C.3       12 UNK         0.1400 
     71 CB         -2.5616  -18.4286  -47.9517 C.3       12 UNK        -0.1800 
     72 C          -3.6670  -20.6924  -47.6568 C.2       12 UNK         0.5000 
     73 O          -4.5756  -21.0416  -48.4128 O.2       12 UNK        -0.5000 
     74 N          -3.6558  -20.9532  -46.3454 N.am      13 UNK        -0.5000 
     75 CA         -4.7083  -21.6871  -45.6431 C.3       13 UNK         0.1400 
     76 CB         -4.5486  -21.4719  -44.1310 C.3       13 UNK        -0.1800 
     77 C          -4.7136  -23.1912  -45.9710 C.2       13 UNK         0.5000 
     78 O          -5.7764  -23.8122  -45.9379 O.2       13 UNK        -0.5000 
     79 N          -3.5342  -23.7484  -46.2747 N.am      14 UNK        -0.5000 
     80 CA         -3.3529  -25.1535  -46.6303 C.3       14 UNK         0.1400 
     81 CB         -1.8959  -25.5629  -46.3652 C.3       14 UNK        -0.1800 
     82 C          -3.7445  -25.4230  -48.0923 C.2       14 UNK         0.5000 
     83 O          -4.4403  -26.4017  -48.3655 O.2       14 UNK        -0.5000 
     84 N          -3.2944  -24.5487  -49.0022 N.am      15 UNK        -0.5000 
     85 CA         -3.5620  -24.6299  -50.4365 C.3       15 UNK         0.1400 
     86 CB         -2.5311  -23.7854  -51.1950 C.3       15 UNK        -0.1800 
     87 C          -4.9938  -24.2128  -50.8114 C.2       15 UNK         0.5000 
     88 O          -5.5150  -24.7031  -51.8163 O.2       15 UNK        -0.5000 
     89 N          -5.5950  -23.3298  -49.9983 N.am      16 UNK        -0.5000 
     90 CA         -7.0066  -22.9286  -49.9836 C.3       16 UNK         0.1400 
     91 CB         -7.8656  -24.0959  -49.4565 C.3       16 UNK        -0.1800 
     92 C          -7.5357  -22.3671  -51.3209 C.2       16 UNK         0.5000 
     93 O          -8.7267  -22.4962  -51.6095 O.2       16 UNK        -0.5000 
     94 N          -6.6371  -21.7759  -52.1216 N.am      17 UNK        -0.5000 
     95 CA         -6.8497  -21.2753  -53.4839 C.3       17 UNK         0.1400 
     96 CB         -7.8201  -20.0765  -53.4885 C.3       17 UNK        -0.1800 
     97 C          -7.2403  -22.3776  -54.4960 C.2       17 UNK         0.5000 
     98 O          -7.8189  -22.0689  -55.5399 O.2       17 UNK        -0.5000 
     99 N          -6.9169  -23.6380  -54.1743 N.am      18 UNK        -0.5000 
    100 CA        -7.1715  -24.8140  -55.0007 C.3       18 UNK         0.1400 
    101 CB        -7.9816  -25.8378  -54.1887 C.3       18 UNK        -0.1800 
    102 C         -5.8485  -25.4220  -55.4872 C.2       18 UNK         0.5000 
    103 O         -5.7011  -25.6698  -56.6845 O.2       18 UNK        -0.5000 
    104 N         -4.9031  -25.6390  -54.5609 N.am      19 UNK        -0.5000 
    105 CA        -3.5836  -26.2120  -54.8541 C.3       19 UNK         0.1400 
    106 CB        -3.0969  -26.9986  -53.6282 C.3       19 UNK        -0.1800 
    107 C         -2.5417  -25.1509  -55.2629 C.2       19 UNK         0.5000 
    108 O         -1.4555  -25.5122  -55.7175 O.2       19 UNK        -0.5000 
    109 N         -2.8810  -23.8705  -55.0913 N.am      20 UNK        -0.5000 
    110 CA        -2.0835  -22.7020  -55.4428 C.3       20 UNK         0.1400 
    111 CB        -1.1233  -22.3542  -54.2877 C.3       20 UNK        -0.1800 
    112 C         -3.0477  -21.5450  -55.7429 C.2       20 UNK         0.5000 
    113 O         -4.2641  -21.7155  -55.6354 O.2       20 UNK        -0.5000 
    114 N         -2.4948  -20.3788  -56.0960 N.am      21 UNK        -0.5000 
    115 CA        -3.2552  -19.1487  -56.3393 C.3       21 UNK         0.1400 
    116 CB        -2.3436  -18.1377  -57.0527 C.3       21 UNK        -0.1800 
    117 C         -3.8464  -18.5228  -55.0580 C.2       21 UNK         0.5000 
    118 O         -4.7956  -17.7438  -55.1525 O.2       21 UNK        -0.5000 
    119 N         -3.2701  -18.8621  -53.8996 N.am      22 UNK        -0.5000 
    120 CA        -3.6457  -18.3601  -52.5721 C.3       22 UNK         0.1400 
    121 C         -4.1784  -19.5015  -51.6702 C.2       22 UNK         0.5000 
    122 N         -4.9377  -19.1728  -50.6352 N.am      22 UNK        -0.7600 
    123 O         -3.8814  -20.6777  -51.8666 O.2       22 UNK        -0.5000 
    124 C124       -2.4498  -17.6653  -51.8742 C.3       23 UNK        -0.0398 
    125 S125       -1.8044  -16.2371  -52.8121 S.3       23 UNK        -0.2404 
    126 C126       -0.1708  -16.8511  -53.3487 C.3       23 UNK        -0.0205 
    127 H127       -4.7593  -15.2608  -47.1157 H         1 UNK         0.0600 
    128 H128       -4.7029  -14.6985  -45.4413 H         1 UNK         0.0600 
    129 H129       -3.7294  -16.0840  -45.9452 H         1 UNK         0.0600 
    130 H130       -1.5825  -15.4797  -45.9744 H         1 UNK         0.3000 
    131 H131       -0.5667  -13.4588  -47.6853 H         1 UNK         0.0600 
    132 H132        1.6605  -14.0882  -46.7267 H         1 UNK         0.0800 
    133 H133        0.8800  -15.0162  -45.4768 H         1 UNK         0.0800 
    134 H134        2.9136  -15.6816  -48.4930 H         1 UNK         0.0800 
    135 H135        1.6986  -14.6400  -49.2099 H         1 UNK         0.0800 
    136 H136        0.4610  -15.3256  -51.1701 H         1 UNK         0.1150 
    137 H137        1.2144  -19.1687  -52.9195 H         1 UNK         0.1150 
    138 H138        3.0104  -18.1259  -49.1693 H         1 UNK         0.1150 
    139 H139        3.1617  -20.4586  -51.9862 H         1 UNK         0.0800 
    140 H140        3.7688  -20.1172  -50.3864 H         1 UNK         0.0800 
    141 H141        1.4216  -19.9388  -48.3975 H         1 UNK         0.0800 
    142 H142        2.7337  -21.0589  -48.1675 H         1 UNK         0.0800 
    143 H143        0.9869  -22.9410  -48.1103 H         1 UNK         0.0600 
    144 H144        1.1751  -21.0070  -45.8548 H         1 UNK         0.3000 
    145 H145        1.6761  -23.7763  -43.5984 H         1 UNK         0.0600 
    146 H146        3.6394  -22.4106  -43.0133 H         1 UNK         0.0600 
    147 H147        3.9019  -23.1758  -44.5717 H         1 UNK         0.0600 
    148 H148        3.4770  -21.4696  -44.4959 H         1 UNK         0.0600 
    149 H149        1.4983  -20.9903  -43.0878 H         1 UNK         0.3000 
    150 H150       -1.9976  -21.0104  -42.2291 H         1 UNK         0.0600 
    151 H151       -0.6762  -21.9112  -40.3067 H         1 UNK         0.0600 
    152 H152       -0.9791  -20.1884  -40.1346 H         1 UNK         0.0600 
    153 H153        0.6096  -20.7562  -40.6410 H         1 UNK         0.0600 
    154 H154       -0.0765  -18.9203  -42.1564 H         1 UNK         0.3000 
    155 H155       -0.7561  -17.6045  -45.4346 H         1 UNK         0.0600 
    156 H156       -2.3912  -16.6024  -43.9149 H         1 UNK         0.0600 
    157 H157       -0.9404  -15.6060  -43.8646 H         1 UNK         0.0600 
    158 H158       -1.2974  -16.7172  -42.5523 H         1 UNK         0.0600 
    159 H159        1.1613  -16.8106  -43.5184 H         1 UNK         0.3000 
    160 H160        3.8479  -18.9119  -44.5617 H         1 UNK         0.0600 
    161 H161        3.3259  -15.9036  -44.8715 H         1 UNK         0.0600 
    162 H162        3.8113  -16.9970  -46.1574 H         1 UNK         0.0600 
    163 H163        4.9069  -16.6809  -44.8205 H         1 UNK         0.0600 
    164 H164        3.5459  -16.8485  -42.5761 H         1 UNK         0.3000 
    165 H165        2.6392  -19.0270  -39.8774 H         1 UNK         0.0600 
    166 H166        4.6442  -17.9376  -38.9081 H         1 UNK         0.0600 
    167 H167        5.1287  -19.1373  -40.0956 H         1 UNK         0.0600 
    168 H168        5.1816  -17.4277  -40.5087 H         1 UNK         0.0600 
    169 H169        3.0769  -16.2115  -40.0076 H         1 UNK         0.3000 
    170 H170       -0.1376  -15.1866  -41.0421 H         1 UNK         0.0600 
    171 H171       -0.5736  -15.7071  -38.6392 H         1 UNK         0.0600 
    172 H172        1.0223  -15.1077  -38.2034 H         1 UNK         0.0600 
    173 H173       -0.1910  -14.0073  -38.8587 H         1 UNK         0.0600 
    174 H174        2.1254  -13.7892  -39.9812 H         1 UNK         0.3000 
    175 H175        3.3911  -12.5125  -41.3345 H         1 UNK         0.0600 
    176 H176        4.8613  -14.8142  -42.7662 H         1 UNK         0.0600 
    177 H177        5.6242  -13.4374  -41.9777 H         1 UNK         0.0600 
    178 H178        4.7707  -14.6274  -41.0181 H         1 UNK         0.0600 
    179 H179        2.6819  -12.9965  -44.0415 H         1 UNK         0.3000 
    180 H180        4.3320  -10.0376  -45.2569 H         1 UNK         0.0600 
    181 H181        4.2429  -12.9278  -46.2829 H         1 UNK         0.0600 
    182 H182        5.7049  -11.9868  -46.0163 H         1 UNK         0.0600 
    183 H183        4.5610  -11.4881  -47.2515 H         1 UNK         0.0600 
    184 H184        2.1951  -11.5181  -46.3585 H         1 UNK         0.3000 
    185 H185       -0.5332  -10.0859  -44.7478 H         1 UNK         0.0600 
    186 H186        0.1109   -8.0347  -46.0031 H         1 UNK         0.0600 
    187 H187        0.6084   -9.0068  -47.3825 H         1 UNK         0.0600 
    188 H188       -1.0866   -8.9582  -46.8955 H         1 UNK         0.0600 
    189 H189       -0.0559  -11.3627  -47.3221 H         1 UNK         0.3000 
    190 H190       -0.5110  -19.7314  -47.3993 H         1 UNK         0.3000 
    191 H191       -2.4662  -20.0797  -49.3068 H         1 UNK         0.0600 
    192 H192       -1.7529  -17.8780  -48.4327 H         1 UNK         0.0600 
    193 H193       -2.5320  -18.2107  -46.8848 H         1 UNK         0.0600 
    194 H194       -3.4997  -18.0289  -48.3379 H         1 UNK         0.0600 
    195 H195       -2.8844  -20.5987  -45.7799 H         1 UNK         0.3000 
    196 H196       -5.6733  -21.2756  -45.9467 H         1 UNK         0.0600 
    197 H197       -5.3563  -21.9546  -43.5795 H         1 UNK         0.0600 
    198 H198       -4.5666  -20.4119  -43.8770 H         1 UNK         0.0600 
    199 H199       -3.6085  -21.8884  -43.7688 H         1 UNK         0.0600 
    200 H200       -2.7183  -23.1546  -46.3270 H         1 UNK         0.3000 
    201 H201       -3.9937  -25.7639  -45.9902 H         1 UNK         0.0600 
    202 H202       -1.6221  -25.3966  -45.3229 H         1 UNK         0.0600 
    203 H203       -1.1970  -25.0008  -46.9852 H         1 UNK         0.0600 
    204 H204       -1.7436  -26.6215  -46.5781 H         1 UNK         0.0600 
    205 H205       -2.6877  -23.7881  -48.6971 H         1 UNK         0.3000 
    206 H206       -3.4407  -25.6712  -50.7371 H         1 UNK         0.0600 
    207 H207       -1.5195  -24.1591  -51.0368 H         1 UNK         0.0600 
    208 H208       -2.7251  -23.8087  -52.2664 H         1 UNK         0.0600 
    209 H209       -2.5539  -22.7428  -50.8770 H         1 UNK         0.0600 
    210 H210       -5.0317  -22.9079  -49.2685 H         1 UNK         0.3000 
    211 H211       -7.0810  -22.1119  -49.2644 H         1 UNK         0.0600 
    212 H212       -7.8759  -24.9334  -50.1551 H         1 UNK         0.0600 
    213 H213       -8.8992  -23.7865  -49.2972 H         1 UNK         0.0600 
    214 H214       -7.4878  -24.4611  -48.5011 H         1 UNK         0.0600 
    215 H215       -5.6791  -21.7039  -51.7925 H         1 UNK         0.3000 
    216 H216       -5.8819  -20.8987  -53.8116 H         1 UNK         0.0600 
    217 H217       -7.8427  -19.5975  -54.4680 H         1 UNK         0.0600 
    218 H218       -7.5116  -19.3193  -52.7675 H         1 UNK         0.0600 
    219 H219       -8.8398  -20.3772  -53.2477 H         1 UNK         0.0600 
    220 H220       -6.4539  -23.8071  -53.2868 H         1 UNK         0.3000 
    221 H221       -7.7569  -24.5470  -55.8829 H         1 UNK         0.0600 
    222 H222       -7.4591  -26.1446  -53.2817 H         1 UNK         0.0600 
    223 H223       -8.9458  -25.4250  -53.8916 H         1 UNK         0.0600 
    224 H224       -8.1780  -26.7354  -54.7761 H         1 UNK         0.0600 
    225 H225       -5.0993  -25.4116  -53.5905 H         1 UNK         0.3000 
    226 H226       -3.6751  -26.9163  -55.6838 H         1 UNK         0.0600 
    227 H227       -3.8453  -27.7154  -53.2897 H         1 UNK         0.0600 
    228 H228       -2.1912  -27.5596  -53.8620 H         1 UNK         0.0600 
    229 H229       -2.8601  -26.3363  -52.7984 H         1 UNK         0.0600 
    230 H230       -3.8251  -23.6501  -54.8012 H         1 UNK         0.3000 
    231 H231       -1.5122  -22.9116  -56.3493 H         1 UNK         0.0600 
    232 H232       -0.5309  -23.2186  -53.9874 H         1 UNK         0.0600 
    233 H233       -1.6625  -21.9974  -53.4093 H         1 UNK         0.0600 
    234 H234       -0.4215  -21.5722  -54.5786 H         1 UNK         0.0600 
    235 H235       -1.4909  -20.3128  -56.1815 H         1 UNK         0.3000 
    236 H236       -4.0892  -19.3851  -57.0037 H         1 UNK         0.0600 
    237 H237       -2.8841  -17.2185  -57.2824 H         1 UNK         0.0600 
    238 H238       -1.4843  -17.8668  -56.4378 H         1 UNK         0.0600 
    239 H239       -1.9711  -18.5378  -57.9958 H         1 UNK         0.0600 
    240 H240       -2.5492  -19.5671  -53.9086 H         1 UNK         0.3000 
    241 H241       -4.4523  -17.6312  -52.6702 H         1 UNK         0.0600 
    242 H242       -5.1948  -19.8994  -49.9787 H         1 UNK         0.3800 
    243 H243       -5.2215  -18.2223  -50.4598 H         1 UNK         0.3800 
    244 H244       -2.7460  -17.2922  -50.8925 H         1 UNK         0.0800 
    245 H245       -1.6503  -18.3844  -51.6889 H         1 UNK         0.0800 
    246 H246        0.3114  -16.0849  -53.9567 H         1 UNK         0.0800 
    247 H247       -0.3189  -17.7145  -53.9990 H         1 UNK         0.0800 
@<TRIPOS>BOND
     1    1    2 1    
     2    1  127 1    
     3    1  128 1    
     4    1  129 1    
     5    2    3 2    
     6    2    4 am   BACKBONE|DICT|INTERRES
     7    4    5 1    
     8    4  130 1    
     9    5    6 1    
    10    5   65 1    
    11    5  131 1    
    12    6    7 1    
    13    6  132 1    
    14    6  133 1    
    15    7    8 1    
    16    8    9 1    
    17    8  134 1    
    18    8  135 1    
    19    9   10 ar   
    20    9   14 ar   
    21   10   11 ar   
    22   10  136 1    
    23   11   12 ar   
    24   11  126 1    
    25   12   13 ar   
    26   12  137 1    
    27   13   14 ar   
    28   13   15 1    
    29   14  138 1    
    30   15   16 1    
    31   15  139 1    
    32   15  140 1    
    33   16   17 1    
    34   17   18 1    
    35   17  141 1    
    36   17  142 1    
    37   18   19 1    
    38   18   67 1    
    39   18  143 1    
    40   19   20 am   BACKBONE|DICT|INTERRES
    41   19  144 1    
    42   20   21 2    
    43   20   22 1    
    44   22   23 1    
    45   22   24 1    
    46   22  145 1    
    47   23  146 1    
    48   23  147 1    
    49   23  148 1    
    50   24   25 am   BACKBONE|DICT|INTERRES
    51   24  149 1    
    52   25   26 2    
    53   25   27 1    
    54   27   28 1    
    55   27   29 1    
    56   27  150 1    
    57   28  151 1    
    58   28  152 1    
    59   28  153 1    
    60   29   30 am   BACKBONE|DICT|INTERRES
    61   29  154 1    
    62   30   31 2    
    63   30   32 1    
    64   32   33 1    
    65   32   34 1    
    66   32  155 1    
    67   33  156 1    
    68   33  157 1    
    69   33  158 1    
    70   34   35 am   BACKBONE|DICT|INTERRES
    71   34  159 1    
    72   35   36 2    
    73   35   37 1    
    74   37   38 1    
    75   37   39 1    
    76   37  160 1    
    77   38  161 1    
    78   38  162 1    
    79   38  163 1    
    80   39   40 am   BACKBONE|DICT|INTERRES
    81   39  164 1    
    82   40   41 2    
    83   40   42 1    
    84   42   43 1    
    85   42   44 1    
    86   42  165 1    
    87   43  166 1    
    88   43  167 1    
    89   43  168 1    
    90   44   45 am   BACKBONE|DICT|INTERRES
    91   44  169 1    
    92   45   46 2    
    93   45   47 1    
    94   47   48 1    
    95   47   49 1    
    96   47  170 1    
    97   48  171 1    
    98   48  172 1    
    99   48  173 1    
   100   49   50 am   BACKBONE|DICT|INTERRES
   101   49  174 1    
   102   50   51 2    
   103   50   52 1    
   104   52   53 1    
   105   52   54 1    
   106   52  175 1    
   107   53  176 1    
   108   53  177 1    
   109   53  178 1    
   110   54   55 am   BACKBONE|DICT|INTERRES
   111   54  179 1    
   112   55   56 2    
   113   55   57 1    
   114   57   58 1    
   115   57   59 1    
   116   57  180 1    
   117   58  181 1    
   118   58  182 1    
   119   58  183 1    
   120   59   60 am   BACKBONE|DICT|INTERRES
   121   59  184 1    
   122   60   61 2    
   123   60   62 1    
   124   62   63 1    
   125   62   64 1    
   126   62  185 1    
   127   63  186 1    
   128   63  187 1    
   129   63  188 1    
   130   64   65 am   BACKBONE|DICT|INTERRES
   131   64  189 1    
   132   65   66 2    
   133   67   68 2    
   134   67   69 am   BACKBONE|DICT|INTERRES
   135   69   70 1    
   136   69  190 1    
   137   70   71 1    
   138   70   72 1    
   139   70  191 1    
   140   71  192 1    
   141   71  193 1    
   142   71  194 1    
   143   72   73 2    
   144   72   74 am   BACKBONE|DICT|INTERRES
   145   74   75 1    
   146   74  195 1    
   147   75   76 1    
   148   75   77 1    
   149   75  196 1    
   150   76  197 1    
   151   76  198 1    
   152   76  199 1    
   153   77   78 2    
   154   77   79 am   BACKBONE|DICT|INTERRES
   155   79   80 1    
   156   79  200 1    
   157   80   81 1    
   158   80   82 1    
   159   80  201 1    
   160   81  202 1    
   161   81  203 1    
   162   81  204 1    
   163   82   83 2    
   164   82   84 am   BACKBONE|DICT|INTERRES
   165   84   85 1    
   166   84  205 1    
   167   85   86 1    
   168   85   87 1    
   169   85  206 1    
   170   86  207 1    
   171   86  208 1    
   172   86  209 1    
   173   87   88 2    
   174   87   89 am   BACKBONE|DICT|INTERRES
   175   89   90 1    
   176   89  210 1    
   177   90   91 1    
   178   90   92 1    
   179   90  211 1    
   180   91  212 1    
   181   91  213 1    
   182   91  214 1    
   183   92   93 2    
   184   92   94 am   BACKBONE|DICT|INTERRES
   185   94   95 1    
   186   94  215 1    
   187   95   96 1    
   188   95   97 1    
   189   95  216 1    
   190   96  217 1    
   191   96  218 1    
   192   96  219 1    
   193   97   98 2    
   194   97   99 am   BACKBONE|DICT|INTERRES
   195   99  100 1    
   196   99  220 1    
   197  100  101 1    
   198  100  102 1    
   199  100  221 1    
   200  101  222 1    
   201  101  223 1    
   202  101  224 1    
   203  102  103 2    
   204  102  104 am   BACKBONE|DICT|INTERRES
   205  104  105 1    
   206  104  225 1    
   207  105  106 1    
   208  105  107 1    
   209  105  226 1    
   210  106  227 1    
   211  106  228 1    
   212  106  229 1    
   213  107  108 2    
   214  107  109 am   BACKBONE|DICT|INTERRES
   215  109  110 1    
   216  109  230 1    
   217  110  111 1    
   218  110  112 1    
   219  110  231 1    
   220  111  232 1    
   221  111  233 1    
   222  111  234 1    
   223  112  113 2    
   224  112  114 am   BACKBONE|DICT|INTERRES
   225  114  115 1    
   226  114  235 1    
   227  115  116 1    
   228  115  117 1    
   229  115  236 1    
   230  116  237 1    
   231  116  238 1    
   232  116  239 1    
   233  117  118 2    
   234  117  119 am   BACKBONE|DICT|INTERRES
   235  119  120 1    
   236  119  240 1    
   237  120  121 1    
   238  120  124 1    
   239  120  241 1    
   240  121  122 am   BACKBONE|DICT|INTERRES
   241  121  123 2    
   242  122  242 1    
   243  122  243 1    
   244  124  125 1    
   245  124  244 1    
   246  124  245 1    
   247  125  126 1    
   248  126  246 1    
   249  126  247 1    
@<TRIPOS>SUBSTRUCTURE
     1 UNK         1 GROUP             0       ****    0 ROOT    
