@<TRIPOS>MOLECULE
3R540
247   249    1
SMALL
USER_CHARGES


@<TRIPOS>ATOM
      1 CA          0.0974  -11.6249  -51.4184 C.3       0 UNK        -0.1800 
      2 C           1.4853  -11.0094  -51.5332 C.2       0 UNK         0.5000 
      3 O           1.6146   -9.7873  -51.5917 O.2       0 UNK        -0.5000 
      4 N           2.5296  -11.8466  -51.5399 N.am      1 UNK        -0.5000 
      5 CA          3.9491  -11.4855  -51.6769 C.3       1 UNK         0.1400 
      6 C6          4.7600  -12.6565  -52.3008 C.3       23 UNK        -0.0398 
      7 S7          4.7159  -14.2008  -51.3185 S.3       23 UNK        -0.2404 
      8 C8          3.4541  -15.1853  -52.1858 C.3       23 UNK        -0.0205 
      9 C9          2.6748  -16.0254  -51.1883 C.ar      23 UNK        -0.0193 
     10 C10         1.6053  -15.4588  -50.4925 C.ar      23 UNK        -0.1150 
     11 C11         0.9088  -16.2000  -49.5393 C.ar      23 UNK        -0.0193 
     12 C12         1.2999  -17.5147  -49.2742 C.ar      23 UNK        -0.1150 
     13 C13         2.3544  -18.1129  -49.9773 C.ar      23 UNK        -0.0193 
     14 C14         3.0334  -17.3535  -50.9373 C.ar      23 UNK        -0.1150 
     15 C15         2.7940  -19.5651  -49.7544 C.3       23 UNK        -0.0205 
     16 S16         2.2552  -20.3515  -48.1943 S.3       23 UNK        -0.2404 
     17 C17         0.5041  -20.7821  -48.5071 C.3       23 UNK        -0.0398 
     18 CA          0.0782  -22.0878  -47.7968 C.3       11 UNK         0.1400 
     19 N           0.2110  -22.0079  -46.3379 N.am      11 UNK        -0.5000 
     20 C           0.1019  -23.0515  -45.5050 C.2       10 UNK         0.5000 
     21 O          -0.0997  -24.2055  -45.8832 O.2       10 UNK        -0.5000 
     22 CA          0.1859  -22.7547  -43.9963 C.3       10 UNK         0.1400 
     23 CB          1.6437  -22.5734  -43.5479 C.3       10 UNK        -0.1800 
     24 N          -0.6064  -21.5877  -43.6040 N.am      10 UNK        -0.5000 
     25 C          -1.9434  -21.5250  -43.6825 C.2       9 UNK         0.5000 
     26 O          -2.6467  -22.4572  -44.0702 O.2       9 UNK        -0.5000 
     27 CA         -2.6103  -20.1903  -43.3019 C.3       9 UNK         0.1400 
     28 CB         -2.7357  -20.0568  -41.7771 C.3       9 UNK        -0.1800 
     29 N          -1.9088  -19.0261  -43.8411 N.am      9 UNK        -0.5000 
     30 C          -1.7367  -18.7784  -45.1476 C.2       8 UNK         0.5000 
     31 O          -2.1847  -19.4879  -46.0477 O.2       8 UNK        -0.5000 
     32 CA         -0.8559  -17.5704  -45.5086 C.3       8 UNK         0.1400 
     33 CB         -1.6352  -16.2564  -45.3420 C.3       8 UNK        -0.1800 
     34 N           0.3795  -17.5152  -44.7259 N.am      8 UNK        -0.5000 
     35 C           1.2931  -18.4947  -44.6632 C.2       7 UNK         0.5000 
     36 O           1.2035  -19.5532  -45.2788 O.2       7 UNK        -0.5000 
     37 CA          2.4623  -18.2935  -43.6876 C.3       7 UNK         0.1400 
     38 CB          3.5202  -17.3414  -44.2668 C.3       7 UNK        -0.1800 
     39 N           1.9930  -17.8030  -42.3929 N.am      7 UNK        -0.5000 
     40 C           1.2629  -18.5288  -41.5332 C.2       6 UNK         0.5000 
     41 O           0.9635  -19.7093  -41.7149 O.2       6 UNK        -0.5000 
     42 CA          0.7488  -17.7979  -40.2794 C.3       6 UNK         0.1400 
     43 CB          1.8191  -17.7928  -39.1778 C.3       6 UNK        -0.1800 
     44 N           0.3385  -16.4216  -40.5636 N.am      6 UNK        -0.5000 
     45 C          -0.7201  -16.0887  -41.3162 C.2       5 UNK         0.5000 
     46 O          -1.4908  -16.9107  -41.8115 O.2       5 UNK        -0.5000 
     47 CA         -0.9193  -14.5868  -41.6021 C.3       5 UNK         0.1400 
     48 CB         -1.7280  -13.9254  -40.4764 C.3       5 UNK        -0.1800 
     49 N           0.3406  -13.8581  -41.7912 N.am      5 UNK        -0.5000 
     50 C           1.2190  -14.1121  -42.7701 C.2       4 UNK         0.5000 
     51 O           1.0597  -15.0023  -43.6075 O.2       4 UNK        -0.5000 
     52 CA          2.5166  -13.2827  -42.7698 C.3       4 UNK         0.1400 
     53 CB          3.4889  -13.8249  -41.7095 C.3       4 UNK        -0.1800 
     54 N           3.1832  -13.3231  -44.0721 N.am      4 UNK        -0.5000 
     55 C           2.7584  -12.6821  -45.1669 C.2       3 UNK         0.5000 
     56 O           1.8012  -11.9031  -45.1811 O.2       3 UNK        -0.5000 
     57 CA          3.5181  -12.9954  -46.4702 C.3       3 UNK         0.1400 
     58 CB          2.8707  -14.1860  -47.1953 C.3       3 UNK        -0.1800 
     59 N           3.5374  -11.8522  -47.3803 N.am      3 UNK        -0.5000 
     60 C           4.2386  -10.7255  -47.1955 C.2       2 UNK         0.5000 
     61 O           4.9956  -10.5447  -46.2395 O.2       2 UNK        -0.5000 
     62 CA          4.0545   -9.6237  -48.2644 C.3       2 UNK         0.1400 
     63 CB          5.2215   -8.6143  -48.3026 C.3       2 UNK        -0.1800 
     64 N           3.7735  -10.1614  -49.6027 N.am      2 UNK        -0.5000 
     65 C           4.5647  -10.9356  -50.3616 C.2       1 UNK         0.5000 
     66 O           5.7200  -11.2294  -50.0503 O.2       1 UNK        -0.5000 
     67 C          -1.3509  -22.4933  -48.2152 C.2       11 UNK         0.5000 
     68 O          -1.5045  -23.2992  -49.1329 O.2       11 UNK        -0.5000 
     69 N          -2.3702  -21.9638  -47.5217 N.am      12 UNK        -0.5000 
     70 CA         -3.7712  -22.3433  -47.7021 C.3       12 UNK         0.1400 
     71 CB         -4.6862  -21.3911  -46.9195 C.3       12 UNK        -0.1800 
     72 C          -4.0381  -23.8059  -47.3133 C.2       12 UNK         0.5000 
     73 O          -4.7120  -24.5081  -48.0650 O.2       12 UNK        -0.5000 
     74 N          -3.4751  -24.2538  -46.1821 N.am      13 UNK        -0.5000 
     75 CA         -3.5470  -25.6390  -45.7132 C.3       13 UNK         0.1400 
     76 CB         -2.9559  -25.7457  -44.2999 C.3       13 UNK        -0.1800 
     77 C          -2.8612  -26.6275  -46.6733 C.2       13 UNK         0.5000 
     78 O          -3.4270  -27.6837  -46.9558 O.2       13 UNK        -0.5000 
     79 N          -1.6904  -26.2476  -47.2058 N.am      14 UNK        -0.5000 
     80 CA         -0.9560  -26.9980  -48.2296 C.3       14 UNK         0.1400 
     81 CB          0.4155  -26.3451  -48.4568 C.3       14 UNK        -0.1800 
     82 C          -1.7283  -27.1214  -49.5589 C.2       14 UNK         0.5000 
     83 O          -1.6391  -28.1549  -50.2220 O.2       14 UNK        -0.5000 
     84 N          -2.5054  -26.0846  -49.8976 N.am      15 UNK        -0.5000 
     85 CA         -3.4211  -26.0442  -51.0387 C.3       15 UNK         0.1400 
     86 CB         -3.5976  -24.5786  -51.4685 C.3       15 UNK        -0.1800 
     87 C          -4.7931  -26.6915  -50.7476 C.2       15 UNK         0.5000 
     88 O          -5.6730  -26.6280  -51.6066 O.2       15 UNK        -0.5000 
     89 N          -4.9811  -27.2577  -49.5442 N.am      16 UNK        -0.5000 
     90 CA         -6.2066  -27.8871  -49.0338 C.3       16 UNK         0.1400 
     91 CB         -6.4947  -29.1972  -49.7956 C.3       16 UNK        -0.1800 
     92 C          -7.4245  -26.9357  -49.0011 C.2       16 UNK         0.5000 
     93 O          -8.5630  -27.3874  -49.1351 O.2       16 UNK        -0.5000 
     94 N          -7.1535  -25.6310  -48.8437 N.am      17 UNK        -0.5000 
     95 CA         -8.0875  -24.5014  -48.8640 C.3       17 UNK         0.1400 
     96 CB         -9.0248  -24.5509  -47.6401 C.3       17 UNK        -0.1800 
     97 C          -8.8522  -24.3360  -50.1976 C.2       17 UNK         0.5000 
     98 O          -9.9109  -23.7059  -50.2150 O.2       17 UNK        -0.5000 
     99 N          -8.3123  -24.8890  -51.2955 N.am      18 UNK        -0.5000 
    100 CA        -8.9436  -24.8801  -52.6180 C.3       18 UNK         0.1400 
    101 CB        -8.2661  -25.9337  -53.5069 C.3       18 UNK        -0.1800 
    102 C         -8.9162  -23.5024  -53.3066 C.2       18 UNK         0.5000 
    103 O         -9.8020  -23.2165  -54.1133 O.2       18 UNK        -0.5000 
    104 N         -7.9112  -22.6807  -52.9782 N.am      19 UNK        -0.5000 
    105 CA        -7.7124  -21.3298  -53.5084 C.3       19 UNK         0.1400 
    106 CB        -7.3227  -21.3697  -55.0004 C.3       19 UNK        -0.1800 
    107 C         -6.6439  -20.5711  -52.7075 C.2       19 UNK         0.5000 
    108 O         -6.8022  -19.3698  -52.4897 O.2       19 UNK        -0.5000 
    109 N         -5.5903  -21.2944  -52.2914 N.am      20 UNK        -0.5000 
    110 CA        -4.3488  -20.8131  -51.6682 C.3       20 UNK         0.1400 
    111 CB        -4.6153  -19.9261  -50.4331 C.3       20 UNK        -0.1800 
    112 C         -3.4110  -20.1208  -52.6782 C.2       20 UNK         0.5000 
    113 O         -3.8263  -19.7373  -53.7738 O.2       20 UNK        -0.5000 
    114 N         -2.1358  -20.0015  -52.2917 N.am      21 UNK        -0.5000 
    115 CA        -1.0737  -19.4166  -53.1150 C.3       21 UNK         0.1400 
    116 CB         0.2766  -19.9270  -52.5949 C.3       21 UNK        -0.1800 
    117 C         -1.0810  -17.8756  -53.1282 C.2       21 UNK         0.5000 
    118 O         -0.4627  -17.2811  -54.0121 O.2       21 UNK        -0.5000 
    119 N         -1.7421  -17.2637  -52.1381 N.am      22 UNK        -0.5000 
    120 CA        -1.8041  -15.8129  -51.9243 C.3       22 UNK         0.1400 
    121 C         -2.5254  -15.0668  -53.0815 C.2       22 UNK         0.5000 
    122 N         -1.8911  -14.0745  -53.6915 N.am      22 UNK        -0.7600 
    123 O         -3.6750  -15.3575  -53.4030 O.2       22 UNK        -0.5000 
    124 C124       -2.4549  -15.4544  -50.5619 C.3       23 UNK        -0.0398 
    125 S125       -1.8275  -16.4049  -49.1317 S.3       23 UNK        -0.2404 
    126 C126       -0.2461  -15.5764  -48.7706 C.3       23 UNK        -0.0205 
    127 H127       -0.2992  -11.4725  -50.4147 H         1 UNK         0.0600 
    128 H128        0.1087  -12.6943  -51.6247 H         1 UNK         0.0600 
    129 H129       -0.5823  -11.1544  -52.1290 H         1 UNK         0.0600 
    130 H130        2.3663  -12.8360  -51.4385 H         1 UNK         0.3000 
    131 H131        4.0081  -10.6578  -52.3869 H         1 UNK         0.0600 
    132 H132        4.3921  -12.8618  -53.3069 H         1 UNK         0.0800 
    133 H133        5.8035  -12.3672  -52.4359 H         1 UNK         0.0800 
    134 H134        3.9388  -15.8194  -52.9297 H         1 UNK         0.0800 
    135 H135        2.7667  -14.5403  -52.7345 H         1 UNK         0.0800 
    136 H136        1.3244  -14.4347  -50.6793 H         1 UNK         0.1150 
    137 H137        0.7665  -18.0558  -48.5126 H         1 UNK         0.1150 
    138 H138        3.8577  -17.7929  -51.4814 H         1 UNK         0.1150 
    139 H139        2.4780  -20.1784  -50.5979 H         1 UNK         0.0800 
    140 H140        3.8846  -19.5942  -49.7594 H         1 UNK         0.0800 
    141 H141        0.3578  -20.8755  -49.5837 H         1 UNK         0.0800 
    142 H142       -0.1352  -19.9643  -48.1734 H         1 UNK         0.0800 
    143 H143        0.7449  -22.8827  -48.1379 H         1 UNK         0.0600 
    144 H144        0.4348  -21.0922  -45.9515 H         1 UNK         0.3000 
    145 H145       -0.2192  -23.6205  -43.4685 H         1 UNK         0.0600 
    146 H146        1.7087  -22.4280  -42.4694 H         1 UNK         0.0600 
    147 H147        2.2389  -23.4534  -43.7947 H         1 UNK         0.0600 
    148 H148        2.1133  -21.7156  -44.0288 H         1 UNK         0.0600 
    149 H149       -0.0946  -20.7827  -43.2615 H         1 UNK         0.3000 
    150 H150       -3.6169  -20.1925  -43.7249 H         1 UNK         0.0600 
    151 H151       -3.2715  -20.9069  -41.3531 H         1 UNK         0.0600 
    152 H152       -3.2863  -19.1562  -41.5049 H         1 UNK         0.0600 
    153 H153       -1.7591  -20.0091  -41.2947 H         1 UNK         0.0600 
    154 H154       -1.5378  -18.3647  -43.1657 H         1 UNK         0.3000 
    155 H155       -0.5708  -17.6754  -46.5557 H         1 UNK         0.0600 
    156 H156       -2.0058  -16.1318  -44.3253 H         1 UNK         0.0600 
    157 H157       -2.4980  -16.2312  -46.0086 H         1 UNK         0.0600 
    158 H158       -1.0158  -15.3907  -45.5754 H         1 UNK         0.0600 
    159 H159        0.5526  -16.6562  -44.2081 H         1 UNK         0.3000 
    160 H160        2.9367  -19.2647  -43.5308 H         1 UNK         0.0600 
    161 H161        3.1191  -16.3455  -44.4474 H         1 UNK         0.0600 
    162 H162        3.8980  -17.7170  -45.2187 H         1 UNK         0.0600 
    163 H163        4.3723  -17.2432  -43.5943 H         1 UNK         0.0600 
    164 H164        2.1421  -16.8254  -42.1962 H         1 UNK         0.3000 
    165 H165       -0.1213  -18.3441  -39.9087 H         1 UNK         0.0600 
    166 H166        1.4384  -17.3432  -38.2606 H         1 UNK         0.0600 
    167 H167        2.1326  -18.8089  -38.9346 H         1 UNK         0.0600 
    168 H168        2.7083  -17.2382  -39.4803 H         1 UNK         0.0600 
    169 H169        0.9163  -15.6836  -40.1899 H         1 UNK         0.3000 
    170 H170       -1.4932  -14.5020  -42.5270 H         1 UNK         0.0600 
    171 H171       -2.6801  -14.4368  -40.3279 H         1 UNK         0.0600 
    172 H172       -1.1917  -13.9476  -39.5269 H         1 UNK         0.0600 
    173 H173       -1.9533  -12.8849  -40.7113 H         1 UNK         0.0600 
    174 H174        0.5387  -13.1206  -41.1303 H         1 UNK         0.3000 
    175 H175        2.2698  -12.2461  -42.5310 H         1 UNK         0.0600 
    176 H176        3.7615  -14.8632  -41.9040 H         1 UNK         0.0600 
    177 H177        4.4074  -13.2382  -41.6818 H         1 UNK         0.0600 
    178 H178        3.0509  -13.7817  -40.7116 H         1 UNK         0.0600 
    179 H179        3.9572  -13.9651  -44.1542 H         1 UNK         0.3000 
    180 H180        4.5500  -13.2550  -46.2243 H         1 UNK         0.0600 
    181 H181        3.4248  -14.4524  -48.0960 H         1 UNK         0.0600 
    182 H182        1.8446  -13.9617  -47.4868 H         1 UNK         0.0600 
    183 H183        2.8424  -15.0709  -46.5586 H         1 UNK         0.0600 
    184 H184        2.9249  -11.9039  -48.1794 H         1 UNK         0.3000 
    185 H185        3.1601   -9.0729  -47.9699 H         1 UNK         0.0600 
    186 H186        6.1744   -9.1010  -48.5114 H         1 UNK         0.0600 
    187 H187        5.0590   -7.8524  -49.0649 H         1 UNK         0.0600 
    188 H188        5.3227   -8.0985  -47.3471 H         1 UNK         0.0600 
    189 H189        2.8613   -9.9374  -49.9864 H         1 UNK         0.3000 
    190 H190       -2.1795  -21.2571  -46.8158 H         1 UNK         0.3000 
    191 H191       -4.0084  -22.2423  -48.7622 H         1 UNK         0.0600 
    192 H192       -4.4824  -21.4238  -45.8492 H         1 UNK         0.0600 
    193 H193       -5.7356  -21.6512  -47.0634 H         1 UNK         0.0600 
    194 H194       -4.5582  -20.3607  -47.2515 H         1 UNK         0.0600 
    195 H195       -2.9785  -23.5979  -45.5851 H         1 UNK         0.3000 
    196 H196       -4.6026  -25.9133  -45.6581 H         1 UNK         0.0600 
    197 H197       -3.0158  -26.7690  -43.9274 H         1 UNK         0.0600 
    198 H198       -3.4983  -25.1122  -43.5980 H         1 UNK         0.0600 
    199 H199       -1.9076  -25.4482  -44.2764 H         1 UNK         0.0600 
    200 H200       -1.2606  -25.3876  -46.8749 H         1 UNK         0.3000 
    201 H201       -0.7931  -28.0079  -47.8477 H         1 UNK         0.0600 
    202 H202        0.9950  -26.3136  -47.5340 H         1 UNK         0.0600 
    203 H203        0.3188  -25.3239  -48.8257 H         1 UNK         0.0600 
    204 H204        0.9985  -26.9051  -49.1888 H         1 UNK         0.0600 
    205 H205       -2.4798  -25.2550  -49.3163 H         1 UNK         0.3000 
    206 H206       -2.9754  -26.5907  -51.8721 H         1 UNK         0.0600 
    207 H207       -2.6361  -24.1105  -51.6806 H         1 UNK         0.0600 
    208 H208       -4.2015  -24.5022  -52.3734 H         1 UNK         0.0600 
    209 H209       -4.0910  -23.9956  -50.6909 H         1 UNK         0.0600 
    210 H210       -4.2137  -27.2288  -48.8838 H         1 UNK         0.3000 
    211 H211       -6.0029  -28.1477  -47.9945 H         1 UNK         0.0600 
    212 H212       -6.7725  -29.0089  -50.8332 H         1 UNK         0.0600 
    213 H213       -7.3136  -29.7488  -49.3326 H         1 UNK         0.0600 
    214 H214       -5.6236  -29.8525  -49.7948 H         1 UNK         0.0600 
    215 H215       -6.1792  -25.3674  -48.7019 H         1 UNK         0.3000 
    216 H216       -7.4702  -23.6074  -48.7653 H         1 UNK         0.0600 
    217 H217       -9.6155  -23.6376  -47.5599 H         1 UNK         0.0600 
    218 H218       -8.4578  -24.6496  -46.7145 H         1 UNK         0.0600 
    219 H219       -9.7222  -25.3869  -47.6980 H         1 UNK         0.0600 
    220 H220       -7.4511  -25.4170  -51.2091 H         1 UNK         0.3000 
    221 H221       -9.9904  -25.1664  -52.4959 H         1 UNK         0.0600 
    222 H222       -7.2175  -25.6936  -53.6867 H         1 UNK         0.0600 
    223 H223       -8.3097  -26.9229  -53.0506 H         1 UNK         0.0600 
    224 H224       -8.7582  -26.0008  -54.4780 H         1 UNK         0.0600 
    225 H225       -7.2810  -22.9750  -52.2470 H         1 UNK         0.3000 
    226 H226       -8.6504  -20.7802  -53.4043 H         1 UNK         0.0600 
    227 H227       -8.1258  -21.7709  -55.6179 H         1 UNK         0.0600 
    228 H228       -7.1045  -20.3681  -55.3735 H         1 UNK         0.0600 
    229 H229       -6.4351  -21.9811  -55.1666 H         1 UNK         0.0600 
    230 H230       -5.5449  -22.2494  -52.6131 H         1 UNK         0.3000 
    231 H231       -3.8307  -21.7071  -51.3214 H         1 UNK         0.0600 
    232 H232       -5.3698  -20.3681  -49.7827 H         1 UNK         0.0600 
    233 H233       -4.9568  -18.9287  -50.7112 H         1 UNK         0.0600 
    234 H234       -3.7095  -19.7990  -49.8389 H         1 UNK         0.0600 
    235 H235       -1.8596  -20.3520  -51.3868 H         1 UNK         0.3000 
    236 H236       -1.1945  -19.7585  -54.1453 H         1 UNK         0.0600 
    237 H237        1.0999  -19.5593  -53.2088 H         1 UNK         0.0600 
    238 H238        0.4506  -19.5842  -51.5763 H         1 UNK         0.0600 
    239 H239        0.3240  -21.0161  -52.6022 H         1 UNK         0.0600 
    240 H240       -2.2232  -17.8299  -51.4571 H         1 UNK         0.3000 
    241 H241       -0.7723  -15.4627  -51.8960 H         1 UNK         0.0600 
    242 H242       -2.3620  -13.5805  -54.4337 H         1 UNK         0.3800 
    243 H243       -0.9374  -13.8396  -53.4713 H         1 UNK         0.3800 
    244 H244       -2.3374  -14.3893  -50.3553 H         1 UNK         0.0800 
    245 H245       -3.5312  -15.6312  -50.6045 H         1 UNK         0.0800 
    246 H246       -0.3300  -14.5080  -48.9747 H         1 UNK         0.0800 
    247 H247       -0.0314  -15.6615  -47.7065 H         1 UNK         0.0800 
@<TRIPOS>BOND
     1    1    2 1    
     2    1  127 1    
     3    1  128 1    
     4    1  129 1    
     5    2    3 2    
     6    2    4 am   BACKBONE|DICT|INTERRES
     7    4    5 1    
     8    4  130 1    
     9    5    6 1    
    10    5   65 1    
    11    5  131 1    
    12    6    7 1    
    13    6  132 1    
    14    6  133 1    
    15    7    8 1    
    16    8    9 1    
    17    8  134 1    
    18    8  135 1    
    19    9   10 ar   
    20    9   14 ar   
    21   10   11 ar   
    22   10  136 1    
    23   11   12 ar   
    24   11  126 1    
    25   12   13 ar   
    26   12  137 1    
    27   13   14 ar   
    28   13   15 1    
    29   14  138 1    
    30   15   16 1    
    31   15  139 1    
    32   15  140 1    
    33   16   17 1    
    34   17   18 1    
    35   17  141 1    
    36   17  142 1    
    37   18   19 1    
    38   18   67 1    
    39   18  143 1    
    40   19   20 am   BACKBONE|DICT|INTERRES
    41   19  144 1    
    42   20   21 2    
    43   20   22 1    
    44   22   23 1    
    45   22   24 1    
    46   22  145 1    
    47   23  146 1    
    48   23  147 1    
    49   23  148 1    
    50   24   25 am   BACKBONE|DICT|INTERRES
    51   24  149 1    
    52   25   26 2    
    53   25   27 1    
    54   27   28 1    
    55   27   29 1    
    56   27  150 1    
    57   28  151 1    
    58   28  152 1    
    59   28  153 1    
    60   29   30 am   BACKBONE|DICT|INTERRES
    61   29  154 1    
    62   30   31 2    
    63   30   32 1    
    64   32   33 1    
    65   32   34 1    
    66   32  155 1    
    67   33  156 1    
    68   33  157 1    
    69   33  158 1    
    70   34   35 am   BACKBONE|DICT|INTERRES
    71   34  159 1    
    72   35   36 2    
    73   35   37 1    
    74   37   38 1    
    75   37   39 1    
    76   37  160 1    
    77   38  161 1    
    78   38  162 1    
    79   38  163 1    
    80   39   40 am   BACKBONE|DICT|INTERRES
    81   39  164 1    
    82   40   41 2    
    83   40   42 1    
    84   42   43 1    
    85   42   44 1    
    86   42  165 1    
    87   43  166 1    
    88   43  167 1    
    89   43  168 1    
    90   44   45 am   BACKBONE|DICT|INTERRES
    91   44  169 1    
    92   45   46 2    
    93   45   47 1    
    94   47   48 1    
    95   47   49 1    
    96   47  170 1    
    97   48  171 1    
    98   48  172 1    
    99   48  173 1    
   100   49   50 am   BACKBONE|DICT|INTERRES
   101   49  174 1    
   102   50   51 2    
   103   50   52 1    
   104   52   53 1    
   105   52   54 1    
   106   52  175 1    
   107   53  176 1    
   108   53  177 1    
   109   53  178 1    
   110   54   55 am   BACKBONE|DICT|INTERRES
   111   54  179 1    
   112   55   56 2    
   113   55   57 1    
   114   57   58 1    
   115   57   59 1    
   116   57  180 1    
   117   58  181 1    
   118   58  182 1    
   119   58  183 1    
   120   59   60 am   BACKBONE|DICT|INTERRES
   121   59  184 1    
   122   60   61 2    
   123   60   62 1    
   124   62   63 1    
   125   62   64 1    
   126   62  185 1    
   127   63  186 1    
   128   63  187 1    
   129   63  188 1    
   130   64   65 am   BACKBONE|DICT|INTERRES
   131   64  189 1    
   132   65   66 2    
   133   67   68 2    
   134   67   69 am   BACKBONE|DICT|INTERRES
   135   69   70 1    
   136   69  190 1    
   137   70   71 1    
   138   70   72 1    
   139   70  191 1    
   140   71  192 1    
   141   71  193 1    
   142   71  194 1    
   143   72   73 2    
   144   72   74 am   BACKBONE|DICT|INTERRES
   145   74   75 1    
   146   74  195 1    
   147   75   76 1    
   148   75   77 1    
   149   75  196 1    
   150   76  197 1    
   151   76  198 1    
   152   76  199 1    
   153   77   78 2    
   154   77   79 am   BACKBONE|DICT|INTERRES
   155   79   80 1    
   156   79  200 1    
   157   80   81 1    
   158   80   82 1    
   159   80  201 1    
   160   81  202 1    
   161   81  203 1    
   162   81  204 1    
   163   82   83 2    
   164   82   84 am   BACKBONE|DICT|INTERRES
   165   84   85 1    
   166   84  205 1    
   167   85   86 1    
   168   85   87 1    
   169   85  206 1    
   170   86  207 1    
   171   86  208 1    
   172   86  209 1    
   173   87   88 2    
   174   87   89 am   BACKBONE|DICT|INTERRES
   175   89   90 1    
   176   89  210 1    
   177   90   91 1    
   178   90   92 1    
   179   90  211 1    
   180   91  212 1    
   181   91  213 1    
   182   91  214 1    
   183   92   93 2    
   184   92   94 am   BACKBONE|DICT|INTERRES
   185   94   95 1    
   186   94  215 1    
   187   95   96 1    
   188   95   97 1    
   189   95  216 1    
   190   96  217 1    
   191   96  218 1    
   192   96  219 1    
   193   97   98 2    
   194   97   99 am   BACKBONE|DICT|INTERRES
   195   99  100 1    
   196   99  220 1    
   197  100  101 1    
   198  100  102 1    
   199  100  221 1    
   200  101  222 1    
   201  101  223 1    
   202  101  224 1    
   203  102  103 2    
   204  102  104 am   BACKBONE|DICT|INTERRES
   205  104  105 1    
   206  104  225 1    
   207  105  106 1    
   208  105  107 1    
   209  105  226 1    
   210  106  227 1    
   211  106  228 1    
   212  106  229 1    
   213  107  108 2    
   214  107  109 am   BACKBONE|DICT|INTERRES
   215  109  110 1    
   216  109  230 1    
   217  110  111 1    
   218  110  112 1    
   219  110  231 1    
   220  111  232 1    
   221  111  233 1    
   222  111  234 1    
   223  112  113 2    
   224  112  114 am   BACKBONE|DICT|INTERRES
   225  114  115 1    
   226  114  235 1    
   227  115  116 1    
   228  115  117 1    
   229  115  236 1    
   230  116  237 1    
   231  116  238 1    
   232  116  239 1    
   233  117  118 2    
   234  117  119 am   BACKBONE|DICT|INTERRES
   235  119  120 1    
   236  119  240 1    
   237  120  121 1    
   238  120  124 1    
   239  120  241 1    
   240  121  122 am   BACKBONE|DICT|INTERRES
   241  121  123 2    
   242  122  242 1    
   243  122  243 1    
   244  124  125 1    
   245  124  244 1    
   246  124  245 1    
   247  125  126 1    
   248  126  246 1    
   249  126  247 1    
@<TRIPOS>SUBSTRUCTURE
     1 UNK         1 GROUP             0       ****    0 ROOT    
