@<TRIPOS>MOLECULE
3R540
247   249    1
SMALL
USER_CHARGES


@<TRIPOS>ATOM
      1 CA         -4.4034  -14.4284  -42.5288 C.3       0 UNK        -0.1800 
      2 C          -3.4233  -15.5380  -42.9037 C.2       0 UNK         0.5000 
      3 O          -2.9699  -16.2619  -42.0209 O.2       0 UNK        -0.5000 
      4 N          -3.0686  -15.7219  -44.1844 N.am      1 UNK        -0.5000 
      5 CA         -3.4658  -14.9307  -45.3578 C.3       1 UNK         0.1400 
      6 C6         -3.0904  -15.6826  -46.6613 C.3       23 UNK        -0.0398 
      7 S7         -3.9792  -15.0803  -48.1387 S.3       23 UNK        -0.2404 
      8 C8         -2.6426  -14.2754  -49.0819 C.3       23 UNK        -0.0205 
      9 C9         -1.9081  -15.2721  -49.9662 C.ar      23 UNK        -0.0193 
     10 C10        -2.3666  -15.5282  -51.2620 C.ar      23 UNK        -0.1150 
     11 C11        -1.7194  -16.4645  -52.0742 C.ar      23 UNK        -0.0193 
     12 C12        -0.6069  -17.1502  -51.5798 C.ar      23 UNK        -0.1150 
     13 C13        -0.1556  -16.9211  -50.2777 C.ar      23 UNK        -0.0193 
     14 C14        -0.7897  -15.9584  -49.4864 C.ar      23 UNK        -0.1150 
     15 C15         0.9566  -17.7784  -49.6928 C.3       23 UNK        -0.0205 
     16 S16         0.3649  -19.4545  -49.2691 S.3       23 UNK        -0.2404 
     17 C17        -1.2403  -19.1087  -48.4685 C.3       23 UNK        -0.0398 
     18 CA         -1.8585  -20.3405  -47.7776 C.3       11 UNK         0.1400 
     19 N          -1.0323  -20.8471  -46.6739 N.am      11 UNK        -0.5000 
     20 C          -1.2913  -21.9504  -45.9552 C.2       10 UNK         0.5000 
     21 O          -2.2642  -22.6776  -46.1506 O.2       10 UNK        -0.5000 
     22 CA         -0.3456  -22.2528  -44.7834 C.3       10 UNK         0.1400 
     23 CB          0.9301  -22.9570  -45.2710 C.3       10 UNK        -0.1800 
     24 N          -0.0050  -21.0227  -44.0674 N.am      10 UNK        -0.5000 
     25 C          -0.7874  -20.4576  -43.1357 C.2       9 UNK         0.5000 
     26 O          -1.8168  -20.9791  -42.7081 O.2       9 UNK        -0.5000 
     27 CA         -0.3712  -19.0730  -42.6002 C.3       9 UNK         0.1400 
     28 CB          0.4315  -19.2164  -41.2987 C.3       9 UNK        -0.1800 
     29 N           0.4045  -18.2902  -43.5636 N.am      9 UNK        -0.5000 
     30 C          -0.1030  -17.7573  -44.6823 C.2       8 UNK         0.5000 
     31 O          -1.2921  -17.8322  -44.9938 O.2       8 UNK        -0.5000 
     32 CA          0.8758  -17.0492  -45.6374 C.3       8 UNK         0.1400 
     33 CB          1.0129  -15.5658  -45.2759 C.3       8 UNK        -0.1800 
     34 N           2.2076  -17.6465  -45.7050 N.am      8 UNK        -0.5000 
     35 C           2.4999  -18.9203  -45.9913 C.2       7 UNK         0.5000 
     36 O           1.6433  -19.7820  -46.1807 O.2       7 UNK        -0.5000 
     37 CA          3.9901  -19.3147  -46.0346 C.3       7 UNK         0.1400 
     38 CB          4.6006  -19.0229  -47.4183 C.3       7 UNK        -0.1800 
     39 N           4.7888  -18.7371  -44.9425 N.am      7 UNK        -0.5000 
     40 C           5.0952  -17.4522  -44.7161 C.2       6 UNK         0.5000 
     41 O           4.8294  -16.5270  -45.4867 O.2       6 UNK        -0.5000 
     42 CA          5.7104  -17.1353  -43.3419 C.3       6 UNK         0.1400 
     43 CB          7.0673  -16.4301  -43.4907 C.3       6 UNK        -0.1800 
     44 N           4.8162  -16.2898  -42.5496 N.am      6 UNK        -0.5000 
     45 C           3.5496  -16.5645  -42.2126 C.2       5 UNK         0.5000 
     46 O           2.9883  -17.6232  -42.4950 O.2       5 UNK        -0.5000 
     47 CA          2.7547  -15.4836  -41.4506 C.3       5 UNK         0.1400 
     48 CB          2.9704  -15.6114  -39.9320 C.3       5 UNK        -0.1800 
     49 N           2.9645  -14.1000  -41.9025 N.am      5 UNK        -0.5000 
     50 C           4.0762  -13.3468  -41.8549 C.2       4 UNK         0.5000 
     51 O           5.1649  -13.7490  -41.4433 O.2       4 UNK        -0.5000 
     52 CA          3.9613  -11.8947  -42.3613 C.3       4 UNK         0.1400 
     53 CB          4.4082  -11.8095  -43.8290 C.3       4 UNK        -0.1800 
     54 N           2.6116  -11.3408  -42.2448 N.am      4 UNK        -0.5000 
     55 C           1.9623  -11.1180  -41.0931 C.2       3 UNK         0.5000 
     56 O           2.4735  -11.2687  -39.9828 O.2       3 UNK        -0.5000 
     57 CA          0.4905  -10.6654  -41.1903 C.3       3 UNK         0.1400 
     58 CB          0.3602   -9.1798  -40.8188 C.3       3 UNK        -0.1800 
     59 N          -0.1359  -10.8791  -42.5009 N.am      3 UNK        -0.5000 
     60 C          -0.3613  -12.0671  -43.0762 C.2       2 UNK         0.5000 
     61 O           0.0091  -13.1471  -42.6058 O.2       2 UNK        -0.5000 
     62 CA         -1.0871  -12.0329  -44.4260 C.3       2 UNK         0.1400 
     63 CB         -0.0959  -11.8004  -45.5799 C.3       2 UNK        -0.1800 
     64 N          -1.7727  -13.3042  -44.6122 N.am      2 UNK        -0.5000 
     65 C          -2.8816  -13.4967  -45.3347 C.2       1 UNK         0.5000 
     66 O          -3.4560  -12.5933  -45.9425 O.2       1 UNK        -0.5000 
     67 C          -3.3130  -20.0305  -47.3587 C.2       11 UNK         0.5000 
     68 O          -4.2123  -20.1257  -48.1933 O.2       11 UNK        -0.5000 
     69 N          -3.5304  -19.7136  -46.0744 N.am      12 UNK        -0.5000 
     70 CA         -4.8466  -19.5303  -45.4604 C.3       12 UNK         0.1400 
     71 CB         -4.6571  -19.1356  -43.9896 C.3       12 UNK        -0.1800 
     72 C          -5.7603  -20.7706  -45.5570 C.2       12 UNK         0.5000 
     73 O          -6.9807  -20.6161  -45.6213 O.2       12 UNK        -0.5000 
     74 N          -5.1694  -21.9740  -45.5963 N.am      13 UNK        -0.5000 
     75 CA         -5.8697  -23.2486  -45.7451 C.3       13 UNK         0.1400 
     76 CB         -5.0337  -24.3609  -45.0865 C.3       13 UNK        -0.1800 
     77 C          -6.1785  -23.5363  -47.2277 C.2       13 UNK         0.5000 
     78 O          -5.6529  -24.4963  -47.7927 O.2       13 UNK        -0.5000 
     79 N          -7.0102  -22.6786  -47.8365 N.am      14 UNK        -0.5000 
     80 CA         -7.5129  -22.7547  -49.2142 C.3       14 UNK         0.1400 
     81 CB         -8.5105  -23.9240  -49.3508 C.3       14 UNK        -0.1800 
     82 C          -6.3813  -22.8139  -50.2610 C.2       14 UNK         0.5000 
     83 O          -6.3078  -23.7621  -51.0465 O.2       14 UNK        -0.5000 
     84 N          -5.4840  -21.8176  -50.2109 N.am      15 UNK        -0.5000 
     85 CA         -4.2733  -21.6948  -51.0316 C.3       15 UNK         0.1400 
     86 CB         -4.6323  -21.4839  -52.5187 C.3       15 UNK        -0.1800 
     87 C          -3.2917  -22.8599  -50.7920 C.2       15 UNK         0.5000 
     88 O          -2.6712  -23.3436  -51.7375 O.2       15 UNK        -0.5000 
     89 N          -3.2008  -23.3052  -49.5287 N.am      16 UNK        -0.5000 
     90 CA         -2.4337  -24.4594  -49.0473 C.3       16 UNK         0.1400 
     91 CB         -0.9171  -24.1997  -49.1798 C.3       16 UNK        -0.1800 
     92 C          -2.8890  -25.7642  -49.7312 C.2       16 UNK         0.5000 
     93 O          -2.0663  -26.5012  -50.2730 O.2       16 UNK        -0.5000 
     94 N          -4.2113  -25.9883  -49.7464 N.am      17 UNK        -0.5000 
     95 CA         -4.9198  -27.0343  -50.4936 C.3       17 UNK         0.1400 
     96 CB         -4.6447  -28.4230  -49.8811 C.3       17 UNK        -0.1800 
     97 C          -4.6194  -26.9633  -52.0080 C.2       17 UNK         0.5000 
     98 O          -4.3082  -27.9776  -52.6344 O.2       17 UNK        -0.5000 
     99 N          -4.6791  -25.7363  -52.5437 N.am      18 UNK        -0.5000 
    100 CA        -4.3632  -25.3144  -53.9129 C.3       18 UNK         0.1400 
    101 CB        -5.2775  -26.0191  -54.9354 C.3       18 UNK        -0.1800 
    102 C         -2.8733  -25.4020  -54.3161 C.2       18 UNK         0.5000 
    103 O         -2.5518  -25.0479  -55.4519 O.2       18 UNK        -0.5000 
    104 N         -1.9763  -25.8226  -53.4106 N.am      19 UNK        -0.5000 
    105 CA        -0.5412  -25.9696  -53.6758 C.3       19 UNK         0.1400 
    106 CB         0.1186  -26.7754  -52.5478 C.3       19 UNK        -0.1800 
    107 C          0.2016  -24.6352  -53.8827 C.2       19 UNK         0.5000 
    108 O          1.2408  -24.6295  -54.5442 O.2       19 UNK        -0.5000 
    109 N         -0.3334  -23.5305  -53.3409 N.am      20 UNK        -0.5000 
    110 CA         0.2007  -22.1790  -53.5355 C.3       20 UNK         0.1400 
    111 CB        -0.3651  -21.2410  -52.4586 C.3       20 UNK        -0.1800 
    112 C         -0.0785  -21.6188  -54.9455 C.2       20 UNK         0.5000 
    113 O          0.5985  -20.6759  -55.3565 O.2       20 UNK        -0.5000 
    114 N         -1.0500  -22.2156  -55.6572 N.am      21 UNK        -0.5000 
    115 CA        -1.4476  -21.9306  -57.0401 C.3       21 UNK         0.1400 
    116 CB        -0.3433  -22.3856  -58.0170 C.3       21 UNK        -0.1800 
    117 C         -1.8904  -20.4684  -57.2637 C.2       21 UNK         0.5000 
    118 O         -1.5000  -19.8451  -58.2535 O.2       21 UNK        -0.5000 
    119 N         -2.6900  -19.9470  -56.3244 N.am      22 UNK        -0.5000 
    120 CA        -3.2644  -18.5928  -56.3540 C.3       22 UNK         0.1400 
    121 C         -4.1902  -18.3479  -57.5799 C.2       22 UNK         0.5000 
    122 N         -4.1535  -17.1592  -58.1668 N.am      22 UNK        -0.7600 
    123 O         -4.9735  -19.2099  -57.9733 O.2       22 UNK        -0.5000 
    124 C124       -4.0306  -18.2665  -55.0476 C.3       23 UNK        -0.0398 
    125 S125       -3.0097  -18.4100  -53.5429 S.3       23 UNK        -0.2404 
    126 C126       -2.2425  -16.7611  -53.4705 C.3       23 UNK        -0.0205 
    127 H127       -4.8038  -14.6010  -41.5297 H         1 UNK         0.0600 
    128 H128       -5.2490  -14.3859  -43.2141 H         1 UNK         0.0600 
    129 H129       -3.9033  -13.4602  -42.5231 H         1 UNK         0.0600 
    130 H130       -2.4440  -16.4971  -44.3926 H         1 UNK         0.3000 
    131 H131       -4.5530  -14.8394  -45.3351 H         1 UNK         0.0600 
    132 H132       -2.0131  -15.6643  -46.8226 H         1 UNK         0.0800 
    133 H133       -3.3514  -16.7373  -46.5620 H         1 UNK         0.0800 
    134 H134       -1.9492  -13.7734  -48.4051 H         1 UNK         0.0800 
    135 H135       -3.0784  -13.4897  -49.7008 H         1 UNK         0.0800 
    136 H136       -3.2395  -15.0082  -51.6312 H         1 UNK         0.1150 
    137 H137       -0.1245  -17.8990  -52.1918 H         1 UNK         0.1150 
    138 H138       -0.4379  -15.7753  -48.4822 H         1 UNK         0.1150 
    139 H139        1.7733  -17.8611  -50.4111 H         1 UNK         0.0800 
    140 H140        1.3806  -17.3098  -48.8043 H         1 UNK         0.0800 
    141 H141       -1.9154  -18.7432  -49.2454 H         1 UNK         0.0800 
    142 H142       -1.1246  -18.2945  -47.7546 H         1 UNK         0.0800 
    143 H143       -1.9112  -21.1376  -48.5190 H         1 UNK         0.0600 
    144 H144       -0.1713  -20.3405  -46.4866 H         1 UNK         0.3000 
    145 H145       -0.8602  -22.9341  -44.1022 H         1 UNK         0.0600 
    146 H146        1.4765  -22.3613  -46.0017 H         1 UNK         0.0600 
    147 H147        1.6037  -23.1708  -44.4411 H         1 UNK         0.0600 
    148 H148        0.6871  -23.9080  -45.7465 H         1 UNK         0.0600 
    149 H149        0.7892  -20.5033  -44.4207 H         1 UNK         0.3000 
    150 H150       -1.2865  -18.5216  -42.3738 H         1 UNK         0.0600 
    151 H151       -0.1314  -19.7765  -40.5510 H         1 UNK         0.0600 
    152 H152        0.6612  -18.2412  -40.8689 H         1 UNK         0.0600 
    153 H153        1.3736  -19.7406  -41.4638 H         1 UNK         0.0600 
    154 H154        1.3914  -18.1598  -43.3539 H         1 UNK         0.3000 
    155 H155        0.4517  -17.1102  -46.6380 H         1 UNK         0.0600 
    156 H156        0.0458  -15.0717  -45.3273 H         1 UNK         0.0600 
    157 H157        1.6762  -15.0476  -45.9688 H         1 UNK         0.0600 
    158 H158        1.4050  -15.4270  -44.2682 H         1 UNK         0.0600 
    159 H159        2.9967  -17.0216  -45.5677 H         1 UNK         0.3000 
    160 H160        4.0272  -20.3950  -45.8855 H         1 UNK         0.0600 
    161 H161        5.6414  -19.3428  -47.4659 H         1 UNK         0.0600 
    162 H162        4.5621  -17.9631  -47.6708 H         1 UNK         0.0600 
    163 H163        4.0586  -19.5588  -48.1989 H         1 UNK         0.0600 
    164 H164        5.0166  -19.3946  -44.2095 H         1 UNK         0.3000 
    165 H165        5.8646  -18.0658  -42.7922 H         1 UNK         0.0600 
    166 H166        6.9676  -15.4676  -43.9945 H         1 UNK         0.0600 
    167 H167        7.5274  -16.2519  -42.5185 H         1 UNK         0.0600 
    168 H168        7.7613  -17.0370  -44.0735 H         1 UNK         0.0600 
    169 H169        5.1803  -15.3870  -42.2565 H         1 UNK         0.3000 
    170 H170        1.7003  -15.6892  -41.6438 H         1 UNK         0.0600 
    171 H171        4.0079  -15.4293  -39.6504 H         1 UNK         0.0600 
    172 H172        2.3456  -14.9047  -39.3856 H         1 UNK         0.0600 
    173 H173        2.7095  -16.6122  -39.5854 H         1 UNK         0.0600 
    174 H174        2.1287  -13.6548  -42.2641 H         1 UNK         0.3000 
    175 H175        4.6329  -11.2799  -41.7585 H         1 UNK         0.0600 
    176 H176        3.7576  -12.3925  -44.4827 H         1 UNK         0.0600 
    177 H177        4.4058  -10.7786  -44.1839 H         1 UNK         0.0600 
    178 H178        5.4227  -12.1914  -43.9516 H         1 UNK         0.0600 
    179 H179        2.1152  -11.1713  -43.1065 H         1 UNK         0.3000 
    180 H180       -0.0700  -11.2504  -40.4582 H         1 UNK         0.0600 
    181 H181        0.8824   -8.5403  -41.5317 H         1 UNK         0.0600 
    182 H182        0.7816   -8.9833  -39.8320 H         1 UNK         0.0600 
    183 H183       -0.6845   -8.8695  -40.7900 H         1 UNK         0.0600 
    184 H184       -0.4543  -10.0455  -42.9743 H         1 UNK         0.3000 
    185 H185       -1.8204  -11.2238  -44.4029 H         1 UNK         0.0600 
    186 H186        0.4126  -10.8416  -45.4732 H         1 UNK         0.0600 
    187 H187        0.6699  -12.5758  -45.6165 H         1 UNK         0.0600 
    188 H188       -0.6060  -11.7896  -46.5433 H         1 UNK         0.0600 
    189 H189       -1.3934  -14.0651  -44.0625 H         1 UNK         0.3000 
    190 H190       -2.7281  -19.6043  -45.4680 H         1 UNK         0.3000 
    191 H191       -5.3403  -18.7073  -45.9808 H         1 UNK         0.0600 
    192 H192       -4.2411  -19.9561  -43.4043 H         1 UNK         0.0600 
    193 H193       -3.9844  -18.2867  -43.8902 H         1 UNK         0.0600 
    194 H194       -5.6077  -18.8561  -43.5340 H         1 UNK         0.0600 
    195 H195       -4.1562  -22.0236  -45.6070 H         1 UNK         0.3000 
    196 H196       -6.8234  -23.2001  -45.2155 H         1 UNK         0.0600 
    197 H197       -4.8355  -24.1376  -44.0381 H         1 UNK         0.0600 
    198 H198       -4.0747  -24.5002  -45.5858 H         1 UNK         0.0600 
    199 H199       -5.5605  -25.3152  -45.1217 H         1 UNK         0.0600 
    200 H200       -7.3402  -21.8927  -47.2867 H         1 UNK         0.3000 
    201 H201       -8.0599  -21.8295  -49.4010 H         1 UNK         0.0600 
    202 H202       -8.9557  -23.9430  -50.3463 H         1 UNK         0.0600 
    203 H203       -9.3256  -23.8323  -48.6330 H         1 UNK         0.0600 
    204 H204       -8.0296  -24.8895  -49.1897 H         1 UNK         0.0600 
    205 H205       -5.5706  -21.1176  -49.4820 H         1 UNK         0.3000 
    206 H206       -3.7519  -20.7962  -50.7004 H         1 UNK         0.0600 
    207 H207       -5.2117  -22.3103  -52.9254 H         1 UNK         0.0600 
    208 H208       -3.7389  -21.3797  -53.1342 H         1 UNK         0.0600 
    209 H209       -5.2198  -20.5754  -52.6495 H         1 UNK         0.0600 
    210 H210       -3.7985  -22.8717  -48.8397 H         1 UNK         0.3000 
    211 H211       -2.6641  -24.5717  -47.9874 H         1 UNK         0.0600 
    212 H212       -0.6269  -23.2789  -48.6749 H         1 UNK         0.0600 
    213 H213       -0.3438  -25.0102  -48.7289 H         1 UNK         0.0600 
    214 H214       -0.6054  -24.1204  -50.2216 H         1 UNK         0.0600 
    215 H215       -4.8045  -25.3420  -49.2293 H         1 UNK         0.3000 
    216 H216       -5.9845  -26.8250  -50.3798 H         1 UNK         0.0600 
    217 H217       -5.2540  -29.1886  -50.3626 H         1 UNK         0.0600 
    218 H218       -3.6009  -28.7175  -49.9933 H         1 UNK         0.0600 
    219 H219       -4.8850  -28.4380  -48.8181 H         1 UNK         0.0600 
    220 H220       -4.9783  -24.9839  -51.9297 H         1 UNK         0.3000 
    221 H221       -4.6051  -24.2532  -53.9489 H         1 UNK         0.0600 
    222 H222       -5.0510  -27.0821  -55.0197 H         1 UNK         0.0600 
    223 H223       -5.1615  -25.5843  -55.9289 H         1 UNK         0.0600 
    224 H224       -6.3276  -25.9187  -54.6607 H         1 UNK         0.0600 
    225 H225       -2.2903  -26.0480  -52.4746 H         1 UNK         0.3000 
    226 H226       -0.4379  -26.5446  -54.5983 H         1 UNK         0.0600 
    227 H227       -0.4107  -27.7103  -52.3629 H         1 UNK         0.0600 
    228 H228        1.1483  -27.0282  -52.8029 H         1 UNK         0.0600 
    229 H229        0.1462  -26.2110  -51.6154 H         1 UNK         0.0600 
    230 H230       -1.1898  -23.6076  -52.7938 H         1 UNK         0.3000 
    231 H231        1.2842  -22.2198  -53.4061 H         1 UNK         0.0600 
    232 H232        0.1276  -20.2693  -52.4946 H         1 UNK         0.0600 
    233 H233       -0.2123  -21.6458  -51.4580 H         1 UNK         0.0600 
    234 H234       -1.4320  -21.0673  -52.5930 H         1 UNK         0.0600 
    235 H235       -1.5234  -23.0011  -55.2293 H         1 UNK         0.3000 
    236 H236       -2.3277  -22.5452  -57.2349 H         1 UNK         0.0600 
    237 H237       -0.0794  -23.4304  -57.8520 H         1 UNK         0.0600 
    238 H238       -0.6741  -22.2951  -59.0523 H         1 UNK         0.0600 
    239 H239        0.5636  -21.7898  -57.9088 H         1 UNK         0.0600 
    240 H240       -2.9473  -20.5203  -55.5358 H         1 UNK         0.3000 
    241 H241       -2.4236  -17.9007  -56.4305 H         1 UNK         0.0600 
    242 H242       -4.7603  -16.9831  -58.9528 H         1 UNK         0.3800 
    243 H243       -3.5235  -16.4341  -57.8593 H         1 UNK         0.3800 
    244 H244       -4.8810  -18.9413  -54.9342 H         1 UNK         0.0800 
    245 H245       -4.4541  -17.2615  -55.0884 H         1 UNK         0.0800 
    246 H246       -1.4235  -16.7109  -54.1892 H         1 UNK         0.0800 
    247 H247       -2.9661  -16.0011  -53.7687 H         1 UNK         0.0800 
@<TRIPOS>BOND
     1    1    2 1    
     2    1  127 1    
     3    1  128 1    
     4    1  129 1    
     5    2    3 2    
     6    2    4 am   BACKBONE|DICT|INTERRES
     7    4    5 1    
     8    4  130 1    
     9    5    6 1    
    10    5   65 1    
    11    5  131 1    
    12    6    7 1    
    13    6  132 1    
    14    6  133 1    
    15    7    8 1    
    16    8    9 1    
    17    8  134 1    
    18    8  135 1    
    19    9   10 ar   
    20    9   14 ar   
    21   10   11 ar   
    22   10  136 1    
    23   11   12 ar   
    24   11  126 1    
    25   12   13 ar   
    26   12  137 1    
    27   13   14 ar   
    28   13   15 1    
    29   14  138 1    
    30   15   16 1    
    31   15  139 1    
    32   15  140 1    
    33   16   17 1    
    34   17   18 1    
    35   17  141 1    
    36   17  142 1    
    37   18   19 1    
    38   18   67 1    
    39   18  143 1    
    40   19   20 am   BACKBONE|DICT|INTERRES
    41   19  144 1    
    42   20   21 2    
    43   20   22 1    
    44   22   23 1    
    45   22   24 1    
    46   22  145 1    
    47   23  146 1    
    48   23  147 1    
    49   23  148 1    
    50   24   25 am   BACKBONE|DICT|INTERRES
    51   24  149 1    
    52   25   26 2    
    53   25   27 1    
    54   27   28 1    
    55   27   29 1    
    56   27  150 1    
    57   28  151 1    
    58   28  152 1    
    59   28  153 1    
    60   29   30 am   BACKBONE|DICT|INTERRES
    61   29  154 1    
    62   30   31 2    
    63   30   32 1    
    64   32   33 1    
    65   32   34 1    
    66   32  155 1    
    67   33  156 1    
    68   33  157 1    
    69   33  158 1    
    70   34   35 am   BACKBONE|DICT|INTERRES
    71   34  159 1    
    72   35   36 2    
    73   35   37 1    
    74   37   38 1    
    75   37   39 1    
    76   37  160 1    
    77   38  161 1    
    78   38  162 1    
    79   38  163 1    
    80   39   40 am   BACKBONE|DICT|INTERRES
    81   39  164 1    
    82   40   41 2    
    83   40   42 1    
    84   42   43 1    
    85   42   44 1    
    86   42  165 1    
    87   43  166 1    
    88   43  167 1    
    89   43  168 1    
    90   44   45 am   BACKBONE|DICT|INTERRES
    91   44  169 1    
    92   45   46 2    
    93   45   47 1    
    94   47   48 1    
    95   47   49 1    
    96   47  170 1    
    97   48  171 1    
    98   48  172 1    
    99   48  173 1    
   100   49   50 am   BACKBONE|DICT|INTERRES
   101   49  174 1    
   102   50   51 2    
   103   50   52 1    
   104   52   53 1    
   105   52   54 1    
   106   52  175 1    
   107   53  176 1    
   108   53  177 1    
   109   53  178 1    
   110   54   55 am   BACKBONE|DICT|INTERRES
   111   54  179 1    
   112   55   56 2    
   113   55   57 1    
   114   57   58 1    
   115   57   59 1    
   116   57  180 1    
   117   58  181 1    
   118   58  182 1    
   119   58  183 1    
   120   59   60 am   BACKBONE|DICT|INTERRES
   121   59  184 1    
   122   60   61 2    
   123   60   62 1    
   124   62   63 1    
   125   62   64 1    
   126   62  185 1    
   127   63  186 1    
   128   63  187 1    
   129   63  188 1    
   130   64   65 am   BACKBONE|DICT|INTERRES
   131   64  189 1    
   132   65   66 2    
   133   67   68 2    
   134   67   69 am   BACKBONE|DICT|INTERRES
   135   69   70 1    
   136   69  190 1    
   137   70   71 1    
   138   70   72 1    
   139   70  191 1    
   140   71  192 1    
   141   71  193 1    
   142   71  194 1    
   143   72   73 2    
   144   72   74 am   BACKBONE|DICT|INTERRES
   145   74   75 1    
   146   74  195 1    
   147   75   76 1    
   148   75   77 1    
   149   75  196 1    
   150   76  197 1    
   151   76  198 1    
   152   76  199 1    
   153   77   78 2    
   154   77   79 am   BACKBONE|DICT|INTERRES
   155   79   80 1    
   156   79  200 1    
   157   80   81 1    
   158   80   82 1    
   159   80  201 1    
   160   81  202 1    
   161   81  203 1    
   162   81  204 1    
   163   82   83 2    
   164   82   84 am   BACKBONE|DICT|INTERRES
   165   84   85 1    
   166   84  205 1    
   167   85   86 1    
   168   85   87 1    
   169   85  206 1    
   170   86  207 1    
   171   86  208 1    
   172   86  209 1    
   173   87   88 2    
   174   87   89 am   BACKBONE|DICT|INTERRES
   175   89   90 1    
   176   89  210 1    
   177   90   91 1    
   178   90   92 1    
   179   90  211 1    
   180   91  212 1    
   181   91  213 1    
   182   91  214 1    
   183   92   93 2    
   184   92   94 am   BACKBONE|DICT|INTERRES
   185   94   95 1    
   186   94  215 1    
   187   95   96 1    
   188   95   97 1    
   189   95  216 1    
   190   96  217 1    
   191   96  218 1    
   192   96  219 1    
   193   97   98 2    
   194   97   99 am   BACKBONE|DICT|INTERRES
   195   99  100 1    
   196   99  220 1    
   197  100  101 1    
   198  100  102 1    
   199  100  221 1    
   200  101  222 1    
   201  101  223 1    
   202  101  224 1    
   203  102  103 2    
   204  102  104 am   BACKBONE|DICT|INTERRES
   205  104  105 1    
   206  104  225 1    
   207  105  106 1    
   208  105  107 1    
   209  105  226 1    
   210  106  227 1    
   211  106  228 1    
   212  106  229 1    
   213  107  108 2    
   214  107  109 am   BACKBONE|DICT|INTERRES
   215  109  110 1    
   216  109  230 1    
   217  110  111 1    
   218  110  112 1    
   219  110  231 1    
   220  111  232 1    
   221  111  233 1    
   222  111  234 1    
   223  112  113 2    
   224  112  114 am   BACKBONE|DICT|INTERRES
   225  114  115 1    
   226  114  235 1    
   227  115  116 1    
   228  115  117 1    
   229  115  236 1    
   230  116  237 1    
   231  116  238 1    
   232  116  239 1    
   233  117  118 2    
   234  117  119 am   BACKBONE|DICT|INTERRES
   235  119  120 1    
   236  119  240 1    
   237  120  121 1    
   238  120  124 1    
   239  120  241 1    
   240  121  122 am   BACKBONE|DICT|INTERRES
   241  121  123 2    
   242  122  242 1    
   243  122  243 1    
   244  124  125 1    
   245  124  244 1    
   246  124  245 1    
   247  125  126 1    
   248  126  246 1    
   249  126  247 1    
@<TRIPOS>SUBSTRUCTURE
     1 UNK         1 GROUP             0       ****    0 ROOT    
