@<TRIPOS>MOLECULE
3R540
247   249    1
SMALL
USER_CHARGES


@<TRIPOS>ATOM
      1 CA          0.7477  -13.8732  -50.5566 C.3       0 UNK        -0.1800 
      2 C           0.2720  -13.3797  -49.1977 C.2       0 UNK         0.5000 
      3 O           0.4890  -12.2138  -48.8641 O.2       0 UNK        -0.5000 
      4 N          -0.3478  -14.2674  -48.4078 N.am      1 UNK        -0.5000 
      5 CA         -0.9090  -14.0505  -47.0636 C.3       1 UNK         0.1400 
      6 C6         -2.0397  -12.9840  -46.9968 C.3       23 UNK        -0.0398 
      7 S7         -3.4355  -13.2849  -48.1345 S.3       23 UNK        -0.2404 
      8 C8         -4.5282  -14.3777  -47.1507 C.3       23 UNK        -0.0205 
      9 C9         -4.2964  -15.8842  -47.3079 C.ar      23 UNK        -0.0193 
     10 C10        -3.3722  -16.4193  -48.2123 C.ar      23 UNK        -0.1150 
     11 C11        -3.2076  -17.8018  -48.3539 C.ar      23 UNK        -0.0193 
     12 C12        -3.9901  -18.6559  -47.5714 C.ar      23 UNK        -0.1150 
     13 C13        -4.9144  -18.1471  -46.6560 C.ar      23 UNK        -0.0193 
     14 C14        -5.0653  -16.7616  -46.5374 C.ar      23 UNK        -0.1150 
     15 C15        -5.7709  -19.0852  -45.8141 C.3       23 UNK        -0.0205 
     16 S16        -4.8001  -20.0218  -44.5846 S.3       23 UNK        -0.2404 
     17 C17        -4.6343  -21.6789  -45.3384 C.3       23 UNK        -0.0398 
     18 CA         -3.1684  -22.0972  -45.6137 C.3       11 UNK         0.1400 
     19 N          -2.3211  -22.0281  -44.4130 N.am      11 UNK        -0.5000 
     20 C          -0.9917  -22.1988  -44.4031 C.2       10 UNK         0.5000 
     21 O          -0.3494  -22.5008  -45.4099 O.2       10 UNK        -0.5000 
     22 CA         -0.2685  -22.0333  -43.0502 C.3       10 UNK         0.1400 
     23 CB          1.2638  -22.0895  -43.1898 C.3       10 UNK        -0.1800 
     24 N          -0.6227  -20.7834  -42.3828 N.am      10 UNK        -0.5000 
     25 C          -1.6975  -20.5835  -41.6102 C.2       9 UNK         0.5000 
     26 O          -2.5558  -21.4417  -41.4027 O.2       9 UNK        -0.5000 
     27 CA         -1.8516  -19.1807  -41.0042 C.3       9 UNK         0.1400 
     28 CB         -0.8080  -18.9329  -39.9024 C.3       9 UNK        -0.1800 
     29 N          -1.7021  -18.1792  -42.0566 N.am      9 UNK        -0.5000 
     30 C          -2.7236  -17.5523  -42.6538 C.2       8 UNK         0.5000 
     31 O          -3.8869  -17.6155  -42.2545 O.2       8 UNK        -0.5000 
     32 CA         -2.4078  -16.6962  -43.8967 C.3       8 UNK         0.1400 
     33 CB         -2.5042  -15.2024  -43.5549 C.3       8 UNK        -0.1800 
     34 N          -1.1005  -16.9672  -44.4977 N.am      8 UNK        -0.5000 
     35 C          -0.7695  -18.0900  -45.1504 C.2       7 UNK         0.5000 
     36 O          -1.5560  -19.0025  -45.3843 O.2       7 UNK        -0.5000 
     37 CA          0.7054  -18.2523  -45.5625 C.3       7 UNK         0.1400 
     38 CB          0.9218  -17.8258  -47.0167 C.3       7 UNK        -0.1800 
     39 N           1.6482  -17.5314  -44.7040 N.am      7 UNK        -0.5000 
     40 C           1.8397  -17.7925  -43.4036 C.2       6 UNK         0.5000 
     41 O           1.1698  -18.6193  -42.7814 O.2       6 UNK        -0.5000 
     42 CA          2.9363  -16.9912  -42.6703 C.3       6 UNK         0.1400 
     43 CB          3.5180  -17.7601  -41.4657 C.3       6 UNK        -0.1800 
     44 N           4.0134  -16.5093  -43.5428 N.am      6 UNK        -0.5000 
     45 C           4.8427  -17.2386  -44.3045 C.2       5 UNK         0.5000 
     46 O           4.8151  -18.4677  -44.3906 O.2       5 UNK        -0.5000 
     47 CA          5.8746  -16.4358  -45.1216 C.3       5 UNK         0.1400 
     48 CB          7.2713  -17.0750  -45.0404 C.3       5 UNK        -0.1800 
     49 N           5.5177  -16.2582  -46.5324 N.am      5 UNK        -0.5000 
     50 C           4.3695  -15.7608  -47.0098 C.2       4 UNK         0.5000 
     51 O           3.3786  -15.5018  -46.3223 O.2       4 UNK        -0.5000 
     52 CA          4.3386  -15.4304  -48.5099 C.3       4 UNK         0.1400 
     53 CB          3.3283  -16.3053  -49.2663 C.3       4 UNK        -0.1800 
     54 N           3.9332  -14.0361  -48.6167 N.am      4 UNK        -0.5000 
     55 C           4.7676  -12.9958  -48.7288 C.2       3 UNK         0.5000 
     56 O           5.9622  -13.0954  -49.0103 O.2       3 UNK        -0.5000 
     57 CA          4.1651  -11.6111  -48.4218 C.3       3 UNK         0.1400 
     58 CB          3.6751  -10.9278  -49.7072 C.3       3 UNK        -0.1800 
     59 N           3.0585  -11.7009  -47.4635 N.am      3 UNK        -0.5000 
     60 C           3.2191  -11.9337  -46.1492 C.2       2 UNK         0.5000 
     61 O           4.3213  -11.9894  -45.6028 O.2       2 UNK        -0.5000 
     62 CA          1.9563  -12.1667  -45.3008 C.3       2 UNK         0.1400 
     63 CB          1.5567  -10.8803  -44.5618 C.3       2 UNK        -0.1800 
     64 N           0.8337  -12.6088  -46.1248 N.am      2 UNK        -0.5000 
     65 C           0.1853  -13.7711  -46.0094 C.2       1 UNK         0.5000 
     66 O           0.4131  -14.6025  -45.1301 O.2       1 UNK        -0.5000 
     67 C          -3.1331  -23.4915  -46.2812 C.2       11 UNK         0.5000 
     68 O          -3.2448  -23.5876  -47.5025 O.2       11 UNK        -0.5000 
     69 N          -2.9397  -24.5466  -45.4765 N.am      12 UNK        -0.5000 
     70 CA         -2.7824  -25.9267  -45.9382 C.3       12 UNK         0.1400 
     71 CB         -2.8898  -26.8734  -44.7338 C.3       12 UNK        -0.1800 
     72 C          -1.4634  -26.1707  -46.6983 C.2       12 UNK         0.5000 
     73 O          -1.4204  -27.0501  -47.5583 O.2       12 UNK        -0.5000 
     74 N          -0.4189  -25.3866  -46.3917 N.am      13 UNK        -0.5000 
     75 CA          0.8825  -25.4565  -47.0603 C.3       13 UNK         0.1400 
     76 CB          1.9641  -24.8611  -46.1458 C.3       13 UNK        -0.1800 
     77 C           0.8782  -24.7514  -48.4292 C.2       13 UNK         0.5000 
     78 O           1.7432  -25.0378  -49.2586 O.2       13 UNK        -0.5000 
     79 N          -0.1023  -23.8676  -48.6639 N.am      14 UNK        -0.5000 
     80 CA         -0.3244  -23.1510  -49.9187 C.3       14 UNK         0.1400 
     81 CB         -1.1193  -21.8691  -49.6175 C.3       14 UNK        -0.1800 
     82 C          -1.0102  -24.0685  -50.9520 C.2       14 UNK         0.5000 
     83 O          -2.1725  -23.8614  -51.3063 O.2       14 UNK        -0.5000 
     84 N          -0.2840  -25.1206  -51.3600 N.am      15 UNK        -0.5000 
     85 CA         -0.6474  -26.1600  -52.3349 C.3       15 UNK         0.1400 
     86 CB         -0.7512  -25.5394  -53.7438 C.3       15 UNK        -0.1800 
     87 C          -1.9133  -26.9716  -51.9738 C.2       15 UNK         0.5000 
     88 O          -2.4833  -27.6251  -52.8487 O.2       15 UNK        -0.5000 
     89 N          -2.3538  -26.8809  -50.7086 N.am      16 UNK        -0.5000 
     90 CA         -3.6484  -27.3235  -50.1750 C.3       16 UNK         0.1400 
     91 CB         -3.7556  -28.8619  -50.1907 C.3       16 UNK        -0.1800 
     92 C          -4.8622  -26.6307  -50.8410 C.2       16 UNK         0.5000 
     93 O          -5.9827  -27.1322  -50.7365 O.2       16 UNK        -0.5000 
     94 N          -4.6245  -25.4913  -51.5055 N.am      17 UNK        -0.5000 
     95 CA         -5.6175  -24.7152  -52.2467 C.3       17 UNK         0.1400 
     96 CB         -5.0109  -24.3293  -53.6045 C.3       17 UNK        -0.1800 
     97 C          -6.0564  -23.4558  -51.4804 C.2       17 UNK         0.5000 
     98 O          -7.0169  -22.8073  -51.8988 O.2       17 UNK        -0.5000 
     99 N          -5.3547  -23.1274  -50.3846 N.am      18 UNK        -0.5000 
    100 CA        -5.5488  -21.9463  -49.5445 C.3       18 UNK         0.1400 
    101 CB        -6.9015  -22.0225  -48.8000 C.3       18 UNK        -0.1800 
    102 C         -5.3235  -20.6474  -50.3432 C.2       18 UNK         0.5000 
    103 O         -4.3685  -20.5773  -51.1193 O.2       18 UNK        -0.5000 
    104 N         -6.1898  -19.6435  -50.1500 N.am      19 UNK        -0.5000 
    105 CA        -6.0898  -18.3021  -50.7343 C.3       19 UNK         0.1400 
    106 CB        -7.2433  -17.4381  -50.2059 C.3       19 UNK        -0.1800 
    107 C         -6.0321  -18.2609  -52.2746 C.2       19 UNK         0.5000 
    108 O         -5.5090  -17.2931  -52.8264 O.2       19 UNK        -0.5000 
    109 N         -6.5136  -19.3189  -52.9421 N.am      20 UNK        -0.5000 
    110 CA        -6.4175  -19.5039  -54.3904 C.3       20 UNK         0.1400 
    111 CB        -7.2609  -20.7197  -54.8010 C.3       20 UNK        -0.1800 
    112 C         -4.9692  -19.6512  -54.9027 C.2       20 UNK         0.5000 
    113 O         -4.7063  -19.2881  -56.0498 O.2       20 UNK        -0.5000 
    114 N         -4.0565  -20.1598  -54.0600 N.am      21 UNK        -0.5000 
    115 CA        -2.6280  -20.2463  -54.3713 C.3       21 UNK         0.1400 
    116 CB        -1.9826  -21.3718  -53.5511 C.3       21 UNK        -0.1800 
    117 C         -1.8992  -18.9112  -54.1351 C.2       21 UNK         0.5000 
    118 O         -0.9753  -18.5904  -54.8842 O.2       21 UNK        -0.5000 
    119 N         -2.3236  -18.1583  -53.1116 N.am      22 UNK        -0.5000 
    120 CA        -1.8074  -16.8132  -52.8094 C.3       22 UNK         0.1400 
    121 C         -2.3239  -15.7259  -53.7926 C.2       22 UNK         0.5000 
    122 N         -3.5788  -15.7714  -54.2204 N.am      22 UNK        -0.7600 
    123 O         -1.5741  -14.8318  -54.1742 O.2       22 UNK        -0.5000 
    124 C124       -2.0879  -16.3996  -51.3444 C.3       23 UNK        -0.0398 
    125 S125       -1.0350  -17.2973  -50.1510 S.3       23 UNK        -0.2404 
    126 C126       -2.2216  -18.4259  -49.3438 C.3       23 UNK        -0.0205 
    127 H127        0.6941  -14.9578  -50.6383 H         1 UNK         0.0600 
    128 H128        1.7833  -13.5803  -50.7254 H         1 UNK         0.0600 
    129 H129        0.1363  -13.4393  -51.3477 H         1 UNK         0.0600 
    130 H130       -0.4608  -15.2098  -48.7559 H         1 UNK         0.3000 
    131 H131       -1.3547  -15.0052  -46.7816 H         1 UNK         0.0600 
    132 H132       -2.4308  -12.8930  -45.9833 H         1 UNK         0.0800 
    133 H133       -1.6464  -11.9963  -47.2406 H         1 UNK         0.0800 
    134 H134       -5.5553  -14.1684  -47.4524 H         1 UNK         0.0800 
    135 H135       -4.4626  -14.1080  -46.0959 H         1 UNK         0.0800 
    136 H136       -2.7845  -15.7528  -48.8176 H         1 UNK         0.1150 
    137 H137       -3.8732  -19.7248  -47.6690 H         1 UNK         0.1150 
    138 H138       -5.7868  -16.3607  -45.8392 H         1 UNK         0.1150 
    139 H139       -6.3298  -19.7553  -46.4640 H         1 UNK         0.0800 
    140 H140       -6.5237  -18.5124  -45.2708 H         1 UNK         0.0800 
    141 H141       -5.2126  -21.7152  -46.2619 H         1 UNK         0.0800 
    142 H142       -5.1090  -22.3920  -44.6620 H         1 UNK         0.0800 
    143 H143       -2.7488  -21.3931  -46.3352 H         1 UNK         0.0600 
    144 H144       -2.7761  -21.7577  -43.5496 H         1 UNK         0.3000 
    145 H145       -0.5730  -22.8712  -42.4199 H         1 UNK         0.0600 
    146 H146        1.7526  -21.9785  -42.2217 H         1 UNK         0.0600 
    147 H147        1.5863  -23.0443  -43.6060 H         1 UNK         0.0600 
    148 H148        1.6370  -21.2999  -43.8436 H         1 UNK         0.0600 
    149 H149        0.0266  -20.0122  -42.5226 H         1 UNK         0.3000 
    150 H150       -2.8412  -19.1181  -40.5469 H         1 UNK         0.0600 
    151 H151        0.2126  -18.9907  -40.2817 H         1 UNK         0.0600 
    152 H152       -0.9032  -19.6704  -39.1046 H         1 UNK         0.0600 
    153 H153       -0.9402  -17.9487  -39.4528 H         1 UNK         0.0600 
    154 H154       -0.7767  -18.0884  -42.4592 H         1 UNK         0.3000 
    155 H155       -3.1695  -16.9289  -44.6394 H         1 UNK         0.0600 
    156 H156       -1.7206  -14.8972  -42.8604 H         1 UNK         0.0600 
    157 H157       -3.4649  -14.9633  -43.0970 H         1 UNK         0.0600 
    158 H158       -2.4169  -14.5924  -44.4502 H         1 UNK         0.0600 
    159 H159       -0.3984  -16.2374  -44.4172 H         1 UNK         0.3000 
    160 H160        0.9428  -19.3157  -45.4869 H         1 UNK         0.0600 
    161 H161        0.7135  -16.7657  -47.1596 H         1 UNK         0.0600 
    162 H162        0.2727  -18.3894  -47.6850 H         1 UNK         0.0600 
    163 H163        1.9480  -18.0178  -47.3276 H         1 UNK         0.0600 
    164 H164        2.2048  -16.8054  -45.1445 H         1 UNK         0.3000 
    165 H165        2.4406  -16.1001  -42.2830 H         1 UNK         0.0600 
    166 H166        4.2783  -17.1722  -40.9517 H         1 UNK         0.0600 
    167 H167        3.9715  -18.7038  -41.7704 H         1 UNK         0.0600 
    168 H168        2.7419  -17.9920  -40.7353 H         1 UNK         0.0600 
    169 H169        4.0902  -15.5036  -43.6057 H         1 UNK         0.3000 
    170 H170        5.9488  -15.4378  -44.6844 H         1 UNK         0.0600 
    171 H171        7.5727  -17.2248  -44.0027 H         1 UNK         0.0600 
    172 H172        7.2991  -18.0474  -45.5337 H         1 UNK         0.0600 
    173 H173        8.0248  -16.4403  -45.5071 H         1 UNK         0.0600 
    174 H174        6.2592  -16.4506  -47.1898 H         1 UNK         0.3000 
    175 H175        5.3284  -15.5821  -48.9457 H         1 UNK         0.0600 
    176 H176        2.3107  -16.1505  -48.9083 H         1 UNK         0.0600 
    177 H177        3.3391  -16.0804  -50.3328 H         1 UNK         0.0600 
    178 H178        3.5648  -17.3639  -49.1542 H         1 UNK         0.0600 
    179 H179        2.9984  -13.8394  -48.2928 H         1 UNK         0.3000 
    180 H180        4.9541  -10.9925  -47.9888 H         1 UNK         0.0600 
    181 H181        2.8771  -11.4924  -50.1890 H         1 UNK         0.0600 
    182 H182        4.4869  -10.8265  -50.4285 H         1 UNK         0.0600 
    183 H183        3.2975   -9.9262  -49.5006 H         1 UNK         0.0600 
    184 H184        2.1265  -11.6744  -47.8610 H         1 UNK         0.3000 
    185 H185        2.2061  -12.9284  -44.5590 H         1 UNK         0.0600 
    186 H186        0.6945  -11.0504  -43.9168 H         1 UNK         0.0600 
    187 H187        2.3705  -10.5233  -43.9293 H         1 UNK         0.0600 
    188 H188        1.3029  -10.0789  -45.2567 H         1 UNK         0.0600 
    189 H189        0.6020  -12.0350  -46.9284 H         1 UNK         0.3000 
    190 H190       -2.8571  -24.3857  -44.4833 H         1 UNK         0.3000 
    191 H191       -3.6029  -26.1514  -46.6229 H         1 UNK         0.0600 
    192 H192       -2.8035  -27.9148  -45.0469 H         1 UNK         0.0600 
    193 H193       -3.8512  -26.7655  -44.2313 H         1 UNK         0.0600 
    194 H194       -2.1038  -26.6846  -44.0015 H         1 UNK         0.0600 
    195 H195       -0.5401  -24.6325  -45.7274 H         1 UNK         0.3000 
    196 H196        1.1309  -26.5062  -47.2312 H         1 UNK         0.0600 
    197 H197        1.8350  -23.7875  -46.0099 H         1 UNK         0.0600 
    198 H198        1.9556  -25.3303  -45.1619 H         1 UNK         0.0600 
    199 H199        2.9567  -25.0151  -46.5706 H         1 UNK         0.0600 
    200 H200       -0.7878  -23.7126  -47.9377 H         1 UNK         0.3000 
    201 H201        0.6422  -22.8507  -50.3284 H         1 UNK         0.0600 
    202 H202       -2.1527  -22.0773  -49.3412 H         1 UNK         0.0600 
    203 H203       -1.1390  -21.2109  -50.4849 H         1 UNK         0.0600 
    204 H204       -0.6614  -21.3114  -48.8005 H         1 UNK         0.0600 
    205 H205        0.6302  -25.2288  -50.9309 H         1 UNK         0.3000 
    206 H206        0.1778  -26.8733  -52.3430 H         1 UNK         0.0600 
    207 H207        0.1459  -24.9728  -53.9932 H         1 UNK         0.0600 
    208 H208       -0.8676  -26.3097  -54.5070 H         1 UNK         0.0600 
    209 H209       -1.6058  -24.8669  -53.8259 H         1 UNK         0.0600 
    210 H210       -1.7913  -26.3432  -50.0643 H         1 UNK         0.3000 
    211 H211       -3.6670  -27.0055  -49.1323 H         1 UNK         0.0600 
    212 H212       -4.6431  -29.1982  -49.6536 H         1 UNK         0.0600 
    213 H213       -2.8932  -29.3200  -49.7064 H         1 UNK         0.0600 
    214 H214       -3.8206  -29.2549  -51.2055 H         1 UNK         0.0600 
    215 H215       -3.6793  -25.1176  -51.5146 H         1 UNK         0.3000 
    216 H216       -6.5100  -25.3165  -52.4306 H         1 UNK         0.0600 
    217 H217       -4.1448  -23.6804  -53.4807 H         1 UNK         0.0600 
    218 H218       -5.7349  -23.7991  -54.2236 H         1 UNK         0.0600 
    219 H219       -4.6917  -25.2115  -54.1598 H         1 UNK         0.0600 
    220 H220       -4.5432  -23.6872  -50.1630 H         1 UNK         0.3000 
    221 H221       -4.7579  -21.9653  -48.7966 H         1 UNK         0.0600 
    222 H222       -6.9853  -22.9580  -48.2467 H         1 UNK         0.0600 
    223 H223       -7.7512  -21.9661  -49.4810 H         1 UNK         0.0600 
    224 H224       -7.0078  -21.2172  -48.0753 H         1 UNK         0.0600 
    225 H225       -6.9643  -19.7957  -49.5213 H         1 UNK         0.3000 
    226 H226       -5.1571  -17.8642  -50.3781 H         1 UNK         0.0600 
    227 H227       -8.2141  -17.8477  -50.4872 H         1 UNK         0.0600 
    228 H228       -7.2098  -17.3606  -49.1187 H         1 UNK         0.0600 
    229 H229       -7.1858  -16.4234  -50.6023 H         1 UNK         0.0600 
    230 H230       -6.8965  -20.0890  -52.4113 H         1 UNK         0.3000 
    231 H231       -6.8438  -18.6186  -54.8667 H         1 UNK         0.0600 
    232 H232       -6.8846  -21.6382  -54.3512 H         1 UNK         0.0600 
    233 H233       -7.2492  -20.8561  -55.8831 H         1 UNK         0.0600 
    234 H234       -8.3016  -20.6000  -54.4997 H         1 UNK         0.0600 
    235 H235       -4.3334  -20.4182  -53.1175 H         1 UNK         0.3000 
    236 H236       -2.5061  -20.5008  -55.4264 H         1 UNK         0.0600 
    237 H237       -2.3417  -22.3474  -53.8735 H         1 UNK         0.0600 
    238 H238       -0.8981  -21.3771  -53.6662 H         1 UNK         0.0600 
    239 H239       -2.2019  -21.2695  -52.4900 H         1 UNK         0.0600 
    240 H240       -3.0981  -18.4878  -52.5562 H         1 UNK         0.3000 
    241 H241       -0.7226  -16.8397  -52.9346 H         1 UNK         0.0600 
    242 H242       -3.9074  -15.0687  -54.8626 H         1 UNK         0.3800 
    243 H243       -4.2386  -16.4428  -53.8331 H         1 UNK         0.3800 
    244 H244       -3.1434  -16.5372  -51.1058 H         1 UNK         0.0800 
    245 H245       -1.8862  -15.3368  -51.1985 H         1 UNK         0.0800 
    246 H246       -1.6464  -19.1807  -48.8098 H         1 UNK         0.0800 
    247 H247       -2.7718  -18.9515  -50.1197 H         1 UNK         0.0800 
@<TRIPOS>BOND
     1    1    2 1    
     2    1  127 1    
     3    1  128 1    
     4    1  129 1    
     5    2    3 2    
     6    2    4 am   BACKBONE|DICT|INTERRES
     7    4    5 1    
     8    4  130 1    
     9    5    6 1    
    10    5   65 1    
    11    5  131 1    
    12    6    7 1    
    13    6  132 1    
    14    6  133 1    
    15    7    8 1    
    16    8    9 1    
    17    8  134 1    
    18    8  135 1    
    19    9   10 ar   
    20    9   14 ar   
    21   10   11 ar   
    22   10  136 1    
    23   11   12 ar   
    24   11  126 1    
    25   12   13 ar   
    26   12  137 1    
    27   13   14 ar   
    28   13   15 1    
    29   14  138 1    
    30   15   16 1    
    31   15  139 1    
    32   15  140 1    
    33   16   17 1    
    34   17   18 1    
    35   17  141 1    
    36   17  142 1    
    37   18   19 1    
    38   18   67 1    
    39   18  143 1    
    40   19   20 am   BACKBONE|DICT|INTERRES
    41   19  144 1    
    42   20   21 2    
    43   20   22 1    
    44   22   23 1    
    45   22   24 1    
    46   22  145 1    
    47   23  146 1    
    48   23  147 1    
    49   23  148 1    
    50   24   25 am   BACKBONE|DICT|INTERRES
    51   24  149 1    
    52   25   26 2    
    53   25   27 1    
    54   27   28 1    
    55   27   29 1    
    56   27  150 1    
    57   28  151 1    
    58   28  152 1    
    59   28  153 1    
    60   29   30 am   BACKBONE|DICT|INTERRES
    61   29  154 1    
    62   30   31 2    
    63   30   32 1    
    64   32   33 1    
    65   32   34 1    
    66   32  155 1    
    67   33  156 1    
    68   33  157 1    
    69   33  158 1    
    70   34   35 am   BACKBONE|DICT|INTERRES
    71   34  159 1    
    72   35   36 2    
    73   35   37 1    
    74   37   38 1    
    75   37   39 1    
    76   37  160 1    
    77   38  161 1    
    78   38  162 1    
    79   38  163 1    
    80   39   40 am   BACKBONE|DICT|INTERRES
    81   39  164 1    
    82   40   41 2    
    83   40   42 1    
    84   42   43 1    
    85   42   44 1    
    86   42  165 1    
    87   43  166 1    
    88   43  167 1    
    89   43  168 1    
    90   44   45 am   BACKBONE|DICT|INTERRES
    91   44  169 1    
    92   45   46 2    
    93   45   47 1    
    94   47   48 1    
    95   47   49 1    
    96   47  170 1    
    97   48  171 1    
    98   48  172 1    
    99   48  173 1    
   100   49   50 am   BACKBONE|DICT|INTERRES
   101   49  174 1    
   102   50   51 2    
   103   50   52 1    
   104   52   53 1    
   105   52   54 1    
   106   52  175 1    
   107   53  176 1    
   108   53  177 1    
   109   53  178 1    
   110   54   55 am   BACKBONE|DICT|INTERRES
   111   54  179 1    
   112   55   56 2    
   113   55   57 1    
   114   57   58 1    
   115   57   59 1    
   116   57  180 1    
   117   58  181 1    
   118   58  182 1    
   119   58  183 1    
   120   59   60 am   BACKBONE|DICT|INTERRES
   121   59  184 1    
   122   60   61 2    
   123   60   62 1    
   124   62   63 1    
   125   62   64 1    
   126   62  185 1    
   127   63  186 1    
   128   63  187 1    
   129   63  188 1    
   130   64   65 am   BACKBONE|DICT|INTERRES
   131   64  189 1    
   132   65   66 2    
   133   67   68 2    
   134   67   69 am   BACKBONE|DICT|INTERRES
   135   69   70 1    
   136   69  190 1    
   137   70   71 1    
   138   70   72 1    
   139   70  191 1    
   140   71  192 1    
   141   71  193 1    
   142   71  194 1    
   143   72   73 2    
   144   72   74 am   BACKBONE|DICT|INTERRES
   145   74   75 1    
   146   74  195 1    
   147   75   76 1    
   148   75   77 1    
   149   75  196 1    
   150   76  197 1    
   151   76  198 1    
   152   76  199 1    
   153   77   78 2    
   154   77   79 am   BACKBONE|DICT|INTERRES
   155   79   80 1    
   156   79  200 1    
   157   80   81 1    
   158   80   82 1    
   159   80  201 1    
   160   81  202 1    
   161   81  203 1    
   162   81  204 1    
   163   82   83 2    
   164   82   84 am   BACKBONE|DICT|INTERRES
   165   84   85 1    
   166   84  205 1    
   167   85   86 1    
   168   85   87 1    
   169   85  206 1    
   170   86  207 1    
   171   86  208 1    
   172   86  209 1    
   173   87   88 2    
   174   87   89 am   BACKBONE|DICT|INTERRES
   175   89   90 1    
   176   89  210 1    
   177   90   91 1    
   178   90   92 1    
   179   90  211 1    
   180   91  212 1    
   181   91  213 1    
   182   91  214 1    
   183   92   93 2    
   184   92   94 am   BACKBONE|DICT|INTERRES
   185   94   95 1    
   186   94  215 1    
   187   95   96 1    
   188   95   97 1    
   189   95  216 1    
   190   96  217 1    
   191   96  218 1    
   192   96  219 1    
   193   97   98 2    
   194   97   99 am   BACKBONE|DICT|INTERRES
   195   99  100 1    
   196   99  220 1    
   197  100  101 1    
   198  100  102 1    
   199  100  221 1    
   200  101  222 1    
   201  101  223 1    
   202  101  224 1    
   203  102  103 2    
   204  102  104 am   BACKBONE|DICT|INTERRES
   205  104  105 1    
   206  104  225 1    
   207  105  106 1    
   208  105  107 1    
   209  105  226 1    
   210  106  227 1    
   211  106  228 1    
   212  106  229 1    
   213  107  108 2    
   214  107  109 am   BACKBONE|DICT|INTERRES
   215  109  110 1    
   216  109  230 1    
   217  110  111 1    
   218  110  112 1    
   219  110  231 1    
   220  111  232 1    
   221  111  233 1    
   222  111  234 1    
   223  112  113 2    
   224  112  114 am   BACKBONE|DICT|INTERRES
   225  114  115 1    
   226  114  235 1    
   227  115  116 1    
   228  115  117 1    
   229  115  236 1    
   230  116  237 1    
   231  116  238 1    
   232  116  239 1    
   233  117  118 2    
   234  117  119 am   BACKBONE|DICT|INTERRES
   235  119  120 1    
   236  119  240 1    
   237  120  121 1    
   238  120  124 1    
   239  120  241 1    
   240  121  122 am   BACKBONE|DICT|INTERRES
   241  121  123 2    
   242  122  242 1    
   243  122  243 1    
   244  124  125 1    
   245  124  244 1    
   246  124  245 1    
   247  125  126 1    
   248  126  246 1    
   249  126  247 1    
@<TRIPOS>SUBSTRUCTURE
     1 UNK         1 GROUP             0       ****    0 ROOT    
