@<TRIPOS>MOLECULE
3R540
247   249    1
SMALL
USER_CHARGES


@<TRIPOS>ATOM
      1 CA          8.2062  -12.1713  -48.1663 C.3       0 UNK        -0.1800 
      2 C           6.7105  -12.4517  -48.1711 C.2       0 UNK         0.5000 
      3 O           5.9119  -11.5220  -48.2879 O.2       0 UNK        -0.5000 
      4 N           6.3233  -13.7262  -48.0245 N.am      1 UNK        -0.5000 
      5 CA          4.9519  -14.2651  -48.0289 C.3       1 UNK         0.1400 
      6 C6          4.1514  -13.8998  -49.3137 C.3       23 UNK        -0.0398 
      7 S7          3.1775  -15.2902  -49.9734 S.3       23 UNK        -0.2404 
      8 C8          1.5336  -15.0275  -49.2202 C.3       23 UNK        -0.0205 
      9 C9          0.4893  -16.0058  -49.7500 C.ar      23 UNK        -0.0193 
     10 C10        -0.7855  -15.5513  -50.1001 C.ar      23 UNK        -0.1150 
     11 C11        -1.7403  -16.4327  -50.6168 C.ar      23 UNK        -0.0193 
     12 C12        -1.4189  -17.7833  -50.7769 C.ar      23 UNK        -0.1150 
     13 C13        -0.1531  -18.2534  -50.4209 C.ar      23 UNK        -0.0193 
     14 C14         0.7883  -17.3640  -49.8977 C.ar      23 UNK        -0.1150 
     15 C15         0.2183  -19.7121  -50.6321 C.3       23 UNK        -0.0205 
     16 S16         0.6342  -20.5316  -49.0665 S.3       23 UNK        -0.2404 
     17 C17        -1.0100  -20.6852  -48.2954 C.3       23 UNK        -0.0398 
     18 CA         -1.2197  -22.0981  -47.7135 C.3       11 UNK         0.1400 
     19 N          -0.2277  -22.4094  -46.6891 N.am      11 UNK        -0.5000 
     20 C           0.0739  -23.6365  -46.2554 C.2       10 UNK         0.5000 
     21 O          -0.4399  -24.6654  -46.6940 O.2       10 UNK        -0.5000 
     22 CA          1.1240  -23.7226  -45.1344 C.3       10 UNK         0.1400 
     23 CB          2.5220  -23.9236  -45.7370 C.3       10 UNK        -0.1800 
     24 N           1.1378  -22.5406  -44.2683 N.am      10 UNK        -0.5000 
     25 C           0.1137  -22.1209  -43.5148 C.2       9 UNK         0.5000 
     26 O          -0.9752  -22.6932  -43.4660 O.2       9 UNK        -0.5000 
     27 CA          0.3163  -20.8218  -42.7218 C.3       9 UNK         0.1400 
     28 CB          1.2196  -21.0380  -41.4939 C.3       9 UNK        -0.1800 
     29 N           0.7696  -19.6910  -43.5373 N.am      9 UNK        -0.5000 
     30 C           1.9505  -19.4665  -44.1326 C.2       8 UNK         0.5000 
     31 O           2.8744  -20.2803  -44.1620 O.2       8 UNK        -0.5000 
     32 CA          2.1276  -18.0816  -44.7936 C.3       8 UNK         0.1400 
     33 CB          1.7753  -18.1468  -46.2875 C.3       8 UNK        -0.1800 
     34 N           1.3142  -17.0454  -44.1491 N.am      8 UNK        -0.5000 
     35 C           1.4938  -16.6052  -42.8935 C.2       7 UNK         0.5000 
     36 O           2.4585  -16.9106  -42.1917 O.2       7 UNK        -0.5000 
     37 CA          0.3719  -15.7371  -42.2957 C.3       7 UNK         0.1400 
     38 CB          0.5675  -14.2539  -42.6283 C.3       7 UNK        -0.1800 
     39 N          -0.9441  -16.1728  -42.7621 N.am      7 UNK        -0.5000 
     40 C          -1.6107  -17.2212  -42.2595 C.2       6 UNK         0.5000 
     41 O          -1.2121  -17.8935  -41.3092 O.2       6 UNK        -0.5000 
     42 CA         -2.9342  -17.6019  -42.9458 C.3       6 UNK         0.1400 
     43 CB         -4.1196  -16.9114  -42.2558 C.3       6 UNK        -0.1800 
     44 N          -2.9504  -17.2688  -44.3705 N.am      6 UNK        -0.5000 
     45 C          -2.2744  -17.9287  -45.3216 C.2       5 UNK         0.5000 
     46 O          -1.6154  -18.9471  -45.1109 O.2       5 UNK        -0.5000 
     47 CA         -2.3328  -17.3351  -46.7433 C.3       5 UNK         0.1400 
     48 CB         -3.4900  -17.9696  -47.5294 C.3       5 UNK        -0.1800 
     49 N          -2.4832  -15.8763  -46.7504 N.am      5 UNK        -0.5000 
     50 C          -1.5706  -15.0173  -46.2765 C.2       4 UNK         0.5000 
     51 O          -0.4908  -15.3648  -45.7939 O.2       4 UNK        -0.5000 
     52 CA         -1.9902  -13.5417  -46.2382 C.3       4 UNK         0.1400 
     53 CB         -2.6340  -13.2170  -44.8808 C.3       4 UNK        -0.1800 
     54 N          -0.8448  -12.6571  -46.4316 N.am      4 UNK        -0.5000 
     55 C          -0.5116  -12.0860  -47.5917 C.2       3 UNK         0.5000 
     56 O          -1.1127  -12.2917  -48.6460 O.2       3 UNK        -0.5000 
     57 CA          0.6687  -11.0946  -47.5932 C.3       3 UNK         0.1400 
     58 CB          0.2143   -9.7036  -47.1118 C.3       3 UNK        -0.1800 
     59 N           1.8787  -11.5285  -46.8836 N.am      3 UNK        -0.5000 
     60 C           2.0791  -11.7514  -45.5757 C.2       2 UNK         0.5000 
     61 O           1.1929  -11.6823  -44.7235 O.2       2 UNK        -0.5000 
     62 CA          3.5351  -12.0664  -45.1641 C.3       2 UNK         0.1400 
     63 CB          3.6553  -12.8475  -43.8400 C.3       2 UNK        -0.1800 
     64 N           4.3019  -12.7004  -46.2428 N.am      2 UNK        -0.5000 
     65 C           4.1406  -13.9281  -46.7569 C.2       1 UNK         0.5000 
     66 O           3.3854  -14.7753  -46.2843 O.2       1 UNK        -0.5000 
     67 C          -2.6455  -22.2872  -47.1670 C.2       11 UNK         0.5000 
     68 O          -3.4422  -22.9870  -47.7884 O.2       11 UNK        -0.5000 
     69 N          -2.9306  -21.7256  -45.9822 N.am      12 UNK        -0.5000 
     70 CA         -4.2066  -21.9080  -45.2815 C.3       12 UNK         0.1400 
     71 CB         -4.2838  -20.9469  -44.0888 C.3       12 UNK        -0.1800 
     72 C          -4.4483  -23.3614  -44.8292 C.2       12 UNK         0.5000 
     73 O          -5.5883  -23.8254  -44.8602 O.2       12 UNK        -0.5000 
     74 N          -3.3694  -24.0631  -44.4558 N.am      13 UNK        -0.5000 
     75 CA         -3.3723  -25.4894  -44.1226 C.3       13 UNK         0.1400 
     76 CB         -2.0726  -25.8232  -43.3736 C.3       13 UNK        -0.1800 
     77 C          -3.5303  -26.4145  -45.3485 C.2       13 UNK         0.5000 
     78 O          -3.7839  -27.6055  -45.1649 O.2       13 UNK        -0.5000 
     79 N          -3.3564  -25.8660  -46.5615 N.am      14 UNK        -0.5000 
     80 CA         -3.3688  -26.5463  -47.8613 C.3       14 UNK         0.1400 
     81 CB         -4.7693  -27.1082  -48.1808 C.3       14 UNK        -0.1800 
     82 C          -2.2394  -27.5881  -48.0199 C.2       14 UNK         0.5000 
     83 O          -2.3975  -28.5703  -48.7474 O.2       14 UNK        -0.5000 
     84 N          -1.1067  -27.3387  -47.3498 N.am      15 UNK        -0.5000 
     85 CA          0.1592  -28.0397  -47.5585 C.3       15 UNK         0.1400 
     86 CB          1.0158  -27.9250  -46.2881 C.3       15 UNK        -0.1800 
     87 C           0.8976  -27.4573  -48.7781 C.2       15 UNK         0.5000 
     88 O           1.5134  -28.2064  -49.5375 O.2       15 UNK        -0.5000 
     89 N           0.7804  -26.1348  -48.9547 N.am      16 UNK        -0.5000 
     90 CA          1.1340  -25.3995  -50.1657 C.3       16 UNK         0.1400 
     91 CB          1.8263  -24.0876  -49.7525 C.3       16 UNK        -0.1800 
     92 C          -0.1415  -25.1762  -51.0088 C.2       16 UNK         0.5000 
     93 O          -1.0887  -25.9601  -50.9029 O.2       16 UNK        -0.5000 
     94 N          -0.1627  -24.1204  -51.8355 N.am      17 UNK        -0.5000 
     95 CA         -1.3389  -23.6958  -52.6008 C.3       17 UNK         0.1400 
     96 CB         -0.9505  -22.5506  -53.5486 C.3       17 UNK        -0.1800 
     97 C          -2.4752  -23.2689  -51.6537 C.2       17 UNK         0.5000 
     98 O          -2.2530  -22.4071  -50.8032 O.2       17 UNK        -0.5000 
     99 N          -3.6488  -23.8962  -51.7988 N.am      18 UNK        -0.5000 
    100 CA        -4.7762  -23.8749  -50.8593 C.3       18 UNK         0.1400 
    101 CB        -5.6975  -25.0633  -51.1909 C.3       18 UNK        -0.1800 
    102 C         -5.5480  -22.5366  -50.7737 C.2       18 UNK         0.5000 
    103 O         -6.7788  -22.5373  -50.8318 O.2       18 UNK        -0.5000 
    104 N         -4.8201  -21.4176  -50.6586 N.am      19 UNK        -0.5000 
    105 CA        -5.2473  -20.0188  -50.4909 C.3       19 UNK         0.1400 
    106 CB        -6.0355  -19.8434  -49.1802 C.3       19 UNK        -0.1800 
    107 C         -6.0175  -19.4068  -51.6815 C.2       19 UNK         0.5000 
    108 O         -5.8639  -18.2144  -51.9503 O.2       19 UNK        -0.5000 
    109 N         -6.7975  -20.2268  -52.3967 N.am      20 UNK        -0.5000 
    110 CA        -7.6339  -19.8811  -53.5500 C.3       20 UNK         0.1400 
    111 CB        -8.4085  -21.1336  -53.9867 C.3       20 UNK        -0.1800 
    112 C         -6.8691  -19.2788  -54.7448 C.2       20 UNK         0.5000 
    113 O         -7.4806  -18.6009  -55.5715 O.2       20 UNK        -0.5000 
    114 N         -5.5458  -19.4896  -54.7922 N.am      21 UNK        -0.5000 
    115 CA        -4.6102  -18.8821  -55.7417 C.3       21 UNK         0.1400 
    116 CB        -3.1987  -19.4171  -55.4523 C.3       21 UNK        -0.1800 
    117 C         -4.6152  -17.3380  -55.7249 C.2       21 UNK         0.5000 
    118 O         -4.3223  -16.7261  -56.7530 O.2       21 UNK        -0.5000 
    119 N         -4.9728  -16.7422  -54.5790 N.am      22 UNK        -0.5000 
    120 CA        -5.1829  -15.2944  -54.4168 C.3       22 UNK         0.1400 
    121 C         -6.6118  -14.8129  -54.8121 C.2       22 UNK         0.5000 
    122 N         -7.5252  -15.6736  -55.2469 N.am      22 UNK        -0.7600 
    123 O         -6.8985  -13.6209  -54.7388 O.2       22 UNK        -0.5000 
    124 C124       -4.7970  -14.8141  -52.9944 C.3       23 UNK        -0.0398 
    125 S125       -3.0294  -15.0946  -52.6410 S.3       23 UNK        -0.2404 
    126 C126       -3.1105  -15.9206  -51.0249 C.3       23 UNK        -0.0205 
    127 H127        8.5017  -11.7004  -49.1039 H         1 UNK         0.0600 
    128 H128        8.7899  -13.0843  -48.0452 H         1 UNK         0.0600 
    129 H129        8.4583  -11.4951  -47.3494 H         1 UNK         0.0600 
    130 H130        7.0414  -14.4264  -47.8976 H         1 UNK         0.3000 
    131 H131        5.0980  -15.3466  -48.0125 H         1 UNK         0.0600 
    132 H132        4.8405  -13.6255  -50.1136 H         1 UNK         0.0800 
    133 H133        3.5165  -13.0229  -49.1770 H         1 UNK         0.0800 
    134 H134        1.5941  -15.1393  -48.1379 H         1 UNK         0.0800 
    135 H135        1.2197  -14.0010  -49.4140 H         1 UNK         0.0800 
    136 H136       -1.0341  -14.5055  -49.9921 H         1 UNK         0.1150 
    137 H137       -2.1482  -18.4636  -51.1931 H         1 UNK         0.1150 
    138 H138        1.7660  -17.7331  -49.6219 H         1 UNK         0.1150 
    139 H139       -0.5872  -20.2567  -51.1252 H         1 UNK         0.0800 
    140 H140        1.0804  -19.7647  -51.2981 H         1 UNK         0.0800 
    141 H141       -1.0851  -19.9303  -47.5152 H         1 UNK         0.0800 
    142 H142       -1.7838  -20.4537  -49.0289 H         1 UNK         0.0800 
    143 H143       -1.0936  -22.8182  -48.5242 H         1 UNK         0.0600 
    144 H144        0.2611  -21.6264  -46.2821 H         1 UNK         0.3000 
    145 H145        0.8844  -24.5907  -44.5184 H         1 UNK         0.0600 
    146 H146        3.2690  -24.0746  -44.9576 H         1 UNK         0.0600 
    147 H147        2.5490  -24.7991  -46.3871 H         1 UNK         0.0600 
    148 H148        2.8291  -23.0637  -46.3341 H         1 UNK         0.0600 
    149 H149        1.9788  -21.9693  -44.2704 H         1 UNK         0.3000 
    150 H150       -0.6677  -20.5314  -42.3501 H         1 UNK         0.0600 
    151 H151        0.8140  -21.8164  -40.8465 H         1 UNK         0.0600 
    152 H152        1.2950  -20.1270  -40.8997 H         1 UNK         0.0600 
    153 H153        2.2290  -21.3405  -41.7733 H         1 UNK         0.0600 
    154 H154        0.0595  -18.9870  -43.6911 H         1 UNK         0.3000 
    155 H155        3.1772  -17.7956  -44.7000 H         1 UNK         0.0600 
    156 H156        1.9264  -17.1817  -46.7709 H         1 UNK         0.0600 
    157 H157        0.7384  -18.4403  -46.4465 H         1 UNK         0.0600 
    158 H158        2.4032  -18.8718  -46.8068 H         1 UNK         0.0600 
    159 H159        0.5550  -16.6536  -44.6973 H         1 UNK         0.3000 
    160 H160        0.4104  -15.8404  -41.2090 H         1 UNK         0.0600 
    161 H161        0.6250  -14.0870  -43.7038 H         1 UNK         0.0600 
    162 H162        1.4886  -13.8801  -42.1825 H         1 UNK         0.0600 
    163 H163       -0.2474  -13.6466  -42.2348 H         1 UNK         0.0600 
    164 H164       -1.3109  -15.7044  -43.5770 H         1 UNK         0.3000 
    165 H165       -3.0559  -18.6800  -42.8347 H         1 UNK         0.0600 
    166 H166       -4.0609  -15.8257  -42.3427 H         1 UNK         0.0600 
    167 H167       -5.0677  -17.2331  -42.6871 H         1 UNK         0.0600 
    168 H168       -4.1485  -17.1549  -41.1928 H         1 UNK         0.0600 
    169 H169       -3.4903  -16.4606  -44.6407 H         1 UNK         0.3000 
    170 H170       -1.3957  -17.5757  -47.2490 H         1 UNK         0.0600 
    171 H171       -3.4119  -19.0568  -47.5362 H         1 UNK         0.0600 
    172 H172       -4.4583  -17.7174  -47.0956 H         1 UNK         0.0600 
    173 H173       -3.4926  -17.6392  -48.5671 H         1 UNK         0.0600 
    174 H174       -3.3526  -15.5168  -47.1171 H         1 UNK         0.3000 
    175 H175       -2.7343  -13.3669  -47.0183 H         1 UNK         0.0600 
    176 H176       -2.9743  -12.1818  -44.8472 H         1 UNK         0.0600 
    177 H177       -3.5031  -13.8485  -44.6931 H         1 UNK         0.0600 
    178 H178       -1.9356  -13.3625  -44.0565 H         1 UNK         0.0600 
    179 H179       -0.2591  -12.4665  -45.6228 H         1 UNK         0.3000 
    180 H180        0.9735  -10.9880  -48.6356 H         1 UNK         0.0600 
    181 H181       -0.6244   -9.3405  -47.7072 H         1 UNK         0.0600 
    182 H182       -0.1093   -9.7178  -46.0706 H         1 UNK         0.0600 
    183 H183        1.0176   -8.9726  -47.2035 H         1 UNK         0.0600 
    184 H184        2.6921  -11.6253  -47.4731 H         1 UNK         0.3000 
    185 H185        4.0044  -11.0951  -45.0021 H         1 UNK         0.0600 
    186 H186        3.1718  -13.8221  -43.8955 H         1 UNK         0.0600 
    187 H187        4.6996  -13.0088  -43.5732 H         1 UNK         0.0600 
    188 H188        3.1939  -12.2973  -43.0195 H         1 UNK         0.0600 
    189 H189        4.9446  -12.0900  -46.7408 H         1 UNK         0.3000 
    190 H190       -2.2309  -21.1660  -45.5121 H         1 UNK         0.3000 
    191 H191       -5.0097  -21.6479  -45.9745 H         1 UNK         0.0600 
    192 H192       -5.1842  -21.1214  -43.4984 H         1 UNK         0.0600 
    193 H193       -4.3220  -19.9137  -44.4303 H         1 UNK         0.0600 
    194 H194       -3.4258  -21.0594  -43.4249 H         1 UNK         0.0600 
    195 H195       -2.4797  -23.5799  -44.3723 H         1 UNK         0.3000 
    196 H196       -4.2125  -25.6848  -43.4532 H         1 UNK         0.0600 
    197 H197       -2.0626  -26.8645  -43.0493 H         1 UNK         0.0600 
    198 H198       -1.9585  -25.2049  -42.4831 H         1 UNK         0.0600 
    199 H199       -1.1975  -25.6688  -44.0046 H         1 UNK         0.0600 
    200 H200       -3.1570  -24.8746  -46.6034 H         1 UNK         0.3000 
    201 H201       -3.1527  -25.7737  -48.6005 H         1 UNK         0.0600 
    202 H202       -5.5318  -26.3341  -48.0944 H         1 UNK         0.0600 
    203 H203       -5.0416  -27.9257  -47.5131 H         1 UNK         0.0600 
    204 H204       -4.8133  -27.4931  -49.2000 H         1 UNK         0.0600 
    205 H205       -1.0555  -26.4722  -46.8227 H         1 UNK         0.3000 
    206 H206       -0.0366  -29.0973  -47.7475 H         1 UNK         0.0600 
    207 H207        0.5098  -28.3718  -45.4321 H         1 UNK         0.0600 
    208 H208        1.9675  -28.4433  -46.4117 H         1 UNK         0.0600 
    209 H209        1.2362  -26.8867  -46.0401 H         1 UNK         0.0600 
    210 H210        0.2321  -25.6201  -48.2740 H         1 UNK         0.3000 
    211 H211        1.8310  -25.9809  -50.7721 H         1 UNK         0.0600 
    212 H212        1.1468  -23.4313  -49.2111 H         1 UNK         0.0600 
    213 H213        2.2042  -23.5399  -50.6160 H         1 UNK         0.0600 
    214 H214        2.6800  -24.2838  -49.1035 H         1 UNK         0.0600 
    215 H215        0.6332  -23.5006  -51.8549 H         1 UNK         0.3000 
    216 H216       -1.6744  -24.5412  -53.2051 H         1 UNK         0.0600 
    217 H217       -1.8125  -22.2118  -54.1245 H         1 UNK         0.0600 
    218 H218       -0.1899  -22.8702  -54.2610 H         1 UNK         0.0600 
    219 H219       -0.5595  -21.6898  -53.0066 H         1 UNK         0.0600 
    220 H220       -3.7354  -24.5616  -52.5530 H         1 UNK         0.3000 
    221 H221       -4.3722  -24.0594  -49.8650 H         1 UNK         0.0600 
    222 H222       -6.1628  -24.9493  -52.1707 H         1 UNK         0.0600 
    223 H223       -5.1462  -26.0036  -51.1887 H         1 UNK         0.0600 
    224 H224       -6.4966  -25.1597  -50.4546 H         1 UNK         0.0600 
    225 H225       -3.8117  -21.5662  -50.6513 H         1 UNK         0.3000 
    226 H226       -4.3248  -19.4448  -50.3953 H         1 UNK         0.0600 
    227 H227       -5.4785  -20.2355  -48.3292 H         1 UNK         0.0600 
    228 H228       -6.2341  -18.7891  -48.9838 H         1 UNK         0.0600 
    229 H229       -6.9974  -20.3556  -49.2133 H         1 UNK         0.0600 
    230 H230       -6.8846  -21.1776  -52.0456 H         1 UNK         0.3000 
    231 H231       -8.3524  -19.1296  -53.2175 H         1 UNK         0.0600 
    232 H232       -9.0713  -20.9138  -54.8248 H         1 UNK         0.0600 
    233 H233       -9.0283  -21.5167  -53.1756 H         1 UNK         0.0600 
    234 H234       -7.7349  -21.9324  -54.2995 H         1 UNK         0.0600 
    235 H235       -5.1406  -20.0578  -54.0639 H         1 UNK         0.3000 
    236 H236       -4.9031  -19.2004  -56.7441 H         1 UNK         0.0600 
    237 H237       -2.8685  -19.1571  -54.4455 H         1 UNK         0.0600 
    238 H238       -3.1596  -20.5020  -55.5505 H         1 UNK         0.0600 
    239 H239       -2.4723  -19.0028  -56.1528 H         1 UNK         0.0600 
    240 H240       -5.2085  -17.3158  -53.7773 H         1 UNK         0.3000 
    241 H241       -4.5170  -14.7779  -55.1107 H         1 UNK         0.0600 
    242 H242       -7.3245  -16.6633  -55.3444 H         1 UNK         0.3800 
    243 H243       -8.4373  -15.3299  -55.5025 H         1 UNK         0.3800 
    244 H244       -4.9817  -13.7446  -52.8808 H         1 UNK         0.0800 
    245 H245       -5.4165  -15.3125  -52.2469 H         1 UNK         0.0800 
    246 H246       -3.4850  -15.2221  -50.2751 H         1 UNK         0.0800 
    247 H247       -3.8231  -16.7446  -51.0692 H         1 UNK         0.0800 
@<TRIPOS>BOND
     1    1    2 1    
     2    1  127 1    
     3    1  128 1    
     4    1  129 1    
     5    2    3 2    
     6    2    4 am   BACKBONE|DICT|INTERRES
     7    4    5 1    
     8    4  130 1    
     9    5    6 1    
    10    5   65 1    
    11    5  131 1    
    12    6    7 1    
    13    6  132 1    
    14    6  133 1    
    15    7    8 1    
    16    8    9 1    
    17    8  134 1    
    18    8  135 1    
    19    9   10 ar   
    20    9   14 ar   
    21   10   11 ar   
    22   10  136 1    
    23   11   12 ar   
    24   11  126 1    
    25   12   13 ar   
    26   12  137 1    
    27   13   14 ar   
    28   13   15 1    
    29   14  138 1    
    30   15   16 1    
    31   15  139 1    
    32   15  140 1    
    33   16   17 1    
    34   17   18 1    
    35   17  141 1    
    36   17  142 1    
    37   18   19 1    
    38   18   67 1    
    39   18  143 1    
    40   19   20 am   BACKBONE|DICT|INTERRES
    41   19  144 1    
    42   20   21 2    
    43   20   22 1    
    44   22   23 1    
    45   22   24 1    
    46   22  145 1    
    47   23  146 1    
    48   23  147 1    
    49   23  148 1    
    50   24   25 am   BACKBONE|DICT|INTERRES
    51   24  149 1    
    52   25   26 2    
    53   25   27 1    
    54   27   28 1    
    55   27   29 1    
    56   27  150 1    
    57   28  151 1    
    58   28  152 1    
    59   28  153 1    
    60   29   30 am   BACKBONE|DICT|INTERRES
    61   29  154 1    
    62   30   31 2    
    63   30   32 1    
    64   32   33 1    
    65   32   34 1    
    66   32  155 1    
    67   33  156 1    
    68   33  157 1    
    69   33  158 1    
    70   34   35 am   BACKBONE|DICT|INTERRES
    71   34  159 1    
    72   35   36 2    
    73   35   37 1    
    74   37   38 1    
    75   37   39 1    
    76   37  160 1    
    77   38  161 1    
    78   38  162 1    
    79   38  163 1    
    80   39   40 am   BACKBONE|DICT|INTERRES
    81   39  164 1    
    82   40   41 2    
    83   40   42 1    
    84   42   43 1    
    85   42   44 1    
    86   42  165 1    
    87   43  166 1    
    88   43  167 1    
    89   43  168 1    
    90   44   45 am   BACKBONE|DICT|INTERRES
    91   44  169 1    
    92   45   46 2    
    93   45   47 1    
    94   47   48 1    
    95   47   49 1    
    96   47  170 1    
    97   48  171 1    
    98   48  172 1    
    99   48  173 1    
   100   49   50 am   BACKBONE|DICT|INTERRES
   101   49  174 1    
   102   50   51 2    
   103   50   52 1    
   104   52   53 1    
   105   52   54 1    
   106   52  175 1    
   107   53  176 1    
   108   53  177 1    
   109   53  178 1    
   110   54   55 am   BACKBONE|DICT|INTERRES
   111   54  179 1    
   112   55   56 2    
   113   55   57 1    
   114   57   58 1    
   115   57   59 1    
   116   57  180 1    
   117   58  181 1    
   118   58  182 1    
   119   58  183 1    
   120   59   60 am   BACKBONE|DICT|INTERRES
   121   59  184 1    
   122   60   61 2    
   123   60   62 1    
   124   62   63 1    
   125   62   64 1    
   126   62  185 1    
   127   63  186 1    
   128   63  187 1    
   129   63  188 1    
   130   64   65 am   BACKBONE|DICT|INTERRES
   131   64  189 1    
   132   65   66 2    
   133   67   68 2    
   134   67   69 am   BACKBONE|DICT|INTERRES
   135   69   70 1    
   136   69  190 1    
   137   70   71 1    
   138   70   72 1    
   139   70  191 1    
   140   71  192 1    
   141   71  193 1    
   142   71  194 1    
   143   72   73 2    
   144   72   74 am   BACKBONE|DICT|INTERRES
   145   74   75 1    
   146   74  195 1    
   147   75   76 1    
   148   75   77 1    
   149   75  196 1    
   150   76  197 1    
   151   76  198 1    
   152   76  199 1    
   153   77   78 2    
   154   77   79 am   BACKBONE|DICT|INTERRES
   155   79   80 1    
   156   79  200 1    
   157   80   81 1    
   158   80   82 1    
   159   80  201 1    
   160   81  202 1    
   161   81  203 1    
   162   81  204 1    
   163   82   83 2    
   164   82   84 am   BACKBONE|DICT|INTERRES
   165   84   85 1    
   166   84  205 1    
   167   85   86 1    
   168   85   87 1    
   169   85  206 1    
   170   86  207 1    
   171   86  208 1    
   172   86  209 1    
   173   87   88 2    
   174   87   89 am   BACKBONE|DICT|INTERRES
   175   89   90 1    
   176   89  210 1    
   177   90   91 1    
   178   90   92 1    
   179   90  211 1    
   180   91  212 1    
   181   91  213 1    
   182   91  214 1    
   183   92   93 2    
   184   92   94 am   BACKBONE|DICT|INTERRES
   185   94   95 1    
   186   94  215 1    
   187   95   96 1    
   188   95   97 1    
   189   95  216 1    
   190   96  217 1    
   191   96  218 1    
   192   96  219 1    
   193   97   98 2    
   194   97   99 am   BACKBONE|DICT|INTERRES
   195   99  100 1    
   196   99  220 1    
   197  100  101 1    
   198  100  102 1    
   199  100  221 1    
   200  101  222 1    
   201  101  223 1    
   202  101  224 1    
   203  102  103 2    
   204  102  104 am   BACKBONE|DICT|INTERRES
   205  104  105 1    
   206  104  225 1    
   207  105  106 1    
   208  105  107 1    
   209  105  226 1    
   210  106  227 1    
   211  106  228 1    
   212  106  229 1    
   213  107  108 2    
   214  107  109 am   BACKBONE|DICT|INTERRES
   215  109  110 1    
   216  109  230 1    
   217  110  111 1    
   218  110  112 1    
   219  110  231 1    
   220  111  232 1    
   221  111  233 1    
   222  111  234 1    
   223  112  113 2    
   224  112  114 am   BACKBONE|DICT|INTERRES
   225  114  115 1    
   226  114  235 1    
   227  115  116 1    
   228  115  117 1    
   229  115  236 1    
   230  116  237 1    
   231  116  238 1    
   232  116  239 1    
   233  117  118 2    
   234  117  119 am   BACKBONE|DICT|INTERRES
   235  119  120 1    
   236  119  240 1    
   237  120  121 1    
   238  120  124 1    
   239  120  241 1    
   240  121  122 am   BACKBONE|DICT|INTERRES
   241  121  123 2    
   242  122  242 1    
   243  122  243 1    
   244  124  125 1    
   245  124  244 1    
   246  124  245 1    
   247  125  126 1    
   248  126  246 1    
   249  126  247 1    
@<TRIPOS>SUBSTRUCTURE
     1 UNK         1 GROUP             0       ****    0 ROOT    
