@<TRIPOS>MOLECULE
3R540
247   249    1
SMALL
USER_CHARGES


@<TRIPOS>ATOM
      1 CA         -3.4231  -11.6499  -45.6643 C.3       0 UNK        -0.1800 
      2 C          -2.1581  -10.8695  -45.3377 C.2       0 UNK         0.5000 
      3 O          -2.1953   -9.9434  -44.5267 O.2       0 UNK        -0.5000 
      4 N          -1.0324  -11.2470  -45.9537 N.am      1 UNK        -0.5000 
      5 CA          0.3029  -10.6718  -45.7577 C.3       1 UNK         0.1400 
      6 C6          1.2030  -10.8855  -47.0083 C.3       23 UNK        -0.0398 
      7 S7          1.2903  -12.6200  -47.5886 S.3       23 UNK        -0.2404 
      8 C8          0.2279  -12.5676  -49.0639 C.3       23 UNK        -0.0205 
      9 C9         -0.2589  -13.9638  -49.4083 C.ar      23 UNK        -0.0193 
     10 C10         0.4788  -14.7818  -50.2697 C.ar      23 UNK        -0.1150 
     11 C11         0.0554  -16.0869  -50.5373 C.ar      23 UNK        -0.0193 
     12 C12        -1.1136  -16.5669  -49.9435 C.ar      23 UNK        -0.1150 
     13 C13        -1.8539  -15.7606  -49.0760 C.ar      23 UNK        -0.0193 
     14 C14        -1.4299  -14.4541  -48.8236 C.ar      23 UNK        -0.1150 
     15 C15        -3.0449  -16.3370  -48.3305 C.3       23 UNK        -0.0205 
     16 S16        -4.3012  -17.0527  -49.4324 S.3       23 UNK        -0.2404 
     17 C17        -5.1958  -18.1083  -48.2422 C.3       23 UNK        -0.0398 
     18 CA         -4.7396  -19.5879  -48.3126 C.3       11 UNK         0.1400 
     19 N          -3.3270  -19.7516  -47.9500 N.am      11 UNK        -0.5000 
     20 C          -2.5237  -20.7136  -48.4192 C.2       10 UNK         0.5000 
     21 O          -2.8677  -21.5175  -49.2807 O.2       10 UNK        -0.5000 
     22 CA         -1.1124  -20.8277  -47.8126 C.3       10 UNK         0.1400 
     23 CB         -0.0488  -20.4478  -48.8543 C.3       10 UNK        -0.1800 
     24 N          -0.9068  -20.0495  -46.5831 N.am      10 UNK        -0.5000 
     25 C          -1.4968  -20.3142  -45.4062 C.2       9 UNK         0.5000 
     26 O          -2.3788  -21.1637  -45.2774 O.2       9 UNK        -0.5000 
     27 CA         -1.0534  -19.5140  -44.1652 C.3       9 UNK         0.1400 
     28 CB         -0.0446  -20.3338  -43.3472 C.3       9 UNK        -0.1800 
     29 N          -0.4676  -18.2111  -44.4736 N.am      9 UNK        -0.5000 
     30 C          -1.1427  -17.1643  -44.9649 C.2       8 UNK         0.5000 
     31 O          -2.3615  -17.1653  -45.1387 O.2       8 UNK        -0.5000 
     32 CA         -0.3181  -15.9214  -45.3612 C.3       8 UNK         0.1400 
     33 CB         -0.2931  -14.9021  -44.2149 C.3       8 UNK        -0.1800 
     34 N           1.0573  -16.2171  -45.7768 N.am      8 UNK        -0.5000 
     35 C           1.3939  -17.0167  -46.8003 C.2       7 UNK         0.5000 
     36 O           0.5801  -17.6485  -47.4687 O.2       7 UNK        -0.5000 
     37 CA          2.8921  -17.1999  -47.0762 C.3       7 UNK         0.1400 
     38 CB          3.4820  -15.9691  -47.7832 C.3       7 UNK        -0.1800 
     39 N           3.6088  -17.4628  -45.8299 N.am      7 UNK        -0.5000 
     40 C           3.6719  -18.6660  -45.2410 C.2       6 UNK         0.5000 
     41 O           3.2190  -19.6954  -45.7420 O.2       6 UNK        -0.5000 
     42 CA          4.3359  -18.7383  -43.8510 C.3       6 UNK         0.1400 
     43 CB          5.8354  -19.0427  -43.9867 C.3       6 UNK        -0.1800 
     44 N           4.1658  -17.5195  -43.0587 N.am      6 UNK        -0.5000 
     45 C           2.9936  -17.0705  -42.5889 C.2       5 UNK         0.5000 
     46 O           1.9254  -17.6621  -42.7403 O.2       5 UNK        -0.5000 
     47 CA          3.0108  -15.7052  -41.8725 C.3       5 UNK         0.1400 
     48 CB          3.2542  -15.8901  -40.3678 C.3       5 UNK        -0.1800 
     49 N           3.9855  -14.7453  -42.4032 N.am      5 UNK        -0.5000 
     50 C           4.0798  -14.3556  -43.6820 C.2       4 UNK         0.5000 
     51 O           3.3967  -14.8330  -44.5892 O.2       4 UNK        -0.5000 
     52 CA          5.0771  -13.2222  -43.9673 C.3       4 UNK         0.1400 
     53 CB          5.2703  -12.9728  -45.4743 C.3       4 UNK        -0.1800 
     54 N           4.5412  -12.0149  -43.3541 N.am      4 UNK        -0.5000 
     55 C           5.0449  -11.3653  -42.2984 C.2       3 UNK         0.5000 
     56 O           6.1149  -11.6571  -41.7632 O.2       3 UNK        -0.5000 
     57 CA          4.1974  -10.2088  -41.7233 C.3       3 UNK         0.1400 
     58 CB          4.6586   -8.8644  -42.3060 C.3       3 UNK        -0.1800 
     59 N           2.7603  -10.3654  -41.9687 N.am      3 UNK        -0.5000 
     60 C           1.9960  -11.3353  -41.4469 C.2       2 UNK         0.5000 
     61 O           2.3971  -12.1305  -40.5964 O.2       2 UNK        -0.5000 
     62 CA          0.5510  -11.4681  -41.9748 C.3       2 UNK         0.1400 
     63 CB         -0.4411  -10.8512  -40.9775 C.3       2 UNK        -0.1800 
     64 N           0.2836  -10.9103  -43.3081 N.am      2 UNK        -0.5000 
     65 C           0.9363  -11.1898  -44.4452 C.2       1 UNK         0.5000 
     66 O           1.9741  -11.8461  -44.4781 O.2       1 UNK        -0.5000 
     67 C          -5.6622  -20.4984  -47.4672 C.2       11 UNK         0.5000 
     68 O          -6.8726  -20.4839  -47.6919 O.2       11 UNK        -0.5000 
     69 N          -5.1017  -21.2714  -46.5245 N.am      12 UNK        -0.5000 
     70 CA         -5.8257  -22.2273  -45.6882 C.3       12 UNK         0.1400 
     71 CB         -5.9965  -21.6476  -44.2748 C.3       12 UNK        -0.1800 
     72 C          -5.1091  -23.5855  -45.6460 C.2       12 UNK         0.5000 
     73 O          -5.7507  -24.6126  -45.8750 O.2       12 UNK        -0.5000 
     74 N          -3.7972  -23.5737  -45.3698 N.am      13 UNK        -0.5000 
     75 CA         -2.9496  -24.7575  -45.2096 C.3       13 UNK         0.1400 
     76 CB         -1.5293  -24.3080  -44.8346 C.3       13 UNK        -0.1800 
     77 C          -2.9130  -25.6447  -46.4659 C.2       13 UNK         0.5000 
     78 O          -2.8465  -25.1186  -47.5779 O.2       13 UNK        -0.5000 
     79 N          -2.9590  -26.9692  -46.2594 N.am      14 UNK        -0.5000 
     80 CA         -2.9664  -28.0192  -47.2880 C.3       14 UNK         0.1400 
     81 CB         -1.5897  -28.1045  -47.9800 C.3       14 UNK        -0.1800 
     82 C          -4.1371  -27.8738  -48.2854 C.2       14 UNK         0.5000 
     83 O          -3.9436  -28.0195  -49.4940 O.2       14 UNK        -0.5000 
     84 N          -5.3245  -27.5445  -47.7513 N.am      15 UNK        -0.5000 
     85 CA         -6.5595  -27.2231  -48.4780 C.3       15 UNK         0.1400 
     86 CB         -7.1166  -28.4709  -49.1955 C.3       15 UNK        -0.1800 
     87 C          -6.3629  -26.0199  -49.4221 C.2       15 UNK         0.5000 
     88 O          -6.6777  -26.1005  -50.6101 O.2       15 UNK        -0.5000 
     89 N          -5.7835  -24.9446  -48.8701 N.am      16 UNK        -0.5000 
     90 CA         -5.3339  -23.7306  -49.5589 C.3       16 UNK         0.1400 
     91 CB         -6.5420  -22.9074  -50.0488 C.3       16 UNK        -0.1800 
     92 C          -4.3169  -24.0380  -50.6789 C.2       16 UNK         0.5000 
     93 O          -4.4717  -23.5619  -51.8043 O.2       16 UNK        -0.5000 
     94 N          -3.3273  -24.8814  -50.3504 N.am      17 UNK        -0.5000 
     95 CA         -2.3084  -25.4575  -51.2322 C.3       17 UNK         0.1400 
     96 CB         -1.2567  -24.3927  -51.5950 C.3       17 UNK        -0.1800 
     97 C          -2.9320  -26.1390  -52.4675 C.2       17 UNK         0.5000 
     98 O          -2.6219  -25.7721  -53.6016 O.2       17 UNK        -0.5000 
     99 N          -3.8565  -27.0768  -52.2123 N.am      18 UNK        -0.5000 
    100 CA        -4.7023  -27.7706  -53.1921 C.3       18 UNK         0.1400 
    101 CB        -3.8625  -28.7603  -54.0253 C.3       18 UNK        -0.1800 
    102 C         -5.5267  -26.7924  -54.0609 C.2       18 UNK         0.5000 
    103 O         -5.6008  -26.9477  -55.2810 O.2       18 UNK        -0.5000 
    104 N         -6.1006  -25.7802  -53.3970 N.am      19 UNK        -0.5000 
    105 CA        -6.8847  -24.6589  -53.9236 C.3       19 UNK         0.1400 
    106 CB        -8.1765  -25.1666  -54.5969 C.3       19 UNK        -0.1800 
    107 C         -6.1101  -23.6674  -54.8223 C.2       19 UNK         0.5000 
    108 O         -6.7394  -22.7772  -55.3977 O.2       19 UNK        -0.5000 
    109 N         -4.7818  -23.8062  -54.9366 N.am      20 UNK        -0.5000 
    110 CA        -3.9430  -22.9553  -55.7826 C.3       20 UNK         0.1400 
    111 CB        -2.7858  -23.7926  -56.3483 C.3       20 UNK        -0.1800 
    112 C         -3.3887  -21.7218  -55.0476 C.2       20 UNK         0.5000 
    113 O         -3.0630  -20.7375  -55.7145 O.2       20 UNK        -0.5000 
    114 N         -3.2680  -21.7962  -53.7120 N.am      21 UNK        -0.5000 
    115 CA        -2.6072  -20.8433  -52.8110 C.3       21 UNK         0.1400 
    116 CB        -3.4622  -19.5713  -52.6296 C.3       21 UNK        -0.1800 
    117 C         -1.1512  -20.5590  -53.2398 C.2       21 UNK         0.5000 
    118 O         -0.2488  -21.3148  -52.8792 O.2       21 UNK        -0.5000 
    119 N         -0.9616  -19.5061  -54.0371 N.am      22 UNK        -0.5000 
    120 CA         0.2816  -19.1605  -54.7390 C.3       22 UNK         0.1400 
    121 C          0.0182  -18.6126  -56.1730 C.2       22 UNK         0.5000 
    122 N         -1.1383  -18.8698  -56.7756 N.am      22 UNK        -0.7600 
    123 O          0.8761  -17.9639  -56.7662 O.2       22 UNK        -0.5000 
    124 C124        1.2408  -18.2857  -53.8853 C.3       23 UNK        -0.0398 
    125 S125        0.4581  -16.7923  -53.1780 S.3       23 UNK        -0.2404 
    126 C126        0.8793  -17.0039  -51.4228 C.3       23 UNK        -0.0205 
    127 H127       -3.2338  -12.4491  -46.3812 H         1 UNK         0.0600 
    128 H128       -4.1756  -10.9844  -46.0872 H         1 UNK         0.0600 
    129 H129       -3.8317  -12.0969  -44.7580 H         1 UNK         0.0600 
    130 H130       -1.0525  -12.0412  -46.5763 H         1 UNK         0.3000 
    131 H131        0.1930   -9.5924  -45.6331 H         1 UNK         0.0600 
    132 H132        0.8401  -10.2585  -47.8235 H         1 UNK         0.0800 
    133 H133        2.2189  -10.5373  -46.8135 H         1 UNK         0.0800 
    134 H134       -0.6273  -11.9125  -48.8911 H         1 UNK         0.0800 
    135 H135        0.7843  -12.1385  -49.8985 H         1 UNK         0.0800 
    136 H136        1.3933  -14.4122  -50.7119 H         1 UNK         0.1150 
    137 H137       -1.4303  -17.5839  -50.1255 H         1 UNK         0.1150 
    138 H138       -1.9869  -13.8322  -48.1381 H         1 UNK         0.1150 
    139 H139       -2.6609  -17.1152  -47.6747 H         1 UNK         0.0800 
    140 H140       -3.5131  -15.5888  -47.6891 H         1 UNK         0.0800 
    141 H141       -6.2570  -18.0225  -48.4827 H         1 UNK         0.0800 
    142 H142       -5.0833  -17.7128  -47.2310 H         1 UNK         0.0800 
    143 H143       -4.8692  -19.9140  -49.3472 H         1 UNK         0.0600 
    144 H144       -2.9663  -19.1354  -47.2361 H         1 UNK         0.3000 
    145 H145       -0.9658  -21.8796  -47.5584 H         1 UNK         0.0600 
    146 H146        0.9578  -20.5298  -48.4438 H         1 UNK         0.0600 
    147 H147       -0.1016  -21.1046  -49.7239 H         1 UNK         0.0600 
    148 H148       -0.1848  -19.4279  -49.2117 H         1 UNK         0.0600 
    149 H149       -0.2464  -19.2806  -46.6481 H         1 UNK         0.3000 
    150 H150       -1.9400  -19.3511  -43.5491 H         1 UNK         0.0600 
    151 H151       -0.4459  -21.3173  -43.0985 H         1 UNK         0.0600 
    152 H152        0.1974  -19.8363  -42.4080 H         1 UNK         0.0600 
    153 H153        0.8865  -20.4861  -43.8951 H         1 UNK         0.0600 
    154 H154        0.5214  -18.0990  -44.2817 H         1 UNK         0.3000 
    155 H155       -0.8154  -15.4580  -46.2141 H         1 UNK         0.0600 
    156 H156       -1.2986  -14.5493  -43.9832 H         1 UNK         0.0600 
    157 H157        0.3068  -14.0324  -44.4777 H         1 UNK         0.0600 
    158 H158        0.1213  -15.3350  -43.3053 H         1 UNK         0.0600 
    159 H159        1.8005  -15.7262  -45.2877 H         1 UNK         0.3000 
    160 H160        3.0109  -18.0547  -47.7458 H         1 UNK         0.0600 
    161 H161        3.3682  -15.0608  -47.1915 H         1 UNK         0.0600 
    162 H162        2.9821  -15.7964  -48.7371 H         1 UNK         0.0600 
    163 H163        4.5436  -16.1035  -47.9902 H         1 UNK         0.0600 
    164 H164        3.9205  -16.6464  -45.3166 H         1 UNK         0.3000 
    165 H165        3.8679  -19.5609  -43.3060 H         1 UNK         0.0600 
    166 H166        6.3010  -19.1772  -43.0102 H         1 UNK         0.0600 
    167 H167        5.9976  -19.9615  -44.5520 H         1 UNK         0.0600 
    168 H168        6.3637  -18.2411  -44.5045 H         1 UNK         0.0600 
    169 H169        4.9917  -16.9636  -42.8932 H         1 UNK         0.3000 
    170 H170        2.0244  -15.2575  -41.9990 H         1 UNK         0.0600 
    171 H171        2.5286  -16.5809  -39.9361 H         1 UNK         0.0600 
    172 H172        4.2491  -16.2893  -40.1669 H         1 UNK         0.0600 
    173 H173        3.1566  -14.9441  -39.8343 H         1 UNK         0.0600 
    174 H174        4.5648  -14.2780  -41.7206 H         1 UNK         0.3000 
    175 H175        6.0402  -13.4965  -43.5327 H         1 UNK         0.0600 
    176 H176        5.9876  -12.1714  -45.6507 H         1 UNK         0.0600 
    177 H177        5.6479  -13.8660  -45.9732 H         1 UNK         0.0600 
    178 H178        4.3336  -12.6952  -45.9609 H         1 UNK         0.0600 
    179 H179        3.6147  -11.7577  -43.6914 H         1 UNK         0.3000 
    180 H180        4.3565  -10.1881  -40.6432 H         1 UNK         0.0600 
    181 H181        4.5057   -8.8204  -43.3852 H         1 UNK         0.0600 
    182 H182        5.7207   -8.7011  -42.1180 H         1 UNK         0.0600 
    183 H183        4.1183   -8.0320  -41.8549 H         1 UNK         0.0600 
    184 H184        2.3484   -9.7585  -42.6617 H         1 UNK         0.3000 
    185 H185        0.3434  -12.5382  -42.0383 H         1 UNK         0.0600 
    186 H186       -0.3044  -11.2664  -39.9780 H         1 UNK         0.0600 
    187 H187       -0.3150   -9.7703  -40.9050 H         1 UNK         0.0600 
    188 H188       -1.4720  -11.0503  -41.2715 H         1 UNK         0.0600 
    189 H189       -0.5765  -10.3794  -43.4022 H         1 UNK         0.3000 
    190 H190       -4.0994  -21.2208  -46.3812 H         1 UNK         0.3000 
    191 H191       -6.8198  -22.4129  -46.1006 H         1 UNK         0.0600 
    192 H192       -6.5889  -20.7328  -44.2961 H         1 UNK         0.0600 
    193 H193       -6.5108  -22.3534  -43.6212 H         1 UNK         0.0600 
    194 H194       -5.0354  -21.4117  -43.8159 H         1 UNK         0.0600 
    195 H195       -3.3278  -22.6811  -45.2343 H         1 UNK         0.3000 
    196 H196       -3.3581  -25.3391  -44.3809 H         1 UNK         0.0600 
    197 H197       -0.8772  -25.1660  -44.6668 H         1 UNK         0.0600 
    198 H198       -1.5305  -23.7161  -43.9191 H         1 UNK         0.0600 
    199 H199       -1.0798  -23.7028  -45.6231 H         1 UNK         0.0600 
    200 H200       -3.0155  -27.3015  -45.3065 H         1 UNK         0.3000 
    201 H201       -3.1309  -28.9641  -46.7683 H         1 UNK         0.0600 
    202 H202       -0.7959  -28.2750  -47.2529 H         1 UNK         0.0600 
    203 H203       -1.3507  -27.1912  -48.5241 H         1 UNK         0.0600 
    204 H204       -1.5573  -28.9297  -48.6924 H         1 UNK         0.0600 
    205 H205       -5.3656  -27.4130  -46.7500 H         1 UNK         0.3000 
    206 H206       -7.2922  -26.9142  -47.7310 H         1 UNK         0.0600 
    207 H207       -7.2573  -29.2963  -48.4978 H         1 UNK         0.0600 
    208 H208       -8.0863  -28.2585  -49.6471 H         1 UNK         0.0600 
    209 H209       -6.4557  -28.8142  -49.9919 H         1 UNK         0.0600 
    210 H210       -5.5589  -24.9918  -47.8821 H         1 UNK         0.3000 
    211 H211       -4.8061  -23.1405  -48.8114 H         1 UNK         0.0600 
    212 H212       -7.1047  -23.4299  -50.8209 H         1 UNK         0.0600 
    213 H213       -6.2197  -21.9523  -50.4653 H         1 UNK         0.0600 
    214 H214       -7.2283  -22.6929  -49.2303 H         1 UNK         0.0600 
    215 H215       -3.2622  -25.1592  -49.3732 H         1 UNK         0.3000 
    216 H216       -1.8075  -26.2403  -50.6626 H         1 UNK         0.0600 
    217 H217       -0.4279  -24.8344  -52.1490 H         1 UNK         0.0600 
    218 H218       -0.8425  -23.9236  -50.7024 H         1 UNK         0.0600 
    219 H219       -1.6811  -23.6070  -52.2174 H         1 UNK         0.0600 
    220 H220       -4.0286  -27.3163  -51.2374 H         1 UNK         0.3000 
    221 H221       -5.4243  -28.3505  -52.6154 H         1 UNK         0.0600 
    222 H222       -3.1404  -28.2452  -54.6597 H         1 UNK         0.0600 
    223 H223       -3.3135  -29.4484  -53.3825 H         1 UNK         0.0600 
    224 H224       -4.4989  -29.3618  -54.6753 H         1 UNK         0.0600 
    225 H225       -6.0059  -25.7800  -52.3843 H         1 UNK         0.3000 
    226 H226       -7.1833  -24.0818  -53.0491 H         1 UNK         0.0600 
    227 H227       -8.7257  -25.8394  -53.9382 H         1 UNK         0.0600 
    228 H228       -8.8440  -24.3392  -54.8403 H         1 UNK         0.0600 
    229 H229       -7.9680  -25.6994  -55.5248 H         1 UNK         0.0600 
    230 H230       -4.3145  -24.5382  -54.4145 H         1 UNK         0.3000 
    231 H231       -4.5291  -22.5957  -56.6309 H         1 UNK         0.0600 
    232 H232       -2.0986  -24.1131  -55.5651 H         1 UNK         0.0600 
    233 H233       -2.2072  -23.2164  -57.0713 H         1 UNK         0.0600 
    234 H234       -3.1530  -24.6829  -56.8593 H         1 UNK         0.0600 
    235 H235       -3.6250  -22.6279  -53.2476 H         1 UNK         0.3000 
    236 H236       -2.5475  -21.3351  -51.8407 H         1 UNK         0.0600 
    237 H237       -4.4187  -19.8143  -52.1666 H         1 UNK         0.0600 
    238 H238       -2.9632  -18.8548  -51.9754 H         1 UNK         0.0600 
    239 H239       -3.6718  -19.0705  -53.5749 H         1 UNK         0.0600 
    240 H240       -1.7642  -18.9518  -54.2990 H         1 UNK         0.3000 
    241 H241        0.8121  -20.0944  -54.9337 H         1 UNK         0.0600 
    242 H242       -1.2959  -18.5153  -57.7055 H         1 UNK         0.3800 
    243 H243       -1.8300  -19.4870  -56.3546 H         1 UNK         0.3800 
    244 H244        1.6400  -18.9008  -53.0783 H         1 UNK         0.0800 
    245 H245        2.1140  -17.9806  -54.4638 H         1 UNK         0.0800 
    246 H246        0.7116  -18.0407  -51.1265 H         1 UNK         0.0800 
    247 H247        1.9431  -16.8102  -51.2774 H         1 UNK         0.0800 
@<TRIPOS>BOND
     1    1    2 1    
     2    1  127 1    
     3    1  128 1    
     4    1  129 1    
     5    2    3 2    
     6    2    4 am   BACKBONE|DICT|INTERRES
     7    4    5 1    
     8    4  130 1    
     9    5    6 1    
    10    5   65 1    
    11    5  131 1    
    12    6    7 1    
    13    6  132 1    
    14    6  133 1    
    15    7    8 1    
    16    8    9 1    
    17    8  134 1    
    18    8  135 1    
    19    9   10 ar   
    20    9   14 ar   
    21   10   11 ar   
    22   10  136 1    
    23   11   12 ar   
    24   11  126 1    
    25   12   13 ar   
    26   12  137 1    
    27   13   14 ar   
    28   13   15 1    
    29   14  138 1    
    30   15   16 1    
    31   15  139 1    
    32   15  140 1    
    33   16   17 1    
    34   17   18 1    
    35   17  141 1    
    36   17  142 1    
    37   18   19 1    
    38   18   67 1    
    39   18  143 1    
    40   19   20 am   BACKBONE|DICT|INTERRES
    41   19  144 1    
    42   20   21 2    
    43   20   22 1    
    44   22   23 1    
    45   22   24 1    
    46   22  145 1    
    47   23  146 1    
    48   23  147 1    
    49   23  148 1    
    50   24   25 am   BACKBONE|DICT|INTERRES
    51   24  149 1    
    52   25   26 2    
    53   25   27 1    
    54   27   28 1    
    55   27   29 1    
    56   27  150 1    
    57   28  151 1    
    58   28  152 1    
    59   28  153 1    
    60   29   30 am   BACKBONE|DICT|INTERRES
    61   29  154 1    
    62   30   31 2    
    63   30   32 1    
    64   32   33 1    
    65   32   34 1    
    66   32  155 1    
    67   33  156 1    
    68   33  157 1    
    69   33  158 1    
    70   34   35 am   BACKBONE|DICT|INTERRES
    71   34  159 1    
    72   35   36 2    
    73   35   37 1    
    74   37   38 1    
    75   37   39 1    
    76   37  160 1    
    77   38  161 1    
    78   38  162 1    
    79   38  163 1    
    80   39   40 am   BACKBONE|DICT|INTERRES
    81   39  164 1    
    82   40   41 2    
    83   40   42 1    
    84   42   43 1    
    85   42   44 1    
    86   42  165 1    
    87   43  166 1    
    88   43  167 1    
    89   43  168 1    
    90   44   45 am   BACKBONE|DICT|INTERRES
    91   44  169 1    
    92   45   46 2    
    93   45   47 1    
    94   47   48 1    
    95   47   49 1    
    96   47  170 1    
    97   48  171 1    
    98   48  172 1    
    99   48  173 1    
   100   49   50 am   BACKBONE|DICT|INTERRES
   101   49  174 1    
   102   50   51 2    
   103   50   52 1    
   104   52   53 1    
   105   52   54 1    
   106   52  175 1    
   107   53  176 1    
   108   53  177 1    
   109   53  178 1    
   110   54   55 am   BACKBONE|DICT|INTERRES
   111   54  179 1    
   112   55   56 2    
   113   55   57 1    
   114   57   58 1    
   115   57   59 1    
   116   57  180 1    
   117   58  181 1    
   118   58  182 1    
   119   58  183 1    
   120   59   60 am   BACKBONE|DICT|INTERRES
   121   59  184 1    
   122   60   61 2    
   123   60   62 1    
   124   62   63 1    
   125   62   64 1    
   126   62  185 1    
   127   63  186 1    
   128   63  187 1    
   129   63  188 1    
   130   64   65 am   BACKBONE|DICT|INTERRES
   131   64  189 1    
   132   65   66 2    
   133   67   68 2    
   134   67   69 am   BACKBONE|DICT|INTERRES
   135   69   70 1    
   136   69  190 1    
   137   70   71 1    
   138   70   72 1    
   139   70  191 1    
   140   71  192 1    
   141   71  193 1    
   142   71  194 1    
   143   72   73 2    
   144   72   74 am   BACKBONE|DICT|INTERRES
   145   74   75 1    
   146   74  195 1    
   147   75   76 1    
   148   75   77 1    
   149   75  196 1    
   150   76  197 1    
   151   76  198 1    
   152   76  199 1    
   153   77   78 2    
   154   77   79 am   BACKBONE|DICT|INTERRES
   155   79   80 1    
   156   79  200 1    
   157   80   81 1    
   158   80   82 1    
   159   80  201 1    
   160   81  202 1    
   161   81  203 1    
   162   81  204 1    
   163   82   83 2    
   164   82   84 am   BACKBONE|DICT|INTERRES
   165   84   85 1    
   166   84  205 1    
   167   85   86 1    
   168   85   87 1    
   169   85  206 1    
   170   86  207 1    
   171   86  208 1    
   172   86  209 1    
   173   87   88 2    
   174   87   89 am   BACKBONE|DICT|INTERRES
   175   89   90 1    
   176   89  210 1    
   177   90   91 1    
   178   90   92 1    
   179   90  211 1    
   180   91  212 1    
   181   91  213 1    
   182   91  214 1    
   183   92   93 2    
   184   92   94 am   BACKBONE|DICT|INTERRES
   185   94   95 1    
   186   94  215 1    
   187   95   96 1    
   188   95   97 1    
   189   95  216 1    
   190   96  217 1    
   191   96  218 1    
   192   96  219 1    
   193   97   98 2    
   194   97   99 am   BACKBONE|DICT|INTERRES
   195   99  100 1    
   196   99  220 1    
   197  100  101 1    
   198  100  102 1    
   199  100  221 1    
   200  101  222 1    
   201  101  223 1    
   202  101  224 1    
   203  102  103 2    
   204  102  104 am   BACKBONE|DICT|INTERRES
   205  104  105 1    
   206  104  225 1    
   207  105  106 1    
   208  105  107 1    
   209  105  226 1    
   210  106  227 1    
   211  106  228 1    
   212  106  229 1    
   213  107  108 2    
   214  107  109 am   BACKBONE|DICT|INTERRES
   215  109  110 1    
   216  109  230 1    
   217  110  111 1    
   218  110  112 1    
   219  110  231 1    
   220  111  232 1    
   221  111  233 1    
   222  111  234 1    
   223  112  113 2    
   224  112  114 am   BACKBONE|DICT|INTERRES
   225  114  115 1    
   226  114  235 1    
   227  115  116 1    
   228  115  117 1    
   229  115  236 1    
   230  116  237 1    
   231  116  238 1    
   232  116  239 1    
   233  117  118 2    
   234  117  119 am   BACKBONE|DICT|INTERRES
   235  119  120 1    
   236  119  240 1    
   237  120  121 1    
   238  120  124 1    
   239  120  241 1    
   240  121  122 am   BACKBONE|DICT|INTERRES
   241  121  123 2    
   242  122  242 1    
   243  122  243 1    
   244  124  125 1    
   245  124  244 1    
   246  124  245 1    
   247  125  126 1    
   248  126  246 1    
   249  126  247 1    
@<TRIPOS>SUBSTRUCTURE
     1 UNK         1 GROUP             0       ****    0 ROOT    
