@<TRIPOS>MOLECULE
3R540
247   249    1
SMALL
USER_CHARGES


@<TRIPOS>ATOM
      1 CA         -0.1441  -11.7445  -44.7932 C.3       0 UNK        -0.1800 
      2 C           1.0193  -11.5075  -45.7448 C.2       0 UNK         0.5000 
      3 O           2.0928  -11.0885  -45.3120 O.2       0 UNK        -0.5000 
      4 N           0.8247  -11.7992  -47.0383 N.am      1 UNK        -0.5000 
      5 CA          1.8232  -11.6526  -48.1106 C.3       1 UNK         0.1400 
      6 C6          1.1874  -11.7635  -49.5192 C.3       23 UNK        -0.0398 
      7 S7          0.2030  -13.2800  -49.7846 S.3       23 UNK        -0.2404 
      8 C8          1.3739  -14.2955  -50.7362 C.3       23 UNK        -0.0205 
      9 C9          0.7539  -15.6305  -51.1122 C.ar      23 UNK        -0.0193 
     10 C10         0.2843  -15.8549  -52.4104 C.ar      23 UNK        -0.1150 
     11 C11        -0.2871  -17.0840  -52.7543 C.ar      23 UNK        -0.0193 
     12 C12        -0.3899  -18.0880  -51.7881 C.ar      23 UNK        -0.1150 
     13 C13         0.0638  -17.8700  -50.4860 C.ar      23 UNK        -0.0193 
     14 C14         0.6437  -16.6427  -50.1548 C.ar      23 UNK        -0.1150 
     15 C15        -0.1017  -18.9441  -49.4274 C.3       23 UNK        -0.0205 
     16 S16         1.3951  -19.9726  -49.2754 S.3       23 UNK        -0.2404 
     17 C17         1.3869  -20.3233  -47.4816 C.3       23 UNK        -0.0398 
     18 CA          0.7248  -21.6451  -47.0046 C.3       11 UNK         0.1400 
     19 N           0.5296  -21.6140  -45.5534 N.am      11 UNK        -0.5000 
     20 C           0.1029  -22.6277  -44.7898 C.2       10 UNK         0.5000 
     21 O          -0.1206  -23.7610  -45.2129 O.2       10 UNK        -0.5000 
     22 CA         -0.1690  -22.3007  -43.3102 C.3       10 UNK         0.1400 
     23 CB          1.1376  -22.2941  -42.5033 C.3       10 UNK        -0.1800 
     24 N          -0.8666  -21.0239  -43.1345 N.am      10 UNK        -0.5000 
     25 C          -2.1008  -20.7679  -43.5936 C.2       9 UNK         0.5000 
     26 O          -2.7940  -21.5958  -44.1827 O.2       9 UNK        -0.5000 
     27 CA         -2.6398  -19.3391  -43.4053 C.3       9 UNK         0.1400 
     28 CB         -3.1314  -19.1246  -41.9662 C.3       9 UNK        -0.1800 
     29 N          -1.6565  -18.3136  -43.7525 N.am      9 UNK        -0.5000 
     30 C          -1.1413  -18.1347  -44.9772 C.2       8 UNK         0.5000 
     31 O          -1.4719  -18.7934  -45.9630 O.2       8 UNK        -0.5000 
     32 CA         -0.0210  -17.0875  -45.1112 C.3       8 UNK         0.1400 
     33 CB         -0.5890  -15.6629  -45.1948 C.3       8 UNK        -0.1800 
     34 N           0.9481  -17.1708  -44.0188 N.am      8 UNK        -0.5000 
     35 C           1.7344  -18.2311  -43.7812 C.2       7 UNK         0.5000 
     36 O           1.7499  -19.2447  -44.4778 O.2       7 UNK        -0.5000 
     37 CA          2.6149  -18.1699  -42.5239 C.3       7 UNK         0.1400 
     38 CB          3.8873  -17.3491  -42.7826 C.3       7 UNK        -0.1800 
     39 N           1.8865  -17.6244  -41.3787 N.am      7 UNK        -0.5000 
     40 C           0.8640  -18.2461  -40.7725 C.2       6 UNK         0.5000 
     41 O           0.4572  -19.3638  -41.0886 O.2       6 UNK        -0.5000 
     42 CA          0.1473  -17.4661  -39.6562 C.3       6 UNK         0.1400 
     43 CB          0.8983  -17.6109  -38.3244 C.3       6 UNK        -0.1800 
     44 N          -0.0043  -16.0465  -39.9776 N.am      6 UNK        -0.5000 
     45 C          -0.7674  -15.5712  -40.9725 C.2       5 UNK         0.5000 
     46 O          -1.4580  -16.2790  -41.7038 O.2       5 UNK        -0.5000 
     47 CA         -0.7015  -14.0548  -41.2249 C.3       5 UNK         0.1400 
     48 CB         -1.6929  -13.3084  -40.3206 C.3       5 UNK        -0.1800 
     49 N           0.6453  -13.5116  -41.0294 N.am      5 UNK        -0.5000 
     50 C           1.6963  -13.8175  -41.7995 C.2       4 UNK         0.5000 
     51 O           1.6398  -14.5825  -42.7670 O.2       4 UNK        -0.5000 
     52 CA          3.0391  -13.1951  -41.4065 C.3       4 UNK         0.1400 
     53 CB          3.8243  -14.1274  -40.4665 C.3       4 UNK        -0.1800 
     54 N           3.7853  -12.9451  -42.6310 N.am      4 UNK        -0.5000 
     55 C           4.8144  -12.1038  -42.7698 C.2       3 UNK         0.5000 
     56 O           5.3315  -11.5042  -41.8256 O.2       3 UNK        -0.5000 
     57 CA          5.3173  -11.8353  -44.2020 C.3       3 UNK         0.1400 
     58 CB          6.8560  -11.8699  -44.3151 C.3       3 UNK        -0.1800 
     59 N           4.6543  -12.6511  -45.2282 N.am      3 UNK        -0.5000 
     60 C           4.8917  -13.9222  -45.5900 C.2       2 UNK         0.5000 
     61 O           5.7613  -14.6274  -45.0790 O.2       2 UNK        -0.5000 
     62 CA          3.9924  -14.5253  -46.6967 C.3       2 UNK         0.1400 
     63 CB          3.3534  -15.8404  -46.2270 C.3       2 UNK        -0.1800 
     64 N           2.9176  -13.6282  -47.1269 N.am      2 UNK        -0.5000 
     65 C           3.0488  -12.5844  -47.9569 C.2       1 UNK         0.5000 
     66 O           4.0920  -12.3194  -48.5543 O.2       1 UNK        -0.5000 
     67 C          -0.5908  -21.9957  -47.7357 C.2       11 UNK         0.5000 
     68 O          -0.6015  -22.9118  -48.5588 O.2       11 UNK        -0.5000 
     69 N          -1.6834  -21.2984  -47.3901 N.am      12 UNK        -0.5000 
     70 CA         -3.0178  -21.5396  -47.9380 C.3       12 UNK         0.1400 
     71 CB         -3.9823  -20.4424  -47.4668 C.3       12 UNK        -0.1800 
     72 C          -3.5601  -22.9378  -47.5946 C.2       12 UNK         0.5000 
     73 O          -4.1149  -23.5967  -48.4725 O.2       12 UNK        -0.5000 
     74 N          -3.3569  -23.3845  -46.3472 N.am      13 UNK        -0.5000 
     75 CA         -3.7214  -24.7203  -45.8731 C.3       13 UNK         0.1400 
     76 CB         -3.5159  -24.8104  -44.3539 C.3       13 UNK        -0.1800 
     77 C          -2.9533  -25.8391  -46.5989 C.2       13 UNK         0.5000 
     78 O          -3.5689  -26.8231  -47.0092 O.2       13 UNK        -0.5000 
     79 N          -1.6401  -25.6506  -46.7957 N.am      14 UNK        -0.5000 
     80 CA         -0.7728  -26.5543  -47.5580 C.3       14 UNK         0.1400 
     81 CB          0.6910  -26.1163  -47.4005 C.3       14 UNK        -0.1800 
     82 C          -1.1581  -26.6451  -49.0477 C.2       14 UNK         0.5000 
     83 O          -1.0470  -27.7182  -49.6412 O.2       14 UNK        -0.5000 
     84 N          -1.6459  -25.5314  -49.6090 N.am      15 UNK        -0.5000 
     85 CA         -2.1954  -25.4354  -50.9622 C.3       15 UNK         0.1400 
     86 CB         -2.0924  -23.9767  -51.4302 C.3       15 UNK        -0.1800 
     87 C          -3.6464  -25.9555  -51.0850 C.2       15 UNK         0.5000 
     88 O          -4.1882  -25.9432  -52.1906 O.2       15 UNK        -0.5000 
     89 N          -4.2441  -26.4028  -49.9695 N.am      16 UNK        -0.5000 
     90 CA         -5.6016  -26.9407  -49.8280 C.3       16 UNK         0.1400 
     91 CB         -5.7891  -28.2202  -50.6711 C.3       16 UNK        -0.1800 
     92 C          -6.7122  -25.8919  -50.0517 C.2       16 UNK         0.5000 
     93 O          -7.8016  -26.2408  -50.5116 O.2       16 UNK        -0.5000 
     94 N          -6.4269  -24.6357  -49.6787 N.am      17 UNK        -0.5000 
     95 CA         -7.3060  -23.4654  -49.7279 C.3       17 UNK         0.1400 
     96 CB         -8.4356  -23.5993  -48.6822 C.3       17 UNK        -0.1800 
     97 C          -7.7961  -23.1443  -51.1571 C.2       17 UNK         0.5000 
     98 O          -7.0234  -23.2918  -52.1070 O.2       17 UNK        -0.5000 
     99 N          -9.0468  -22.6748  -51.2848 N.am      18 UNK        -0.5000 
    100 CA        -9.7085  -22.2394  -52.5191 C.3       18 UNK         0.1400 
    101 CB        -9.9921  -23.4492  -53.4389 C.3       18 UNK        -0.1800 
    102 C         -8.9253  -21.0957  -53.1974 C.2       18 UNK         0.5000 
    103 O         -8.8802  -19.9932  -52.6494 O.2       18 UNK        -0.5000 
    104 N         -8.3013  -21.3786  -54.3479 N.am      19 UNK        -0.5000 
    105 CA        -7.4293  -20.4576  -55.0796 C.3       19 UNK         0.1400 
    106 CB        -7.2850  -20.9625  -56.5245 C.3       19 UNK        -0.1800 
    107 C         -6.0387  -20.2753  -54.4356 C.2       19 UNK         0.5000 
    108 O         -5.3011  -19.3876  -54.8631 O.2       19 UNK        -0.5000 
    109 N         -5.6813  -21.1346  -53.4658 N.am      20 UNK        -0.5000 
    110 CA        -4.4251  -21.1582  -52.7027 C.3       20 UNK         0.1400 
    111 CB        -4.3492  -19.9497  -51.7473 C.3       20 UNK        -0.1800 
    112 C         -3.1621  -21.3055  -53.5791 C.2       20 UNK         0.5000 
    113 O         -2.0802  -20.8840  -53.1741 O.2       20 UNK        -0.5000 
    114 N         -3.3304  -21.9045  -54.7678 N.am      21 UNK        -0.5000 
    115 CA        -2.3332  -22.0754  -55.8294 C.3       21 UNK         0.1400 
    116 CB        -1.1824  -22.9936  -55.3647 C.3       21 UNK        -0.1800 
    117 C         -1.8307  -20.7461  -56.4410 C.2       21 UNK         0.5000 
    118 O         -0.7733  -20.7348  -57.0738 O.2       21 UNK        -0.5000 
    119 N         -2.5952  -19.6560  -56.2756 N.am      22 UNK        -0.5000 
    120 CA        -2.2864  -18.3296  -56.8381 C.3       22 UNK         0.1400 
    121 C         -2.6084  -18.1827  -58.3553 C.2       22 UNK         0.5000 
    122 N         -3.2899  -19.1282  -58.9915 N.am      22 UNK        -0.7600 
    123 O         -2.2236  -17.1925  -58.9713 O.2       22 UNK        -0.5000 
    124 C124       -2.9485  -17.1804  -56.0309 C.3       23 UNK        -0.0398 
    125 S125       -2.6111  -17.1686  -54.2345 S.3       23 UNK        -0.2404 
    126 C126       -0.8006  -17.3301  -54.1637 C.3       23 UNK        -0.0205 
    127 H127        0.1214  -12.5086  -44.0639 H         1 UNK         0.0600 
    128 H128       -1.0390  -12.0753  -45.3208 H         1 UNK         0.0600 
    129 H129       -0.3839  -10.8270  -44.2561 H         1 UNK         0.0600 
    130 H130       -0.0734  -12.1529  -47.3385 H         1 UNK         0.3000 
    131 H131        2.2192  -10.6383  -48.0249 H         1 UNK         0.0600 
    132 H132        0.5165  -10.9167  -49.6697 H         1 UNK         0.0800 
    133 H133        1.9450  -11.6672  -50.2992 H         1 UNK         0.0800 
    134 H134        2.2770  -14.4677  -50.1492 H         1 UNK         0.0800 
    135 H135        1.6828  -13.7537  -51.6316 H         1 UNK         0.0800 
    136 H136        0.3594  -15.0718  -53.1520 H         1 UNK         0.1150 
    137 H137       -0.8391  -19.0351  -52.0465 H         1 UNK         0.1150 
    138 H138        0.9961  -16.4686  -49.1476 H         1 UNK         0.1150 
    139 H139       -0.3488  -18.4649  -48.4797 H         1 UNK         0.0800 
    140 H140       -0.9510  -19.5846  -49.6704 H         1 UNK         0.0800 
    141 H141        0.9263  -19.4760  -46.9774 H         1 UNK         0.0800 
    142 H142        2.4245  -20.3118  -47.1452 H         1 UNK         0.0800 
    143 H143        1.4236  -22.4568  -47.2170 H         1 UNK         0.0600 
    144 H144        0.7383  -20.7289  -45.0987 H         1 UNK         0.3000 
    145 H145       -0.8102  -23.0881  -42.9092 H         1 UNK         0.0600 
    146 H146        0.9426  -22.1503  -41.4405 H         1 UNK         0.0600 
    147 H147        1.6688  -23.2406  -42.6116 H         1 UNK         0.0600 
    148 H148        1.8096  -21.5000  -42.8296 H         1 UNK         0.0600 
    149 H149       -0.3731  -20.3032  -42.6164 H         1 UNK         0.3000 
    150 H150       -3.4937  -19.2177  -44.0749 H         1 UNK         0.0600 
    151 H151       -3.8762  -19.8727  -41.6921 H         1 UNK         0.0600 
    152 H152       -3.5964  -18.1454  -41.8514 H         1 UNK         0.0600 
    153 H153       -2.3156  -19.1932  -41.2464 H         1 UNK         0.0600 
    154 H154       -1.3671  -17.6908  -43.0034 H         1 UNK         0.3000 
    155 H155        0.5112  -17.2884  -46.0427 H         1 UNK         0.0600 
    156 H156       -1.1323  -15.3905  -44.2901 H         1 UNK         0.0600 
    157 H157       -1.2787  -15.5673  -46.0342 H         1 UNK         0.0600 
    158 H158        0.2045  -14.9301  -45.3402 H         1 UNK         0.0600 
    159 H159        1.0300  -16.3570  -43.4176 H         1 UNK         0.3000 
    160 H160        2.9164  -19.1904  -42.2782 H         1 UNK         0.0600 
    161 H161        3.6626  -16.3128  -43.0348 H         1 UNK         0.0600 
    162 H162        4.4565  -17.7678  -43.6133 H         1 UNK         0.0600 
    163 H163        4.5413  -17.3500  -41.9107 H         1 UNK         0.0600 
    164 H164        2.1307  -16.6918  -41.0840 H         1 UNK         0.3000 
    165 H165       -0.8494  -17.8958  -39.5357 H         1 UNK         0.0600 
    166 H166        0.3579  -17.1242  -37.5124 H         1 UNK         0.0600 
    167 H167        1.0121  -18.6615  -38.0536 H         1 UNK         0.0600 
    168 H168        1.8967  -17.1743  -38.3730 H         1 UNK         0.0600 
    169 H169        0.5276  -15.3923  -39.4234 H         1 UNK         0.3000 
    170 H170       -0.9913  -13.8799  -42.2630 H         1 UNK         0.0600 
    171 H171       -2.7073  -13.6845  -40.4605 H         1 UNK         0.0600 
    172 H172       -1.4429  -13.4225  -39.2651 H         1 UNK         0.0600 
    173 H173       -1.7088  -12.2426  -40.5492 H         1 UNK         0.0600 
    174 H174        0.7679  -12.8756  -40.2544 H         1 UNK         0.3000 
    175 H175        2.8511  -12.2433  -40.9053 H         1 UNK         0.0600 
    176 H176        4.0783  -15.0689  -40.9519 H         1 UNK         0.0600 
    177 H177        4.7541  -13.6647  -40.1359 H         1 UNK         0.0600 
    178 H178        3.2464  -14.3619  -39.5718 H         1 UNK         0.0600 
    179 H179        3.3964  -13.3881  -43.4530 H         1 UNK         0.3000 
    180 H180        5.0101  -10.8121  -44.4228 H         1 UNK         0.0600 
    181 H181        7.2686  -12.8235  -43.9858 H         1 UNK         0.0600 
    182 H182        7.3073  -11.0949  -43.6946 H         1 UNK         0.0600 
    183 H183        7.1826  -11.6944  -45.3401 H         1 UNK         0.0600 
    184 H184        3.8667  -12.1868  -45.6662 H         1 UNK         0.3000 
    185 H185        4.6329  -14.7429  -47.5538 H         1 UNK         0.0600 
    186 H186        4.1112  -16.5808  -45.9685 H         1 UNK         0.0600 
    187 H187        2.7388  -15.6761  -45.3433 H         1 UNK         0.0600 
    188 H188        2.7246  -16.2788  -47.0022 H         1 UNK         0.0600 
    189 H189        2.0200  -13.7606  -46.6851 H         1 UNK         0.3000 
    190 H190       -1.5971  -20.5371  -46.7214 H         1 UNK         0.3000 
    191 H191       -2.9427  -21.4757  -49.0254 H         1 UNK         0.0600 
    192 H192       -4.0745  -20.4263  -46.3805 H         1 UNK         0.0600 
    193 H193       -4.9798  -20.5944  -47.8812 H         1 UNK         0.0600 
    194 H194       -3.6429  -19.4573  -47.7877 H         1 UNK         0.0600 
    195 H195       -2.9407  -22.7575  -45.6630 H         1 UNK         0.3000 
    196 H196       -4.7844  -24.8636  -46.0783 H         1 UNK         0.0600 
    197 H197       -3.7998  -25.7943  -43.9786 H         1 UNK         0.0600 
    198 H198       -4.1258  -24.0741  -43.8301 H         1 UNK         0.0600 
    199 H199       -2.4756  -24.6402  -44.0766 H         1 UNK         0.0600 
    200 H200       -1.1946  -24.8323  -46.3880 H         1 UNK         0.3000 
    201 H201       -0.8760  -27.5534  -47.1300 H         1 UNK         0.0600 
    202 H202        0.9962  -26.1325  -46.3542 H         1 UNK         0.0600 
    203 H203        0.8522  -25.1067  -47.7795 H         1 UNK         0.0600 
    204 H204        1.3602  -26.7834  -47.9452 H         1 UNK         0.0600 
    205 H205       -1.6425  -24.6760  -49.0635 H         1 UNK         0.3000 
    206 H206       -1.5812  -26.0435  -51.6293 H         1 UNK         0.0600 
    207 H207       -1.0648  -23.6155  -51.3840 H         1 UNK         0.0600 
    208 H208       -2.4213  -23.8805  -52.4646 H         1 UNK         0.0600 
    209 H209       -2.7066  -23.3136  -50.8213 H         1 UNK         0.0600 
    210 H210       -3.7188  -26.3530  -49.1049 H         1 UNK         0.3000 
    211 H211       -5.6894  -27.2348  -48.7814 H         1 UNK         0.0600 
    212 H212       -5.8030  -28.0052  -51.7397 H         1 UNK         0.0600 
    213 H213       -6.7305  -28.7135  -50.4272 H         1 UNK         0.0600 
    214 H214       -4.9905  -28.9376  -50.4820 H         1 UNK         0.0600 
    215 H215       -5.4906  -24.4421  -49.3280 H         1 UNK         0.3000 
    216 H216       -6.6852  -22.6186  -49.4319 H         1 UNK         0.0600 
    217 H217       -8.9849  -22.6646  -48.5651 H         1 UNK         0.0600 
    218 H218       -8.0298  -23.8500  -47.7019 H         1 UNK         0.0600 
    219 H219       -9.1505  -24.3776  -48.9524 H         1 UNK         0.0600 
    220 H220       -9.5921  -22.5614  -50.4421 H         1 UNK         0.3000 
    221 H221      -10.6711  -21.8177  -52.2264 H         1 UNK         0.0600 
    222 H222       -9.0815  -23.9666  -53.7425 H         1 UNK         0.0600 
    223 H223      -10.6258  -24.1776  -52.9330 H         1 UNK         0.0600 
    224 H224      -10.5191  -23.1411  -54.3429 H         1 UNK         0.0600 
    225 H225       -8.3743  -22.3176  -54.7122 H         1 UNK         0.3000 
    226 H226       -7.9051  -19.4751  -55.1072 H         1 UNK         0.0600 
    227 H227       -8.2555  -21.0335  -57.0161 H         1 UNK         0.0600 
    228 H228       -6.6721  -20.2831  -57.1187 H         1 UNK         0.0600 
    229 H229       -6.8159  -21.9464  -56.5629 H         1 UNK         0.0600 
    230 H230       -6.3440  -21.8585  -53.1990 H         1 UNK         0.3000 
    231 H231       -4.4665  -22.0579  -52.0874 H         1 UNK         0.0600 
    232 H232       -5.2317  -19.8961  -51.1098 H         1 UNK         0.0600 
    233 H233       -4.2715  -19.0096  -52.2941 H         1 UNK         0.0600 
    234 H234       -3.4805  -20.0181  -51.0915 H         1 UNK         0.0600 
    235 H235       -4.2633  -22.2184  -54.9936 H         1 UNK         0.3000 
    236 H236       -2.8504  -22.5918  -56.6390 H         1 UNK         0.0600 
    237 H237       -0.5306  -23.2574  -56.1982 H         1 UNK         0.0600 
    238 H238       -0.5619  -22.5163  -54.6060 H         1 UNK         0.0600 
    239 H239       -1.5648  -23.9254  -54.9480 H         1 UNK         0.0600 
    240 H240       -3.4471  -19.7162  -55.7277 H         1 UNK         0.3000 
    241 H241       -1.2067  -18.1893  -56.7716 H         1 UNK         0.0600 
    242 H242       -3.4866  -19.0226  -59.9746 H         1 UNK         0.3800 
    243 H243       -3.6140  -19.9449  -58.4998 H         1 UNK         0.3800 
    244 H244       -2.6328  -16.2127  -56.4248 H         1 UNK         0.0800 
    245 H245       -4.0320  -17.2158  -56.1570 H         1 UNK         0.0800 
    246 H246       -0.3418  -16.6307  -54.8641 H         1 UNK         0.0800 
    247 H247       -0.5121  -18.3332  -54.4819 H         1 UNK         0.0800 
@<TRIPOS>BOND
     1    1    2 1    
     2    1  127 1    
     3    1  128 1    
     4    1  129 1    
     5    2    3 2    
     6    2    4 am   BACKBONE|DICT|INTERRES
     7    4    5 1    
     8    4  130 1    
     9    5    6 1    
    10    5   65 1    
    11    5  131 1    
    12    6    7 1    
    13    6  132 1    
    14    6  133 1    
    15    7    8 1    
    16    8    9 1    
    17    8  134 1    
    18    8  135 1    
    19    9   10 ar   
    20    9   14 ar   
    21   10   11 ar   
    22   10  136 1    
    23   11   12 ar   
    24   11  126 1    
    25   12   13 ar   
    26   12  137 1    
    27   13   14 ar   
    28   13   15 1    
    29   14  138 1    
    30   15   16 1    
    31   15  139 1    
    32   15  140 1    
    33   16   17 1    
    34   17   18 1    
    35   17  141 1    
    36   17  142 1    
    37   18   19 1    
    38   18   67 1    
    39   18  143 1    
    40   19   20 am   BACKBONE|DICT|INTERRES
    41   19  144 1    
    42   20   21 2    
    43   20   22 1    
    44   22   23 1    
    45   22   24 1    
    46   22  145 1    
    47   23  146 1    
    48   23  147 1    
    49   23  148 1    
    50   24   25 am   BACKBONE|DICT|INTERRES
    51   24  149 1    
    52   25   26 2    
    53   25   27 1    
    54   27   28 1    
    55   27   29 1    
    56   27  150 1    
    57   28  151 1    
    58   28  152 1    
    59   28  153 1    
    60   29   30 am   BACKBONE|DICT|INTERRES
    61   29  154 1    
    62   30   31 2    
    63   30   32 1    
    64   32   33 1    
    65   32   34 1    
    66   32  155 1    
    67   33  156 1    
    68   33  157 1    
    69   33  158 1    
    70   34   35 am   BACKBONE|DICT|INTERRES
    71   34  159 1    
    72   35   36 2    
    73   35   37 1    
    74   37   38 1    
    75   37   39 1    
    76   37  160 1    
    77   38  161 1    
    78   38  162 1    
    79   38  163 1    
    80   39   40 am   BACKBONE|DICT|INTERRES
    81   39  164 1    
    82   40   41 2    
    83   40   42 1    
    84   42   43 1    
    85   42   44 1    
    86   42  165 1    
    87   43  166 1    
    88   43  167 1    
    89   43  168 1    
    90   44   45 am   BACKBONE|DICT|INTERRES
    91   44  169 1    
    92   45   46 2    
    93   45   47 1    
    94   47   48 1    
    95   47   49 1    
    96   47  170 1    
    97   48  171 1    
    98   48  172 1    
    99   48  173 1    
   100   49   50 am   BACKBONE|DICT|INTERRES
   101   49  174 1    
   102   50   51 2    
   103   50   52 1    
   104   52   53 1    
   105   52   54 1    
   106   52  175 1    
   107   53  176 1    
   108   53  177 1    
   109   53  178 1    
   110   54   55 am   BACKBONE|DICT|INTERRES
   111   54  179 1    
   112   55   56 2    
   113   55   57 1    
   114   57   58 1    
   115   57   59 1    
   116   57  180 1    
   117   58  181 1    
   118   58  182 1    
   119   58  183 1    
   120   59   60 am   BACKBONE|DICT|INTERRES
   121   59  184 1    
   122   60   61 2    
   123   60   62 1    
   124   62   63 1    
   125   62   64 1    
   126   62  185 1    
   127   63  186 1    
   128   63  187 1    
   129   63  188 1    
   130   64   65 am   BACKBONE|DICT|INTERRES
   131   64  189 1    
   132   65   66 2    
   133   67   68 2    
   134   67   69 am   BACKBONE|DICT|INTERRES
   135   69   70 1    
   136   69  190 1    
   137   70   71 1    
   138   70   72 1    
   139   70  191 1    
   140   71  192 1    
   141   71  193 1    
   142   71  194 1    
   143   72   73 2    
   144   72   74 am   BACKBONE|DICT|INTERRES
   145   74   75 1    
   146   74  195 1    
   147   75   76 1    
   148   75   77 1    
   149   75  196 1    
   150   76  197 1    
   151   76  198 1    
   152   76  199 1    
   153   77   78 2    
   154   77   79 am   BACKBONE|DICT|INTERRES
   155   79   80 1    
   156   79  200 1    
   157   80   81 1    
   158   80   82 1    
   159   80  201 1    
   160   81  202 1    
   161   81  203 1    
   162   81  204 1    
   163   82   83 2    
   164   82   84 am   BACKBONE|DICT|INTERRES
   165   84   85 1    
   166   84  205 1    
   167   85   86 1    
   168   85   87 1    
   169   85  206 1    
   170   86  207 1    
   171   86  208 1    
   172   86  209 1    
   173   87   88 2    
   174   87   89 am   BACKBONE|DICT|INTERRES
   175   89   90 1    
   176   89  210 1    
   177   90   91 1    
   178   90   92 1    
   179   90  211 1    
   180   91  212 1    
   181   91  213 1    
   182   91  214 1    
   183   92   93 2    
   184   92   94 am   BACKBONE|DICT|INTERRES
   185   94   95 1    
   186   94  215 1    
   187   95   96 1    
   188   95   97 1    
   189   95  216 1    
   190   96  217 1    
   191   96  218 1    
   192   96  219 1    
   193   97   98 2    
   194   97   99 am   BACKBONE|DICT|INTERRES
   195   99  100 1    
   196   99  220 1    
   197  100  101 1    
   198  100  102 1    
   199  100  221 1    
   200  101  222 1    
   201  101  223 1    
   202  101  224 1    
   203  102  103 2    
   204  102  104 am   BACKBONE|DICT|INTERRES
   205  104  105 1    
   206  104  225 1    
   207  105  106 1    
   208  105  107 1    
   209  105  226 1    
   210  106  227 1    
   211  106  228 1    
   212  106  229 1    
   213  107  108 2    
   214  107  109 am   BACKBONE|DICT|INTERRES
   215  109  110 1    
   216  109  230 1    
   217  110  111 1    
   218  110  112 1    
   219  110  231 1    
   220  111  232 1    
   221  111  233 1    
   222  111  234 1    
   223  112  113 2    
   224  112  114 am   BACKBONE|DICT|INTERRES
   225  114  115 1    
   226  114  235 1    
   227  115  116 1    
   228  115  117 1    
   229  115  236 1    
   230  116  237 1    
   231  116  238 1    
   232  116  239 1    
   233  117  118 2    
   234  117  119 am   BACKBONE|DICT|INTERRES
   235  119  120 1    
   236  119  240 1    
   237  120  121 1    
   238  120  124 1    
   239  120  241 1    
   240  121  122 am   BACKBONE|DICT|INTERRES
   241  121  123 2    
   242  122  242 1    
   243  122  243 1    
   244  124  125 1    
   245  124  244 1    
   246  124  245 1    
   247  125  126 1    
   248  126  246 1    
   249  126  247 1    
@<TRIPOS>SUBSTRUCTURE
     1 UNK         1 GROUP             0       ****    0 ROOT    
