@<TRIPOS>MOLECULE
3R540
247   249    1
SMALL
USER_CHARGES


@<TRIPOS>ATOM
      1 CA          6.0598  -10.0969  -50.7249 C.3       0 UNK        -0.1800 
      2 C           5.2810  -10.5807  -49.5095 C.2       0 UNK         0.5000 
      3 O           5.7010  -10.3402  -48.3771 O.2       0 UNK        -0.5000 
      4 N           4.1562  -11.2682  -49.7396 N.am      1 UNK        -0.5000 
      5 CA          3.2514  -11.7729  -48.7035 C.3       1 UNK         0.1400 
      6 C6          2.1796  -12.7256  -49.2890 C.3       23 UNK        -0.0398 
      7 S7          2.8694  -14.2899  -49.9273 S.3       23 UNK        -0.2404 
      8 C8          1.9395  -15.5161  -48.9510 C.3       23 UNK        -0.0205 
      9 C9          1.7946  -16.8301  -49.7002 C.ar      23 UNK        -0.0193 
     10 C10         0.8524  -16.9429  -50.7267 C.ar      23 UNK        -0.1150 
     11 C11         0.6931  -18.1464  -51.4183 C.ar      23 UNK        -0.0193 
     12 C12         1.4770  -19.2481  -51.0677 C.ar      23 UNK        -0.1150 
     13 C13         2.4209  -19.1494  -50.0399 C.ar      23 UNK        -0.0193 
     14 C14         2.5793  -17.9361  -49.3623 C.ar      23 UNK        -0.1150 
     15 C15         3.2652  -20.3576  -49.6602 C.3       23 UNK        -0.0205 
     16 S16         2.7962  -21.0411  -48.0390 S.3       23 UNK        -0.2404 
     17 C17         1.0094  -21.3254  -48.2649 C.3       23 UNK        -0.0398 
     18 CA          0.4757  -22.5141  -47.4353 C.3       11 UNK         0.1400 
     19 N           0.7602  -22.3785  -46.0042 N.am      11 UNK        -0.5000 
     20 C           0.5319  -23.3116  -45.0718 C.2       10 UNK         0.5000 
     21 O           0.0600  -24.4190  -45.3323 O.2       10 UNK        -0.5000 
     22 CA          0.8136  -22.9270  -43.6047 C.3       10 UNK         0.1400 
     23 CB          1.3262  -24.1168  -42.7680 C.3       10 UNK        -0.1800 
     24 N           1.6778  -21.7507  -43.4495 N.am      10 UNK        -0.5000 
     25 C           2.9738  -21.6267  -43.7775 C.2       9 UNK         0.5000 
     26 O           3.6480  -22.5384  -44.2571 O.2       9 UNK        -0.5000 
     27 CA          3.6317  -20.2484  -43.5521 C.3       9 UNK         0.1400 
     28 CB          4.0515  -19.6236  -44.8917 C.3       9 UNK        -0.1800 
     29 N           2.7672  -19.3004  -42.8449 N.am      9 UNK        -0.5000 
     30 C           2.5676  -19.2890  -41.5202 C.2       8 UNK         0.5000 
     31 O           3.1369  -20.0491  -40.7365 O.2       8 UNK        -0.5000 
     32 CA          1.5277  -18.2858  -40.9861 C.3       8 UNK         0.1400 
     33 CB          2.1571  -16.8964  -40.8076 C.3       8 UNK        -0.1800 
     34 N           0.3370  -18.1742  -41.8331 N.am      8 UNK        -0.5000 
     35 C          -0.5275  -19.1685  -42.0842 C.2       7 UNK         0.5000 
     36 O          -0.3992  -20.3134  -41.6522 O.2       7 UNK        -0.5000 
     37 CA         -1.7124  -18.8407  -43.0065 C.3       7 UNK         0.1400 
     38 CB         -2.8054  -18.0654  -42.2551 C.3       7 UNK        -0.1800 
     39 N          -1.2726  -18.0744  -44.1692 N.am      7 UNK        -0.5000 
     40 C          -0.7059  -18.6186  -45.2540 C.2       6 UNK         0.5000 
     41 O          -0.5829  -19.8318  -45.4223 O.2       6 UNK        -0.5000 
     42 CA         -0.1760  -17.6499  -46.3282 C.3       6 UNK         0.1400 
     43 CB         -1.2457  -17.4116  -47.4018 C.3       6 UNK        -0.1800 
     44 N           0.2596  -16.3637  -45.7792 N.am      6 UNK        -0.5000 
     45 C           1.3190  -16.2166  -44.9720 C.2       5 UNK         0.5000 
     46 O           2.0426  -17.1455  -44.6180 O.2       5 UNK        -0.5000 
     47 CA          1.5867  -14.8057  -44.4248 C.3       5 UNK         0.1400 
     48 CB          2.4730  -14.0131  -45.3944 C.3       5 UNK        -0.1800 
     49 N           0.3682  -14.0497  -44.1089 N.am      5 UNK        -0.5000 
     50 C          -0.5101  -14.4120  -43.1589 C.2       4 UNK         0.5000 
     51 O          -0.4382  -15.4860  -42.5602 O.2       4 UNK        -0.5000 
     52 CA         -1.6436  -13.4359  -42.7863 C.3       4 UNK         0.1400 
     53 CB         -1.5148  -13.0124  -41.3139 C.3       4 UNK        -0.1800 
     54 N          -1.6571  -12.2283  -43.6126 N.am      4 UNK        -0.5000 
     55 C          -2.4803  -12.0144  -44.6469 C.2       3 UNK         0.5000 
     56 O          -3.3410  -12.8144  -45.0151 O.2       3 UNK        -0.5000 
     57 CA         -2.3023  -10.6862  -45.4150 C.3       3 UNK         0.1400 
     58 CB         -3.2682   -9.6219  -44.8721 C.3       3 UNK        -0.1800 
     59 N          -0.9365  -10.1434  -45.4023 N.am      3 UNK        -0.5000 
     60 C           0.1428  -10.7875  -45.8629 C.2       2 UNK         0.5000 
     61 O           0.1086  -11.9501  -46.2753 O.2       2 UNK        -0.5000 
     62 CA          1.4869  -10.0346  -45.8064 C.3       2 UNK         0.1400 
     63 CB          2.0106   -9.9749  -44.3621 C.3       2 UNK        -0.1800 
     64 N           2.4706  -10.7301  -46.6356 N.am      2 UNK        -0.5000 
     65 C           2.5430  -10.6178  -47.9664 C.2       1 UNK         0.5000 
     66 O           2.0158   -9.7080  -48.6118 O.2       1 UNK        -0.5000 
     67 C          -1.0325  -22.6857  -47.6902 C.2       11 UNK         0.5000 
     68 O          -1.4207  -23.5019  -48.5240 O.2       11 UNK        -0.5000 
     69 N          -1.8534  -21.9440  -46.9329 N.am      12 UNK        -0.5000 
     70 CA         -3.3128  -22.0203  -46.9658 C.3       12 UNK         0.1400 
     71 CB         -3.8990  -20.8725  -46.1309 C.3       12 UNK        -0.1800 
     72 C          -3.8617  -23.3801  -46.5016 C.2       12 UNK         0.5000 
     73 O          -4.8711  -23.8346  -47.0385 O.2       12 UNK        -0.5000 
     74 N          -3.1722  -24.0144  -45.5438 N.am      13 UNK        -0.5000 
     75 CA         -3.4792  -25.3600  -45.0635 C.3       13 UNK         0.1400 
     76 CB         -2.8547  -25.5684  -43.6750 C.3       13 UNK        -0.1800 
     77 C          -3.0016  -26.4371  -46.0527 C.2       13 UNK         0.5000 
     78 O          -3.7392  -27.3880  -46.3095 O.2       13 UNK        -0.5000 
     79 N          -1.7934  -26.2567  -46.6067 N.am      14 UNK        -0.5000 
     80 CA         -1.1754  -27.1545  -47.5849 C.3       14 UNK         0.1400 
     81 CB          0.2883  -26.7433  -47.8045 C.3       14 UNK        -0.1800 
     82 C          -1.9357  -27.2023  -48.9228 C.2       14 UNK         0.5000 
     83 O          -2.1632  -28.2901  -49.4537 O.2       14 UNK        -0.5000 
     84 N          -2.3377  -26.0282  -49.4291 N.am      15 UNK        -0.5000 
     85 CA         -3.1640  -25.8839  -50.6299 C.3       15 UNK         0.1400 
     86 CB         -3.0535  -24.4401  -51.1453 C.3       15 UNK        -0.1800 
     87 C          -4.6422  -26.2380  -50.3824 C.2       15 UNK         0.5000 
     88 O          -5.3636  -26.5133  -51.3416 O.2       15 UNK        -0.5000 
     89 N          -5.0712  -26.1812  -49.1130 N.am      16 UNK        -0.5000 
     90 CA         -6.4132  -26.4007  -48.5585 C.3       16 UNK         0.1400 
     91 CB         -6.9247  -27.8213  -48.8600 C.3       16 UNK        -0.1800 
     92 C          -7.4468  -25.3331  -48.9661 C.2       16 UNK         0.5000 
     93 O          -8.1967  -24.8540  -48.1150 O.2       16 UNK        -0.5000 
     94 N          -7.4546  -24.9488  -50.2464 N.am      17 UNK        -0.5000 
     95 CA         -8.3319  -23.9507  -50.8552 C.3       17 UNK         0.1400 
     96 CB         -8.4480  -24.2612  -52.3590 C.3       17 UNK        -0.1800 
     97 C          -7.8636  -22.5041  -50.5863 C.2       17 UNK         0.5000 
     98 O          -7.7859  -21.7042  -51.5178 O.2       17 UNK        -0.5000 
     99 N          -7.5374  -22.1922  -49.3234 N.am      18 UNK        -0.5000 
    100 CA        -7.2032  -20.8621  -48.7917 C.3       18 UNK         0.1400 
    101 CB        -8.4809  -20.0025  -48.7049 C.3       18 UNK        -0.1800 
    102 C         -6.0544  -20.1355  -49.5315 C.2       18 UNK         0.5000 
    103 O         -6.0658  -18.9078  -49.6305 O.2       18 UNK        -0.5000 
    104 N         -5.0895  -20.9160  -50.0409 N.am      19 UNK        -0.5000 
    105 CA        -3.9227  -20.4874  -50.8229 C.3       19 UNK         0.1400 
    106 CB        -2.9957  -19.5665  -50.0020 C.3       19 UNK        -0.1800 
    107 C         -4.2762  -19.9041  -52.2094 C.2       19 UNK         0.5000 
    108 O         -3.4971  -19.1255  -52.7622 O.2       19 UNK        -0.5000 
    109 N         -5.4065  -20.3384  -52.7918 N.am      20 UNK        -0.5000 
    110 CA        -5.8498  -19.9779  -54.1466 C.3       20 UNK         0.1400 
    111 CB        -7.2732  -20.5068  -54.3783 C.3       20 UNK        -0.1800 
    112 C         -4.9116  -20.4528  -55.2779 C.2       20 UNK         0.5000 
    113 O         -5.0474  -19.9843  -56.4087 O.2       20 UNK        -0.5000 
    114 N         -3.9553  -21.3369  -54.9561 N.am      21 UNK        -0.5000 
    115 CA        -2.8835  -21.8236  -55.8296 C.3       21 UNK         0.1400 
    116 CB        -2.0278  -22.8275  -55.0409 C.3       21 UNK        -0.1800 
    117 C         -1.9937  -20.7127  -56.4301 C.2       21 UNK         0.5000 
    118 O         -1.4191  -20.9191  -57.4999 O.2       21 UNK        -0.5000 
    119 N         -1.9189  -19.5543  -55.7592 N.am      22 UNK        -0.5000 
    120 CA        -1.3066  -18.3241  -56.2886 C.3       22 UNK         0.1400 
    121 C         -2.1388  -17.6131  -57.4008 C.2       22 UNK         0.5000 
    122 N         -3.3822  -17.9919  -57.6730 N.am      22 UNK        -0.7600 
    123 O         -1.6366  -16.6958  -58.0447 O.2       22 UNK        -0.5000 
    124 C124       -0.9491  -17.3297  -55.1548 C.3       23 UNK        -0.0398 
    125 S125        0.4663  -17.8866  -54.1474 S.3       23 UNK        -0.2404 
    126 C126       -0.3185  -18.2471  -52.5483 C.3       23 UNK        -0.0205 
    127 H127        6.1242   -9.0089  -50.7202 H         1 UNK         0.0600 
    128 H128        7.0724  -10.4997  -50.7068 H         1 UNK         0.0600 
    129 H129        5.5882  -10.4056  -51.6581 H         1 UNK         0.0600 
    130 H130        3.8600  -11.4286  -50.6915 H         1 UNK         0.3000 
    131 H131        3.8500  -12.3312  -47.9800 H         1 UNK         0.0600 
    132 H132        1.6395  -12.2377  -50.1025 H         1 UNK         0.0800 
    133 H133        1.4242  -12.9531  -48.5352 H         1 UNK         0.0800 
    134 H134        0.9417  -15.1415  -48.7201 H         1 UNK         0.0800 
    135 H135        2.4411  -15.6707  -47.9948 H         1 UNK         0.0800 
    136 H136        0.2488  -16.0867  -50.9938 H         1 UNK         0.1150 
    137 H137        1.3546  -20.1802  -51.6012 H         1 UNK         0.1150 
    138 H138        3.3057  -17.8599  -48.5651 H         1 UNK         0.1150 
    139 H139        3.1833  -21.1411  -50.4151 H         1 UNK         0.0800 
    140 H140        4.3167  -20.0686  -49.6323 H         1 UNK         0.0800 
    141 H141        0.8158  -21.5039  -49.3242 H         1 UNK         0.0800 
    142 H142        0.4872  -20.4018  -48.0083 H         1 UNK         0.0800 
    143 H143        0.9743  -23.4211  -47.7822 H         1 UNK         0.0600 
    144 H144        1.0858  -21.4718  -45.7006 H         1 UNK         0.3000 
    145 H145       -0.1528  -22.6359  -43.1915 H         1 UNK         0.0600 
    146 H146        1.5091  -23.8218  -41.7347 H         1 UNK         0.0600 
    147 H147        0.5946  -24.9253  -42.7480 H         1 UNK         0.0600 
    148 H148        2.2520  -24.5284  -43.1702 H         1 UNK         0.0600 
    149 H149        1.2238  -20.9465  -43.0354 H         1 UNK         0.3000 
    150 H150        4.5338  -20.4130  -42.9593 H         1 UNK         0.0600 
    151 H151        4.7247  -20.2818  -45.4424 H         1 UNK         0.0600 
    152 H152        4.5731  -18.6785  -44.7402 H         1 UNK         0.0600 
    153 H153        3.1883  -19.4289  -45.5289 H         1 UNK         0.0600 
    154 H154        2.3083  -18.5971  -43.4194 H         1 UNK         0.3000 
    155 H155        1.2008  -18.6386  -40.0058 H         1 UNK         0.0600 
    156 H156        2.5121  -16.4934  -41.7559 H         1 UNK         0.0600 
    157 H157        3.0100  -16.9385  -40.1291 H         1 UNK         0.0600 
    158 H158        1.4416  -16.1882  -40.3890 H         1 UNK         0.0600 
    159 H159        0.1334  -17.2495  -42.2037 H         1 UNK         0.3000 
    160 H160       -2.1464  -19.7843  -43.3442 H         1 UNK         0.0600 
    161 H161       -3.6611  -17.8682  -42.9010 H         1 UNK         0.0600 
    162 H162       -2.4436  -17.1088  -41.8778 H         1 UNK         0.0600 
    163 H163       -3.1686  -18.6373  -41.4003 H         1 UNK         0.0600 
    164 H164       -1.2917  -17.0682  -44.0832 H         1 UNK         0.3000 
    165 H165        0.6855  -18.1244  -46.8033 H         1 UNK         0.0600 
    166 H166       -0.8701  -16.7820  -48.2074 H         1 UNK         0.0600 
    167 H167       -1.5547  -18.3555  -47.8489 H         1 UNK         0.0600 
    168 H168       -2.1357  -16.9353  -46.9887 H         1 UNK         0.0600 
    169 H169       -0.2960  -15.5511  -46.0037 H         1 UNK         0.3000 
    170 H170        2.1447  -14.9225  -43.4942 H         1 UNK         0.0600 
    171 H171        3.3864  -14.5625  -45.6275 H         1 UNK         0.0600 
    172 H172        1.9617  -13.8164  -46.3355 H         1 UNK         0.0600 
    173 H173        2.7729  -13.0618  -44.9585 H         1 UNK         0.0600 
    174 H174        0.2065  -13.2008  -44.6381 H         1 UNK         0.3000 
    175 H175       -2.5830  -13.9812  -42.8969 H         1 UNK         0.0600 
    176 H176       -2.3343  -12.3561  -41.0203 H         1 UNK         0.0600 
    177 H177       -1.5426  -13.8784  -40.6509 H         1 UNK         0.0600 
    178 H178       -0.5786  -12.4852  -41.1263 H         1 UNK         0.0600 
    179 H179       -0.9840  -11.5127  -43.3804 H         1 UNK         0.3000 
    180 H180       -2.5641  -10.8821  -46.4569 H         1 UNK         0.0600 
    181 H181       -3.0334   -9.3548  -43.8410 H         1 UNK         0.0600 
    182 H182       -4.2981   -9.9812  -44.8916 H         1 UNK         0.0600 
    183 H183       -3.2326   -8.7125  -45.4722 H         1 UNK         0.0600 
    184 H184       -0.8342   -9.1989  -45.0592 H         1 UNK         0.3000 
    185 H185        1.3416   -9.0177  -46.1769 H         1 UNK         0.0600 
    186 H186        2.1123  -10.9679  -43.9231 H         1 UNK         0.0600 
    187 H187        2.9852   -9.4882  -44.3173 H         1 UNK         0.0600 
    188 H188        1.3366   -9.4031  -43.7232 H         1 UNK         0.0600 
    189 H189        2.9287  -11.5144  -46.1973 H         1 UNK         0.3000 
    190 H190       -1.4395  -21.2778  -46.2846 H         1 UNK         0.3000 
    191 H191       -3.6283  -21.8924  -48.0002 H         1 UNK         0.0600 
    192 H192       -3.5730  -20.9257  -45.0917 H         1 UNK         0.0600 
    193 H193       -4.9890  -20.8997  -46.1347 H         1 UNK         0.0600 
    194 H194       -3.5966  -19.9028  -46.5270 H         1 UNK         0.0600 
    195 H195       -2.3298  -23.5858  -45.1912 H         1 UNK         0.3000 
    196 H196       -4.5626  -25.4552  -44.9611 H         1 UNK         0.0600 
    197 H197       -3.1070  -26.5534  -43.2803 H         1 UNK         0.0600 
    198 H198       -3.2220  -24.8295  -42.9628 H         1 UNK         0.0600 
    199 H199       -1.7674  -25.4969  -43.7013 H         1 UNK         0.0600 
    200 H200       -1.2247  -25.4760  -46.2912 H         1 UNK         0.3000 
    201 H201       -1.1836  -28.1612  -47.1619 H         1 UNK         0.0600 
    202 H202        0.8488  -26.7648  -46.8696 H         1 UNK         0.0600 
    203 H203        0.3660  -25.7376  -48.2175 H         1 UNK         0.0600 
    204 H204        0.7851  -27.4226  -48.4982 H         1 UNK         0.0600 
    205 H205       -2.0581  -25.1657  -48.9650 H         1 UNK         0.3000 
    206 H206       -2.7834  -26.5555  -51.4023 H         1 UNK         0.0600 
    207 H207       -2.0184  -24.1756  -51.3621 H         1 UNK         0.0600 
    208 H208       -3.6241  -24.3050  -52.0651 H         1 UNK         0.0600 
    209 H209       -3.4347  -23.7287  -50.4122 H         1 UNK         0.0600 
    210 H210       -4.3874  -25.9007  -48.4241 H         1 UNK         0.3000 
    211 H211       -6.2949  -26.3205  -47.4766 H         1 UNK         0.0600 
    212 H212       -7.0927  -27.9797  -49.9255 H         1 UNK         0.0600 
    213 H213       -7.8708  -28.0086  -48.3509 H         1 UNK         0.0600 
    214 H214       -6.2154  -28.5742  -48.5158 H         1 UNK         0.0600 
    215 H215       -6.7878  -25.4052  -50.8635 H         1 UNK         0.3000 
    216 H216       -9.3277  -24.0474  -50.4182 H         1 UNK         0.0600 
    217 H217       -9.1429  -23.5787  -52.8503 H         1 UNK         0.0600 
    218 H218       -8.8190  -25.2727  -52.5250 H         1 UNK         0.0600 
    219 H219       -7.4848  -24.1710  -52.8629 H         1 UNK         0.0600 
    220 H220       -7.6182  -22.9348  -48.6364 H         1 UNK         0.3000 
    221 H221       -6.8471  -21.0255  -47.7740 H         1 UNK         0.0600 
    222 H222       -8.8707  -19.7618  -49.6947 H         1 UNK         0.0600 
    223 H223       -9.2662  -20.5179  -48.1519 H         1 UNK         0.0600 
    224 H224       -8.2896  -19.0609  -48.1889 H         1 UNK         0.0600 
    225 H225       -5.2023  -21.9130  -49.9276 H         1 UNK         0.3000 
    226 H226       -3.3567  -21.3956  -51.0305 H         1 UNK         0.0600 
    227 H227       -2.7580  -20.0039  -49.0348 H         1 UNK         0.0600 
    228 H228       -2.0484  -19.4044  -50.5146 H         1 UNK         0.0600 
    229 H229       -3.4414  -18.5870  -49.8282 H         1 UNK         0.0600 
    230 H230       -6.0376  -20.9329  -52.2639 H         1 UNK         0.3000 
    231 H231       -5.8822  -18.8880  -54.2020 H         1 UNK         0.0600 
    232 H232       -7.9740  -20.0752  -53.6636 H         1 UNK         0.0600 
    233 H233       -7.3189  -21.5923  -54.2824 H         1 UNK         0.0600 
    234 H234       -7.6335  -20.2492  -55.3751 H         1 UNK         0.0600 
    235 H235       -3.9351  -21.6656  -54.0033 H         1 UNK         0.3000 
    236 H236       -3.3538  -22.3493  -56.6628 H         1 UNK         0.0600 
    237 H237       -1.2320  -23.2377  -55.6642 H         1 UNK         0.0600 
    238 H238       -1.5580  -22.3609  -54.1739 H         1 UNK         0.0600 
    239 H239       -2.6266  -23.6674  -54.6878 H         1 UNK         0.0600 
    240 H240       -2.4175  -19.4664  -54.8837 H         1 UNK         0.3000 
    241 H241       -0.3727  -18.6096  -56.7768 H         1 UNK         0.0600 
    242 H242       -3.8369  -18.7489  -57.1702 H         1 UNK         0.3800 
    243 H243       -3.8885  -17.5154  -58.4021 H         1 UNK         0.3800 
    244 H244       -0.6615  -16.3598  -55.5649 H         1 UNK         0.0800 
    245 H245       -1.8207  -17.1384  -54.5271 H         1 UNK         0.0800 
    246 H246       -1.1418  -17.5556  -52.3630 H         1 UNK         0.0800 
    247 H247       -0.7538  -19.2467  -52.5826 H         1 UNK         0.0800 
@<TRIPOS>BOND
     1    1    2 1    
     2    1  127 1    
     3    1  128 1    
     4    1  129 1    
     5    2    3 2    
     6    2    4 am   BACKBONE|DICT|INTERRES
     7    4    5 1    
     8    4  130 1    
     9    5    6 1    
    10    5   65 1    
    11    5  131 1    
    12    6    7 1    
    13    6  132 1    
    14    6  133 1    
    15    7    8 1    
    16    8    9 1    
    17    8  134 1    
    18    8  135 1    
    19    9   10 ar   
    20    9   14 ar   
    21   10   11 ar   
    22   10  136 1    
    23   11   12 ar   
    24   11  126 1    
    25   12   13 ar   
    26   12  137 1    
    27   13   14 ar   
    28   13   15 1    
    29   14  138 1    
    30   15   16 1    
    31   15  139 1    
    32   15  140 1    
    33   16   17 1    
    34   17   18 1    
    35   17  141 1    
    36   17  142 1    
    37   18   19 1    
    38   18   67 1    
    39   18  143 1    
    40   19   20 am   BACKBONE|DICT|INTERRES
    41   19  144 1    
    42   20   21 2    
    43   20   22 1    
    44   22   23 1    
    45   22   24 1    
    46   22  145 1    
    47   23  146 1    
    48   23  147 1    
    49   23  148 1    
    50   24   25 am   BACKBONE|DICT|INTERRES
    51   24  149 1    
    52   25   26 2    
    53   25   27 1    
    54   27   28 1    
    55   27   29 1    
    56   27  150 1    
    57   28  151 1    
    58   28  152 1    
    59   28  153 1    
    60   29   30 am   BACKBONE|DICT|INTERRES
    61   29  154 1    
    62   30   31 2    
    63   30   32 1    
    64   32   33 1    
    65   32   34 1    
    66   32  155 1    
    67   33  156 1    
    68   33  157 1    
    69   33  158 1    
    70   34   35 am   BACKBONE|DICT|INTERRES
    71   34  159 1    
    72   35   36 2    
    73   35   37 1    
    74   37   38 1    
    75   37   39 1    
    76   37  160 1    
    77   38  161 1    
    78   38  162 1    
    79   38  163 1    
    80   39   40 am   BACKBONE|DICT|INTERRES
    81   39  164 1    
    82   40   41 2    
    83   40   42 1    
    84   42   43 1    
    85   42   44 1    
    86   42  165 1    
    87   43  166 1    
    88   43  167 1    
    89   43  168 1    
    90   44   45 am   BACKBONE|DICT|INTERRES
    91   44  169 1    
    92   45   46 2    
    93   45   47 1    
    94   47   48 1    
    95   47   49 1    
    96   47  170 1    
    97   48  171 1    
    98   48  172 1    
    99   48  173 1    
   100   49   50 am   BACKBONE|DICT|INTERRES
   101   49  174 1    
   102   50   51 2    
   103   50   52 1    
   104   52   53 1    
   105   52   54 1    
   106   52  175 1    
   107   53  176 1    
   108   53  177 1    
   109   53  178 1    
   110   54   55 am   BACKBONE|DICT|INTERRES
   111   54  179 1    
   112   55   56 2    
   113   55   57 1    
   114   57   58 1    
   115   57   59 1    
   116   57  180 1    
   117   58  181 1    
   118   58  182 1    
   119   58  183 1    
   120   59   60 am   BACKBONE|DICT|INTERRES
   121   59  184 1    
   122   60   61 2    
   123   60   62 1    
   124   62   63 1    
   125   62   64 1    
   126   62  185 1    
   127   63  186 1    
   128   63  187 1    
   129   63  188 1    
   130   64   65 am   BACKBONE|DICT|INTERRES
   131   64  189 1    
   132   65   66 2    
   133   67   68 2    
   134   67   69 am   BACKBONE|DICT|INTERRES
   135   69   70 1    
   136   69  190 1    
   137   70   71 1    
   138   70   72 1    
   139   70  191 1    
   140   71  192 1    
   141   71  193 1    
   142   71  194 1    
   143   72   73 2    
   144   72   74 am   BACKBONE|DICT|INTERRES
   145   74   75 1    
   146   74  195 1    
   147   75   76 1    
   148   75   77 1    
   149   75  196 1    
   150   76  197 1    
   151   76  198 1    
   152   76  199 1    
   153   77   78 2    
   154   77   79 am   BACKBONE|DICT|INTERRES
   155   79   80 1    
   156   79  200 1    
   157   80   81 1    
   158   80   82 1    
   159   80  201 1    
   160   81  202 1    
   161   81  203 1    
   162   81  204 1    
   163   82   83 2    
   164   82   84 am   BACKBONE|DICT|INTERRES
   165   84   85 1    
   166   84  205 1    
   167   85   86 1    
   168   85   87 1    
   169   85  206 1    
   170   86  207 1    
   171   86  208 1    
   172   86  209 1    
   173   87   88 2    
   174   87   89 am   BACKBONE|DICT|INTERRES
   175   89   90 1    
   176   89  210 1    
   177   90   91 1    
   178   90   92 1    
   179   90  211 1    
   180   91  212 1    
   181   91  213 1    
   182   91  214 1    
   183   92   93 2    
   184   92   94 am   BACKBONE|DICT|INTERRES
   185   94   95 1    
   186   94  215 1    
   187   95   96 1    
   188   95   97 1    
   189   95  216 1    
   190   96  217 1    
   191   96  218 1    
   192   96  219 1    
   193   97   98 2    
   194   97   99 am   BACKBONE|DICT|INTERRES
   195   99  100 1    
   196   99  220 1    
   197  100  101 1    
   198  100  102 1    
   199  100  221 1    
   200  101  222 1    
   201  101  223 1    
   202  101  224 1    
   203  102  103 2    
   204  102  104 am   BACKBONE|DICT|INTERRES
   205  104  105 1    
   206  104  225 1    
   207  105  106 1    
   208  105  107 1    
   209  105  226 1    
   210  106  227 1    
   211  106  228 1    
   212  106  229 1    
   213  107  108 2    
   214  107  109 am   BACKBONE|DICT|INTERRES
   215  109  110 1    
   216  109  230 1    
   217  110  111 1    
   218  110  112 1    
   219  110  231 1    
   220  111  232 1    
   221  111  233 1    
   222  111  234 1    
   223  112  113 2    
   224  112  114 am   BACKBONE|DICT|INTERRES
   225  114  115 1    
   226  114  235 1    
   227  115  116 1    
   228  115  117 1    
   229  115  236 1    
   230  116  237 1    
   231  116  238 1    
   232  116  239 1    
   233  117  118 2    
   234  117  119 am   BACKBONE|DICT|INTERRES
   235  119  120 1    
   236  119  240 1    
   237  120  121 1    
   238  120  124 1    
   239  120  241 1    
   240  121  122 am   BACKBONE|DICT|INTERRES
   241  121  123 2    
   242  122  242 1    
   243  122  243 1    
   244  124  125 1    
   245  124  244 1    
   246  124  245 1    
   247  125  126 1    
   248  126  246 1    
   249  126  247 1    
@<TRIPOS>SUBSTRUCTURE
     1 UNK         1 GROUP             0       ****    0 ROOT    
