@<TRIPOS>MOLECULE
3R540
247   249    1
SMALL
USER_CHARGES


@<TRIPOS>ATOM
      1 CA          1.1599   -9.8275  -46.6509 C.3       0 UNK        -0.1800 
      2 C           1.9507  -10.9220  -47.3531 C.2       0 UNK         0.5000 
      3 O           3.0431  -10.6626  -47.8577 O.2       0 UNK        -0.5000 
      4 N           1.4051  -12.1447  -47.3840 N.am      1 UNK        -0.5000 
      5 CA          2.0184  -13.3260  -48.0095 C.3       1 UNK         0.1400 
      6 C6          0.9775  -14.4381  -48.2833 C.3       23 UNK        -0.0398 
      7 S7         -0.2824  -13.9087  -49.4924 S.3       23 UNK        -0.2404 
      8 C8          0.3799  -14.6073  -51.0394 C.3       23 UNK        -0.0205 
      9 C9          0.1180  -16.1021  -51.1381 C.ar      23 UNK        -0.0193 
     10 C10        -1.1208  -16.5643  -51.5928 C.ar      23 UNK        -0.1150 
     11 C11        -1.3882  -17.9355  -51.6664 C.ar      23 UNK        -0.0193 
     12 C12        -0.3894  -18.8384  -51.2929 C.ar      23 UNK        -0.1150 
     13 C13         0.8539  -18.3953  -50.8323 C.ar      23 UNK        -0.0193 
     14 C14         1.1071  -17.0221  -50.7765 C.ar      23 UNK        -0.1150 
     15 C15         1.9192  -19.4145  -50.4363 C.3       23 UNK        -0.0205 
     16 S16         2.7507  -19.0825  -48.8410 S.3       23 UNK        -0.2404 
     17 C17         1.3915  -18.9509  -47.6287 C.3       23 UNK        -0.0398 
     18 CA          0.6577  -20.2914  -47.3326 C.3       11 UNK         0.1400 
     19 N           0.3846  -20.4860  -45.9034 N.am      11 UNK        -0.5000 
     20 C          -0.1542  -21.5887  -45.3579 C.2       10 UNK         0.5000 
     21 O          -0.3920  -22.6234  -45.9818 O.2       10 UNK        -0.5000 
     22 CA         -0.5546  -21.5058  -43.8730 C.3       10 UNK         0.1400 
     23 CB          0.6432  -21.8046  -42.9599 C.3       10 UNK        -0.1800 
     24 N          -1.1472  -20.2134  -43.5216 N.am      10 UNK        -0.5000 
     25 C          -2.2973  -19.7490  -44.0331 C.2       9 UNK         0.5000 
     26 O          -3.0070  -20.3926  -44.8049 O.2       9 UNK        -0.5000 
     27 CA         -2.7032  -18.3116  -43.6619 C.3       9 UNK         0.1400 
     28 CB         -3.4055  -18.2793  -42.2967 C.3       9 UNK        -0.1800 
     29 N          -1.5701  -17.3861  -43.6583 N.am      9 UNK        -0.5000 
     30 C          -0.8370  -17.0686  -44.7354 C.2       8 UNK         0.5000 
     31 O          -1.0682  -17.4857  -45.8702 O.2       8 UNK        -0.5000 
     32 CA          0.4043  -16.1914  -44.4907 C.3       8 UNK         0.1400 
     33 CB          0.0247  -14.7096  -44.3499 C.3       8 UNK        -0.1800 
     34 N           1.1558  -16.6216  -43.3119 N.am      8 UNK        -0.5000 
     35 C           1.7718  -17.8068  -43.1979 C.2       7 UNK         0.5000 
     36 O           1.8085  -18.6450  -44.0978 O.2       7 UNK        -0.5000 
     37 CA          2.4069  -18.1312  -41.8348 C.3       7 UNK         0.1400 
     38 CB          3.8161  -17.5328  -41.7139 C.3       7 UNK        -0.1800 
     39 N           1.5779  -17.6678  -40.7231 N.am      7 UNK        -0.5000 
     40 C           0.4028  -18.2149  -40.3821 C.2       6 UNK         0.5000 
     41 O          -0.0851  -19.1934  -40.9466 O.2       6 UNK        -0.5000 
     42 CA         -0.3754  -17.5226  -39.2489 C.3       6 UNK         0.1400 
     43 CB          0.1358  -17.9867  -37.8770 C.3       6 UNK        -0.1800 
     44 N          -0.2980  -16.0629  -39.3287 N.am      6 UNK        -0.5000 
     45 C          -0.8360  -15.3306  -40.3143 C.2       5 UNK         0.5000 
     46 O          -1.4841  -15.8081  -41.2441 O.2       5 UNK        -0.5000 
     47 CA         -0.5630  -13.8162  -40.2810 C.3       5 UNK         0.1400 
     48 CB         -1.6142  -13.0972  -39.4227 C.3       5 UNK        -0.1800 
     49 N           0.7774  -13.4799  -39.7936 N.am      5 UNK        -0.5000 
     50 C           1.9179  -13.8298  -40.4014 C.2       4 UNK         0.5000 
     51 O           1.9701  -14.5165  -41.4254 O.2       4 UNK        -0.5000 
     52 CA          3.2166  -13.3787  -39.7241 C.3       4 UNK         0.1400 
     53 CB          3.7379  -14.4747  -38.7809 C.3       4 UNK        -0.1800 
     54 N           4.2161  -13.1168  -40.7535 N.am      4 UNK        -0.5000 
     55 C           4.9681  -12.0136  -40.8436 C.2       3 UNK         0.5000 
     56 O           4.9462  -11.1044  -40.0125 O.2       3 UNK        -0.5000 
     57 CA          5.9153  -11.8952  -42.0568 C.3       3 UNK         0.1400 
     58 CB          7.3736  -12.1075  -41.6196 C.3       3 UNK        -0.1800 
     59 N           5.6153  -12.8248  -43.1501 N.am      3 UNK        -0.5000 
     60 C           4.5593  -12.7337  -43.9675 C.2       2 UNK         0.5000 
     61 O           3.6990  -11.8521  -43.8851 O.2       2 UNK        -0.5000 
     62 CA          4.4453  -13.8241  -45.0432 C.3       2 UNK         0.1400 
     63 CB          4.1959  -15.2046  -44.4139 C.3       2 UNK        -0.1800 
     64 N           3.3477  -13.4821  -45.9378 N.am      2 UNK        -0.5000 
     65 C           3.2127  -13.8869  -47.2049 C.2       1 UNK         0.5000 
     66 O           3.9899  -14.6697  -47.7523 O.2       1 UNK        -0.5000 
     67 C          -0.6401  -20.3919  -48.1563 C.2       11 UNK         0.5000 
     68 O          -0.7008  -21.1738  -49.1031 O.2       11 UNK        -0.5000 
     69 N          -1.6542  -19.6084  -47.7604 N.am      12 UNK        -0.5000 
     70 CA         -2.9535  -19.5274  -48.4251 C.3       12 UNK         0.1400 
     71 CB         -3.7908  -18.4121  -47.7834 C.3       12 UNK        -0.1800 
     72 C          -3.7246  -20.8579  -48.4409 C.2       12 UNK         0.5000 
     73 O          -4.4009  -21.1482  -49.4257 O.2       12 UNK        -0.5000 
     74 N          -3.6002  -21.6414  -47.3624 N.am      13 UNK        -0.5000 
     75 CA         -4.1273  -22.9966  -47.2568 C.3       13 UNK         0.1400 
     76 CB         -4.1431  -23.4285  -45.7807 C.3       13 UNK        -0.1800 
     77 C          -3.3323  -23.9813  -48.1327 C.2       13 UNK         0.5000 
     78 O          -3.8865  -24.5062  -49.1009 O.2       13 UNK        -0.5000 
     79 N          -2.0579  -24.2076  -47.7691 N.am      14 UNK        -0.5000 
     80 CA         -1.1039  -25.1502  -48.3658 C.3       14 UNK         0.1400 
     81 CB         -0.4498  -24.5153  -49.6089 C.3       14 UNK        -0.1800 
     82 C          -1.7326  -26.5384  -48.6186 C.2       14 UNK         0.5000 
     83 O          -2.0367  -27.2452  -47.6558 O.2       14 UNK        -0.5000 
     84 N          -1.9617  -26.8744  -49.8921 N.am      15 UNK        -0.5000 
     85 CA         -2.8165  -27.9660  -50.3342 C.3       15 UNK         0.1400 
     86 CB         -1.9544  -29.0904  -50.9288 C.3       15 UNK        -0.1800 
     87 C          -3.7726  -27.3862  -51.3844 C.2       15 UNK         0.5000 
     88 O          -3.3078  -26.7373  -52.3257 O.2       15 UNK        -0.5000 
     89 N          -5.0798  -27.6190  -51.2011 N.am      16 UNK        -0.5000 
     90 CA         -6.1790  -27.2310  -52.0959 C.3       16 UNK         0.1400 
     91 CB         -6.1447  -28.0947  -53.3749 C.3       16 UNK        -0.1800 
     92 C          -6.2283  -25.7179  -52.4046 C.2       16 UNK         0.5000 
     93 O          -6.3989  -25.3352  -53.5620 O.2       16 UNK        -0.5000 
     94 N          -6.0414  -24.8851  -51.3695 N.am      17 UNK        -0.5000 
     95 CA         -5.9425  -23.4187  -51.4327 C.3       17 UNK         0.1400 
     96 CB         -7.2836  -22.7851  -51.8576 C.3       17 UNK        -0.1800 
     97 C          -4.7511  -22.9537  -52.2987 C.2       17 UNK         0.5000 
     98 O          -4.8925  -22.0450  -53.1211 O.2       17 UNK        -0.5000 
     99 N          -3.6142  -23.6427  -52.1189 N.am      18 UNK        -0.5000 
    100 CA        -2.3736  -23.5472  -52.8930 C.3       18 UNK         0.1400 
    101 CB        -1.6766  -22.2002  -52.6316 C.3       18 UNK        -0.1800 
    102 C         -2.6071  -23.8329  -54.3881 C.2       18 UNK         0.5000 
    103 O         -2.2735  -23.0083  -55.2393 O.2       18 UNK        -0.5000 
    104 N         -3.2194  -24.9927  -54.6681 N.am      19 UNK        -0.5000 
    105 CA        -3.6553  -25.4577  -55.9907 C.3       19 UNK         0.1400 
    106 CB        -2.4386  -25.8277  -56.8638 C.3       19 UNK        -0.1800 
    107 C         -4.6142  -24.4573  -56.6742 C.2       19 UNK         0.5000 
    108 O         -4.4275  -24.1009  -57.8389 O.2       19 UNK        -0.5000 
    109 N         -5.6102  -24.0083  -55.9003 N.am      20 UNK        -0.5000 
    110 CA        -6.6658  -23.0482  -56.2255 C.3       20 UNK         0.1400 
    111 CB        -7.5379  -23.5581  -57.3913 C.3       20 UNK        -0.1800 
    112 C         -6.1971  -21.5932  -56.4402 C.2       20 UNK         0.5000 
    113 O         -7.0276  -20.7587  -56.8042 O.2       20 UNK        -0.5000 
    114 N         -4.9204  -21.2739  -56.1752 N.am      21 UNK        -0.5000 
    115 CA        -4.3646  -19.9201  -56.3013 C.3       21 UNK         0.1400 
    116 CB        -2.8422  -19.9602  -56.1106 C.3       21 UNK        -0.1800 
    117 C         -5.0014  -18.9011  -55.3353 C.2       21 UNK         0.5000 
    118 O         -5.1576  -17.7358  -55.7020 O.2       21 UNK        -0.5000 
    119 N         -5.3845  -19.3694  -54.1428 N.am      22 UNK        -0.5000 
    120 CA        -6.1706  -18.6291  -53.1443 C.3       22 UNK         0.1400 
    121 C         -7.6771  -19.0339  -53.1542 C.2       22 UNK         0.5000 
    122 N         -8.1796  -19.7381  -54.1626 N.am      22 UNK        -0.7600 
    123 O         -8.4216  -18.6831  -52.2429 O.2       22 UNK        -0.5000 
    124 C124       -5.5247  -18.7481  -51.7368 C.3       23 UNK        -0.0398 
    125 S125       -4.1631  -17.5579  -51.4867 S.3       23 UNK        -0.2404 
    126 C126       -2.7333  -18.4652  -52.1605 C.3       23 UNK        -0.0205 
    127 H127        0.9596   -9.0074  -47.3402 H         1 UNK         0.0600 
    128 H128        1.7304   -9.4359  -45.8087 H         1 UNK         0.0600 
    129 H129        0.2055  -10.1951  -46.2733 H         1 UNK         0.0600 
    130 H130        0.4926  -12.2892  -46.9762 H         1 UNK         0.3000 
    131 H131        2.4280  -13.0146  -48.9731 H         1 UNK         0.0600 
    132 H132        0.4681  -14.7242  -47.3633 H         1 UNK         0.0800 
    133 H133        1.4616  -15.3456  -48.6424 H         1 UNK         0.0800 
    134 H134        1.4474  -14.3946  -51.1155 H         1 UNK         0.0800 
    135 H135       -0.0908  -14.1003  -51.8830 H         1 UNK         0.0800 
    136 H136       -1.8812  -15.8517  -51.8797 H         1 UNK         0.1150 
    137 H137       -0.5826  -19.8985  -51.3569 H         1 UNK         0.1150 
    138 H138        2.0733  -16.6724  -50.4413 H         1 UNK         0.1150 
    139 H139        1.4997  -20.4207  -50.4051 H         1 UNK         0.0800 
    140 H140        2.6781  -19.4333  -51.2192 H         1 UNK         0.0800 
    141 H141        0.7122  -18.1527  -47.9351 H         1 UNK         0.0800 
    142 H142        1.8581  -18.5769  -46.7176 H         1 UNK         0.0800 
    143 H143        1.3027  -21.1201  -47.6324 H         1 UNK         0.0600 
    144 H144        0.5989  -19.7054  -45.2911 H         1 UNK         0.3000 
    145 H145       -1.3107  -22.2729  -43.6934 H         1 UNK         0.0600 
    146 H146        0.3481  -21.8078  -41.9106 H         1 UNK         0.0600 
    147 H147        1.0655  -22.7855  -43.1816 H         1 UNK         0.0600 
    148 H148        1.4395  -21.0715  -43.0818 H         1 UNK         0.0600 
    149 H149       -0.6496  -19.6523  -42.8383 H         1 UNK         0.3000 
    150 H150       -3.4125  -17.9627  -44.4147 H         1 UNK         0.0600 
    151 H151       -3.7725  -17.2789  -42.0667 H         1 UNK         0.0600 
    152 H152       -4.2640  -18.9519  -42.2828 H         1 UNK         0.0600 
    153 H153       -2.7363  -18.5828  -41.4915 H         1 UNK         0.0600 
    154 H154       -1.3441  -16.9526  -42.7671 H         1 UNK         0.3000 
    155 H155        1.0598  -16.2919  -45.3585 H         1 UNK         0.0600 
    156 H156       -0.6091  -14.5380  -43.4808 H         1 UNK         0.0600 
    157 H157       -0.5242  -14.3590  -45.2240 H         1 UNK         0.0600 
    158 H158        0.9111  -14.0837  -44.2444 H         1 UNK         0.0600 
    159 H159        1.2188  -15.9632  -42.5416 H         1 UNK         0.3000 
    160 H160        2.4980  -19.2170  -41.7638 H         1 UNK         0.0600 
    161 H161        3.7972  -16.4437  -41.7071 H         1 UNK         0.0600 
    162 H162        4.4462  -17.8467  -42.5471 H         1 UNK         0.0600 
    163 H163        4.3039  -17.8618  -40.7964 H         1 UNK         0.0600 
    164 H164        1.8827  -16.8344  -40.2438 H         1 UNK         0.3000 
    165 H165       -1.4243  -17.8130  -39.3393 H         1 UNK         0.0600 
    166 H166       -0.4599  -17.5602  -37.0698 H         1 UNK         0.0600 
    167 H167        0.0754  -19.0720  -37.7855 H         1 UNK         0.0600 
    168 H168        1.1758  -17.7007  -37.7146 H         1 UNK         0.0600 
    169 H169        0.2175  -15.5894  -38.6018 H         1 UNK         0.3000 
    170 H170       -0.6476  -13.4434  -41.3036 H         1 UNK         0.0600 
    171 H171       -2.6226  -13.3152  -39.7773 H         1 UNK         0.0600 
    172 H172       -1.5604  -13.4035  -38.3773 H         1 UNK         0.0600 
    173 H173       -1.4842  -12.0156  -39.4636 H         1 UNK         0.0600 
    174 H174        0.8211  -12.9265  -38.9498 H         1 UNK         0.3000 
    175 H175        3.0103  -12.4754  -39.1463 H         1 UNK         0.0600 
    176 H176        3.9491  -15.4018  -39.3152 H         1 UNK         0.0600 
    177 H177        4.6565  -14.1598  -38.2855 H         1 UNK         0.0600 
    178 H178        3.0101  -14.7015  -38.0008 H         1 UNK         0.0600 
    179 H179        4.2319  -13.7808  -41.5145 H         1 UNK         0.3000 
    180 H180        5.8207  -10.8773  -42.4410 H         1 UNK         0.0600 
    181 H181        7.5352  -13.1153  -41.2350 H         1 UNK         0.0600 
    182 H182        7.6527  -11.4071  -40.8313 H         1 UNK         0.0600 
    183 H183        8.0623  -11.9491  -42.4498 H         1 UNK         0.0600 
    184 H184        6.2727  -13.5799  -43.2831 H         1 UNK         0.3000 
    185 H185        5.3785  -13.8401  -45.6102 H         1 UNK         0.0600 
    186 H186        5.0559  -15.5358  -43.8317 H         1 UNK         0.0600 
    187 H187        3.3382  -15.1715  -43.7453 H         1 UNK         0.0600 
    188 H188        4.0049  -15.9672  -45.1691 H         1 UNK         0.0600 
    189 H189        2.7198  -12.7783  -45.5697 H         1 UNK         0.3000 
    190 H190       -1.5048  -18.9718  -46.9817 H         1 UNK         0.3000 
    191 H191       -2.7627  -19.2536  -49.4613 H         1 UNK         0.0600 
    192 H192       -3.2784  -17.4516  -47.8434 H         1 UNK         0.0600 
    193 H193       -4.7482  -18.3021  -48.2942 H         1 UNK         0.0600 
    194 H194       -3.9987  -18.6188  -46.7337 H         1 UNK         0.0600 
    195 H195       -3.0863  -21.2846  -46.5628 H         1 UNK         0.3000 
    196 H196       -5.1595  -22.9935  -47.6137 H         1 UNK         0.0600 
    197 H197       -4.5013  -24.4534  -45.6765 H         1 UNK         0.0600 
    198 H198       -4.8053  -22.7907  -45.1949 H         1 UNK         0.0600 
    199 H199       -3.1522  -23.3767  -45.3283 H         1 UNK         0.0600 
    200 H200       -1.6817  -23.6733  -46.9911 H         1 UNK         0.3000 
    201 H201       -0.3173  -25.3063  -47.6261 H         1 UNK         0.0600 
    202 H202        0.1666  -23.6636  -49.3229 H         1 UNK         0.0600 
    203 H203       -1.1967  -24.1538  -50.3124 H         1 UNK         0.0600 
    204 H204        0.2041  -25.2172  -50.1279 H         1 UNK         0.0600 
    205 H205       -1.7172  -26.2156  -50.6178 H         1 UNK         0.3000 
    206 H206       -3.3993  -28.3649  -49.5011 H         1 UNK         0.0600 
    207 H207       -1.2700  -29.4956  -50.1833 H         1 UNK         0.0600 
    208 H208       -2.5770  -29.9130  -51.2825 H         1 UNK         0.0600 
    209 H209       -1.3595  -28.7400  -51.7734 H         1 UNK         0.0600 
    210 H210       -5.3592  -28.1373  -50.3796 H         1 UNK         0.3000 
    211 H211       -7.1056  -27.4610  -51.5682 H         1 UNK         0.0600 
    212 H212       -5.2546  -27.8967  -53.9729 H         1 UNK         0.0600 
    213 H213       -7.0131  -27.8991  -54.0051 H         1 UNK         0.0600 
    214 H214       -6.1550  -29.1574  -53.1330 H         1 UNK         0.0600 
    215 H215       -5.8446  -25.2894  -50.4636 H         1 UNK         0.3000 
    216 H216       -5.7393  -23.0868  -50.4158 H         1 UNK         0.0600 
    217 H217       -7.2442  -21.7001  -51.7595 H         1 UNK         0.0600 
    218 H218       -8.1025  -23.1368  -51.2306 H         1 UNK         0.0600 
    219 H219       -7.5333  -23.0094  -52.8943 H         1 UNK         0.0600 
    220 H220       -3.6334  -24.3644  -51.4099 H         1 UNK         0.3000 
    221 H221       -1.7162  -24.3394  -52.5352 H         1 UNK         0.0600 
    222 H222       -1.5547  -22.0249  -51.5632 H         1 UNK         0.0600 
    223 H223       -2.2465  -21.3707  -53.0456 H         1 UNK         0.0600 
    224 H224       -0.6856  -22.1764  -53.0856 H         1 UNK         0.0600 
    225 H225       -3.4367  -25.6074  -53.8871 H         1 UNK         0.3000 
    226 H226       -4.2311  -26.3687  -55.8222 H         1 UNK         0.0600 
    227 H227       -1.8003  -26.5541  -56.3609 H         1 UNK         0.0600 
    228 H228       -2.7567  -26.2733  -57.8069 H         1 UNK         0.0600 
    229 H229       -1.8300  -24.9552  -57.1031 H         1 UNK         0.0600 
    230 H230       -5.6876  -24.4027  -54.9639 H         1 UNK         0.3000 
    231 H231       -7.3013  -23.0171  -55.3399 H         1 UNK         0.0600 
    232 H232       -6.9963  -23.5514  -58.3373 H         1 UNK         0.0600 
    233 H233       -8.4234  -22.9348  -57.5204 H         1 UNK         0.0600 
    234 H234       -7.8848  -24.5752  -57.2085 H         1 UNK         0.0600 
    235 H235       -4.2938  -21.9953  -55.8402 H         1 UNK         0.3000 
    236 H236       -4.5664  -19.5772  -57.3180 H         1 UNK         0.0600 
    237 H237       -2.4034  -18.9725  -56.2571 H         1 UNK         0.0600 
    238 H238       -2.5733  -20.2917  -55.1081 H         1 UNK         0.0600 
    239 H239       -2.3717  -20.6356  -56.8253 H         1 UNK         0.0600 
    240 H240       -5.2142  -20.3494  -53.9247 H         1 UNK         0.3000 
    241 H241       -6.1863  -17.5706  -53.4089 H         1 UNK         0.0600 
    242 H242       -7.6165  -19.9795  -54.9681 H         1 UNK         0.3800 
    243 H243       -9.1588  -19.9746  -54.1521 H         1 UNK         0.3800 
    244 H244       -6.2455  -18.5364  -50.9459 H         1 UNK         0.0800 
    245 H245       -5.1798  -19.7653  -51.5496 H         1 UNK         0.0800 
    246 H246       -2.8406  -19.5148  -51.8874 H         1 UNK         0.0800 
    247 H247       -2.7557  -18.4177  -53.2492 H         1 UNK         0.0800 
@<TRIPOS>BOND
     1    1    2 1    
     2    1  127 1    
     3    1  128 1    
     4    1  129 1    
     5    2    3 2    
     6    2    4 am   BACKBONE|DICT|INTERRES
     7    4    5 1    
     8    4  130 1    
     9    5    6 1    
    10    5   65 1    
    11    5  131 1    
    12    6    7 1    
    13    6  132 1    
    14    6  133 1    
    15    7    8 1    
    16    8    9 1    
    17    8  134 1    
    18    8  135 1    
    19    9   10 ar   
    20    9   14 ar   
    21   10   11 ar   
    22   10  136 1    
    23   11   12 ar   
    24   11  126 1    
    25   12   13 ar   
    26   12  137 1    
    27   13   14 ar   
    28   13   15 1    
    29   14  138 1    
    30   15   16 1    
    31   15  139 1    
    32   15  140 1    
    33   16   17 1    
    34   17   18 1    
    35   17  141 1    
    36   17  142 1    
    37   18   19 1    
    38   18   67 1    
    39   18  143 1    
    40   19   20 am   BACKBONE|DICT|INTERRES
    41   19  144 1    
    42   20   21 2    
    43   20   22 1    
    44   22   23 1    
    45   22   24 1    
    46   22  145 1    
    47   23  146 1    
    48   23  147 1    
    49   23  148 1    
    50   24   25 am   BACKBONE|DICT|INTERRES
    51   24  149 1    
    52   25   26 2    
    53   25   27 1    
    54   27   28 1    
    55   27   29 1    
    56   27  150 1    
    57   28  151 1    
    58   28  152 1    
    59   28  153 1    
    60   29   30 am   BACKBONE|DICT|INTERRES
    61   29  154 1    
    62   30   31 2    
    63   30   32 1    
    64   32   33 1    
    65   32   34 1    
    66   32  155 1    
    67   33  156 1    
    68   33  157 1    
    69   33  158 1    
    70   34   35 am   BACKBONE|DICT|INTERRES
    71   34  159 1    
    72   35   36 2    
    73   35   37 1    
    74   37   38 1    
    75   37   39 1    
    76   37  160 1    
    77   38  161 1    
    78   38  162 1    
    79   38  163 1    
    80   39   40 am   BACKBONE|DICT|INTERRES
    81   39  164 1    
    82   40   41 2    
    83   40   42 1    
    84   42   43 1    
    85   42   44 1    
    86   42  165 1    
    87   43  166 1    
    88   43  167 1    
    89   43  168 1    
    90   44   45 am   BACKBONE|DICT|INTERRES
    91   44  169 1    
    92   45   46 2    
    93   45   47 1    
    94   47   48 1    
    95   47   49 1    
    96   47  170 1    
    97   48  171 1    
    98   48  172 1    
    99   48  173 1    
   100   49   50 am   BACKBONE|DICT|INTERRES
   101   49  174 1    
   102   50   51 2    
   103   50   52 1    
   104   52   53 1    
   105   52   54 1    
   106   52  175 1    
   107   53  176 1    
   108   53  177 1    
   109   53  178 1    
   110   54   55 am   BACKBONE|DICT|INTERRES
   111   54  179 1    
   112   55   56 2    
   113   55   57 1    
   114   57   58 1    
   115   57   59 1    
   116   57  180 1    
   117   58  181 1    
   118   58  182 1    
   119   58  183 1    
   120   59   60 am   BACKBONE|DICT|INTERRES
   121   59  184 1    
   122   60   61 2    
   123   60   62 1    
   124   62   63 1    
   125   62   64 1    
   126   62  185 1    
   127   63  186 1    
   128   63  187 1    
   129   63  188 1    
   130   64   65 am   BACKBONE|DICT|INTERRES
   131   64  189 1    
   132   65   66 2    
   133   67   68 2    
   134   67   69 am   BACKBONE|DICT|INTERRES
   135   69   70 1    
   136   69  190 1    
   137   70   71 1    
   138   70   72 1    
   139   70  191 1    
   140   71  192 1    
   141   71  193 1    
   142   71  194 1    
   143   72   73 2    
   144   72   74 am   BACKBONE|DICT|INTERRES
   145   74   75 1    
   146   74  195 1    
   147   75   76 1    
   148   75   77 1    
   149   75  196 1    
   150   76  197 1    
   151   76  198 1    
   152   76  199 1    
   153   77   78 2    
   154   77   79 am   BACKBONE|DICT|INTERRES
   155   79   80 1    
   156   79  200 1    
   157   80   81 1    
   158   80   82 1    
   159   80  201 1    
   160   81  202 1    
   161   81  203 1    
   162   81  204 1    
   163   82   83 2    
   164   82   84 am   BACKBONE|DICT|INTERRES
   165   84   85 1    
   166   84  205 1    
   167   85   86 1    
   168   85   87 1    
   169   85  206 1    
   170   86  207 1    
   171   86  208 1    
   172   86  209 1    
   173   87   88 2    
   174   87   89 am   BACKBONE|DICT|INTERRES
   175   89   90 1    
   176   89  210 1    
   177   90   91 1    
   178   90   92 1    
   179   90  211 1    
   180   91  212 1    
   181   91  213 1    
   182   91  214 1    
   183   92   93 2    
   184   92   94 am   BACKBONE|DICT|INTERRES
   185   94   95 1    
   186   94  215 1    
   187   95   96 1    
   188   95   97 1    
   189   95  216 1    
   190   96  217 1    
   191   96  218 1    
   192   96  219 1    
   193   97   98 2    
   194   97   99 am   BACKBONE|DICT|INTERRES
   195   99  100 1    
   196   99  220 1    
   197  100  101 1    
   198  100  102 1    
   199  100  221 1    
   200  101  222 1    
   201  101  223 1    
   202  101  224 1    
   203  102  103 2    
   204  102  104 am   BACKBONE|DICT|INTERRES
   205  104  105 1    
   206  104  225 1    
   207  105  106 1    
   208  105  107 1    
   209  105  226 1    
   210  106  227 1    
   211  106  228 1    
   212  106  229 1    
   213  107  108 2    
   214  107  109 am   BACKBONE|DICT|INTERRES
   215  109  110 1    
   216  109  230 1    
   217  110  111 1    
   218  110  112 1    
   219  110  231 1    
   220  111  232 1    
   221  111  233 1    
   222  111  234 1    
   223  112  113 2    
   224  112  114 am   BACKBONE|DICT|INTERRES
   225  114  115 1    
   226  114  235 1    
   227  115  116 1    
   228  115  117 1    
   229  115  236 1    
   230  116  237 1    
   231  116  238 1    
   232  116  239 1    
   233  117  118 2    
   234  117  119 am   BACKBONE|DICT|INTERRES
   235  119  120 1    
   236  119  240 1    
   237  120  121 1    
   238  120  124 1    
   239  120  241 1    
   240  121  122 am   BACKBONE|DICT|INTERRES
   241  121  123 2    
   242  122  242 1    
   243  122  243 1    
   244  124  125 1    
   245  124  244 1    
   246  124  245 1    
   247  125  126 1    
   248  126  246 1    
   249  126  247 1    
@<TRIPOS>SUBSTRUCTURE
     1 UNK         1 GROUP             0       ****    0 ROOT    
