@<TRIPOS>MOLECULE
3R540
247   249    1
SMALL
USER_CHARGES


@<TRIPOS>ATOM
      1 CA          5.6103  -15.7080  -50.3871 C.3       0 UNK        -0.1800 
      2 C           4.8106  -16.0444  -49.1361 C.2       0 UNK         0.5000 
      3 O           5.2999  -16.7760  -48.2748 O.2       0 UNK        -0.5000 
      4 N           3.5826  -15.5205  -49.0378 N.am      1 UNK        -0.5000 
      5 CA          2.6957  -15.6797  -47.8808 C.3       1 UNK         0.1400 
      6 C6          1.2184  -15.4002  -48.2590 C.3       23 UNK        -0.0398 
      7 S7          0.0765  -16.5208  -47.3840 S.3       23 UNK        -0.2404 
      8 C8         -1.4171  -16.4382  -48.4251 C.3       23 UNK        -0.0205 
      9 C9         -1.1963  -17.0394  -49.8065 C.ar      23 UNK        -0.0193 
     10 C10        -1.0840  -16.2101  -50.9266 C.ar      23 UNK        -0.1150 
     11 C11        -0.8688  -16.7477  -52.1992 C.ar      23 UNK        -0.0193 
     12 C12        -0.7748  -18.1377  -52.3394 C.ar      23 UNK        -0.1150 
     13 C13        -0.8828  -18.9777  -51.2302 C.ar      23 UNK        -0.0193 
     14 C14        -1.1084  -18.4245  -49.9665 C.ar      23 UNK        -0.1150 
     15 C15        -0.7874  -20.4821  -51.4165 C.3       23 UNK        -0.0205 
     16 S16         0.9213  -21.1072  -51.3658 S.3       23 UNK        -0.2404 
     17 C17         1.3605  -20.9651  -49.6006 C.3       23 UNK        -0.0398 
     18 CA          0.9330  -22.1901  -48.7456 C.3       11 UNK         0.1400 
     19 N           1.8634  -22.4183  -47.6375 N.am      11 UNK        -0.5000 
     20 C           1.8424  -23.4724  -46.8084 C.2       10 UNK         0.5000 
     21 O           1.0695  -24.4222  -46.9237 O.2       10 UNK        -0.5000 
     22 CA          2.8276  -23.4333  -45.6241 C.3       10 UNK         0.1400 
     23 CB          4.1523  -24.1113  -46.0040 C.3       10 UNK        -0.1800 
     24 N           3.0996  -22.0758  -45.1405 N.am      10 UNK        -0.5000 
     25 C           2.1805  -21.2506  -44.6212 C.2       9 UNK         0.5000 
     26 O           0.9871  -21.5392  -44.5046 O.2       9 UNK        -0.5000 
     27 CA          2.6698  -19.8412  -44.2537 C.3       9 UNK         0.1400 
     28 CB          2.4441  -18.8867  -45.4349 C.3       9 UNK        -0.1800 
     29 N           1.9847  -19.3243  -43.0701 N.am      9 UNK        -0.5000 
     30 C           2.2574  -19.7201  -41.8174 C.2       8 UNK         0.5000 
     31 O           3.1507  -20.5236  -41.5431 O.2       8 UNK        -0.5000 
     32 CA          1.4221  -19.1203  -40.6666 C.3       8 UNK         0.1400 
     33 CB          2.2205  -18.0276  -39.9388 C.3       8 UNK        -0.1800 
     34 N           0.1408  -18.5644  -41.0994 N.am      8 UNK        -0.5000 
     35 C          -0.9108  -19.2976  -41.4915 C.2       7 UNK         0.5000 
     36 O          -0.9367  -20.5275  -41.4374 O.2       7 UNK        -0.5000 
     37 CA         -2.1449  -18.5486  -42.0402 C.3       7 UNK         0.1400 
     38 CB         -3.2568  -18.5064  -40.9806 C.3       7 UNK        -0.1800 
     39 N          -1.8988  -17.1820  -42.5115 N.am      7 UNK        -0.5000 
     40 C          -1.0058  -16.8055  -43.4379 C.2       6 UNK         0.5000 
     41 O          -0.2304  -17.5735  -44.0033 O.2       6 UNK        -0.5000 
     42 CA         -0.9169  -15.2991  -43.7334 C.3       6 UNK         0.1400 
     43 CB         -2.0501  -14.8861  -44.6858 C.3       6 UNK        -0.1800 
     44 N          -0.9294  -14.4132  -42.5618 N.am      6 UNK        -0.5000 
     45 C          -0.3142  -14.5791  -41.3779 C.2       5 UNK         0.5000 
     46 O           0.2666  -15.6106  -41.0385 O.2       5 UNK        -0.5000 
     47 CA         -0.3462  -13.3742  -40.4182 C.3       5 UNK         0.1400 
     48 CB          0.7905  -13.4243  -39.3808 C.3       5 UNK        -0.1800 
     49 N          -0.2368  -12.1249  -41.1701 N.am      5 UNK        -0.5000 
     50 C          -1.2263  -11.2474  -41.3790 C.2       4 UNK         0.5000 
     51 O          -2.3633  -11.3842  -40.9267 O.2       4 UNK        -0.5000 
     52 CA         -0.9071  -10.0133  -42.2485 C.3       4 UNK         0.1400 
     53 CB         -0.7529   -8.7631  -41.3684 C.3       4 UNK        -0.1800 
     54 N           0.2978  -10.1615  -43.0686 N.am      4 UNK        -0.5000 
     55 C           0.4148  -10.9687  -44.1314 C.2       3 UNK         0.5000 
     56 O          -0.5051  -11.6703  -44.5535 O.2       3 UNK        -0.5000 
     57 CA          1.7867  -11.0169  -44.8394 C.3       3 UNK         0.1400 
     58 CB          2.8369  -10.0459  -44.2536 C.3       3 UNK        -0.1800 
     59 N           2.3393  -12.3736  -44.8923 N.am      3 UNK        -0.5000 
     60 C           2.5560  -13.2126  -43.8700 C.2       2 UNK         0.5000 
     61 O           2.2762  -12.9379  -42.7015 O.2       2 UNK        -0.5000 
     62 CA          3.2162  -14.5723  -44.2093 C.3       2 UNK         0.1400 
     63 CB          3.0495  -15.6189  -43.0920 C.3       2 UNK        -0.1800 
     64 N           2.7767  -15.1725  -45.4758 N.am      2 UNK        -0.5000 
     65 C           3.1656  -14.7989  -46.7010 C.2       1 UNK         0.5000 
     66 O           3.8449  -13.7912  -46.9146 O.2       1 UNK        -0.5000 
     67 C          -0.5139  -22.0462  -48.2279 C.2       11 UNK         0.5000 
     68 O          -1.4174  -22.7266  -48.7159 O.2       11 UNK        -0.5000 
     69 N          -0.7013  -21.1797  -47.2224 N.am      12 UNK        -0.5000 
     70 CA         -1.9918  -20.9207  -46.5868 C.3       12 UNK         0.1400 
     71 CB         -1.8815  -19.6875  -45.6871 C.3       12 UNK        -0.1800 
     72 C          -2.5036  -22.1322  -45.7929 C.2       12 UNK         0.5000 
     73 O          -3.6879  -22.4551  -45.8886 O.2       12 UNK        -0.5000 
     74 N          -1.5928  -22.8113  -45.0795 N.am      13 UNK        -0.5000 
     75 CA         -1.8537  -24.0426  -44.3281 C.3       13 UNK         0.1400 
     76 CB         -0.5971  -24.4295  -43.5361 C.3       13 UNK        -0.1800 
     77 C          -2.3222  -25.2182  -45.2106 C.2       13 UNK         0.5000 
     78 O          -3.0783  -26.0659  -44.7370 O.2       13 UNK        -0.5000 
     79 N          -1.9206  -25.2174  -46.4891 N.am      14 UNK        -0.5000 
     80 CA         -2.3751  -26.1368  -47.5346 C.3       14 UNK         0.1400 
     81 CB         -1.2519  -26.2939  -48.5755 C.3       14 UNK        -0.1800 
     82 C          -3.7073  -25.6955  -48.1854 C.2       14 UNK         0.5000 
     83 O          -3.9647  -26.0487  -49.3372 O.2       14 UNK        -0.5000 
     84 N          -4.5231  -24.9175  -47.4573 N.am      15 UNK        -0.5000 
     85 CA         -5.8157  -24.3505  -47.8548 C.3       15 UNK         0.1400 
     86 CB         -6.8626  -25.4646  -48.0666 C.3       15 UNK        -0.1800 
     87 C          -5.6804  -23.4100  -49.0664 C.2       15 UNK         0.5000 
     88 O          -6.4146  -23.5497  -50.0443 O.2       15 UNK        -0.5000 
     89 N          -4.6991  -22.4994  -48.9912 N.am      16 UNK        -0.5000 
     90 CA         -4.2694  -21.5848  -50.0571 C.3       16 UNK         0.1400 
     91 CB         -5.3524  -20.5295  -50.3560 C.3       16 UNK        -0.1800 
     92 C          -3.7976  -22.3438  -51.3174 C.2       16 UNK         0.5000 
     93 O          -4.1478  -21.9696  -52.4389 O.2       16 UNK        -0.5000 
     94 N          -3.0191  -23.4113  -51.0855 N.am      17 UNK        -0.5000 
     95 CA         -2.5354  -24.4007  -52.0524 C.3       17 UNK         0.1400 
     96 CB         -1.4493  -23.7909  -52.9595 C.3       17 UNK        -0.1800 
     97 C          -3.6914  -25.0576  -52.8332 C.2       17 UNK         0.5000 
     98 O          -3.7169  -25.0116  -54.0631 O.2       17 UNK        -0.5000 
     99 N          -4.6462  -25.6249  -52.0820 N.am      18 UNK        -0.5000 
    100 CA        -5.8985  -26.2301  -52.5476 C.3       18 UNK         0.1400 
    101 CB        -5.6190  -27.5346  -53.3227 C.3       18 UNK        -0.1800 
    102 C         -6.7801  -25.2316  -53.3292 C.2       18 UNK         0.5000 
    103 O         -7.2525  -25.5379  -54.4258 O.2       18 UNK        -0.5000 
    104 N         -6.9691  -24.0454  -52.7348 N.am      19 UNK        -0.5000 
    105 CA        -7.7464  -22.9037  -53.2234 C.3       19 UNK         0.1400 
    106 CB        -9.2482  -23.2531  -53.2818 C.3       19 UNK        -0.1800 
    107 C         -7.2180  -22.2921  -54.5390 C.2       19 UNK         0.5000 
    108 O         -7.9968  -21.7076  -55.2949 O.2       19 UNK        -0.5000 
    109 N         -5.9074  -22.4148  -54.7894 N.am      20 UNK        -0.5000 
    110 CA        -5.2290  -21.7940  -55.9256 C.3       20 UNK         0.1400 
    111 CB        -3.8904  -22.4982  -56.1874 C.3       20 UNK        -0.1800 
    112 C         -5.0173  -20.2894  -55.6968 C.2       20 UNK         0.5000 
    113 O         -5.3109  -19.4982  -56.5932 O.2       20 UNK        -0.5000 
    114 N         -4.5223  -19.9299  -54.5005 N.am      21 UNK        -0.5000 
    115 CA        -4.3291  -18.5654  -53.9876 C.3       21 UNK         0.1400 
    116 CB        -5.6892  -17.9925  -53.5404 C.3       21 UNK        -0.1800 
    117 C         -3.5754  -17.6164  -54.9519 C.2       21 UNK         0.5000 
    118 O         -3.9610  -16.4555  -55.1008 O.2       21 UNK        -0.5000 
    119 N         -2.5313  -18.1419  -55.6083 N.am      22 UNK        -0.5000 
    120 CA        -1.7349  -17.4837  -56.6652 C.3       22 UNK         0.1400 
    121 C         -2.4862  -17.2672  -58.0177 C.2       22 UNK         0.5000 
    122 N         -3.6759  -17.8153  -58.2309 N.am      22 UNK        -0.7600 
    123 O         -1.9640  -16.6145  -58.9178 O.2       22 UNK        -0.5000 
    124 C124       -1.0049  -16.1873  -56.2002 C.3       23 UNK        -0.0398 
    125 S125        0.1589  -16.4564  -54.8200 S.3       23 UNK        -0.2404 
    126 C126       -0.7780  -15.7993  -53.3939 C.3       23 UNK        -0.0205 
    127 H127        5.0501  -15.0646  -51.0662 H         1 UNK         0.0600 
    128 H128        5.8717  -16.6209  -50.9223 H         1 UNK         0.0600 
    129 H129        6.5326  -15.1944  -50.1155 H         1 UNK         0.0600 
    130 H130        3.2554  -14.8966  -49.7610 H         1 UNK         0.3000 
    131 H131        2.7847  -16.7222  -47.5667 H         1 UNK         0.0600 
    132 H132        0.9288  -14.3635  -48.0761 H         1 UNK         0.0800 
    133 H133        1.0791  -15.5602  -49.3277 H         1 UNK         0.0800 
    134 H134       -2.2237  -16.9763  -47.9255 H         1 UNK         0.0800 
    135 H135       -1.7450  -15.4003  -48.5000 H         1 UNK         0.0800 
    136 H136       -1.1625  -15.1385  -50.8066 H         1 UNK         0.1150 
    137 H137       -0.6201  -18.5803  -53.3123 H         1 UNK         0.1150 
    138 H138       -1.2063  -19.0658  -49.1028 H         1 UNK         0.1150 
    139 H139       -1.3768  -20.9893  -50.6615 H         1 UNK         0.0800 
    140 H140       -1.2296  -20.7574  -52.3750 H         1 UNK         0.0800 
    141 H141        1.0046  -20.0209  -49.1876 H         1 UNK         0.0800 
    142 H142        2.4480  -20.8788  -49.5891 H         1 UNK         0.0800 
    143 H143        0.9698  -23.0844  -49.3719 H         1 UNK         0.0600 
    144 H144        2.5459  -21.6968  -47.4614 H         1 UNK         0.3000 
    145 H145        2.3822  -23.9957  -44.8020 H         1 UNK         0.0600 
    146 H146        3.9832  -25.1332  -46.3463 H         1 UNK         0.0600 
    147 H147        4.6640  -23.5771  -46.8055 H         1 UNK         0.0600 
    148 H148        4.8278  -24.1644  -45.1500 H         1 UNK         0.0600 
    149 H149        4.0566  -21.7606  -45.2103 H         1 UNK         0.3000 
    150 H150        3.7412  -19.8791  -44.0452 H         1 UNK         0.0600 
    151 H151        2.8016  -17.8875  -45.1974 H         1 UNK         0.0600 
    152 H152        1.3892  -18.8151  -45.7018 H         1 UNK         0.0600 
    153 H153        2.9850  -19.2199  -46.3214 H         1 UNK         0.0600 
    154 H154        1.1949  -18.7080  -43.2378 H         1 UNK         0.3000 
    155 H155        1.2221  -19.9234  -39.9544 H         1 UNK         0.0600 
    156 H156        2.4702  -17.2021  -40.6059 H         1 UNK         0.0600 
    157 H157        3.1563  -18.4239  -39.5430 H         1 UNK         0.0600 
    158 H158        1.6581  -17.6196  -39.0988 H         1 UNK         0.0600 
    159 H159        0.0884  -17.5511  -41.1657 H         1 UNK         0.3000 
    160 H160       -2.5124  -19.1243  -42.8900 H         1 UNK         0.0600 
    161 H161       -3.4978  -19.5088  -40.6241 H         1 UNK         0.0600 
    162 H162       -4.1742  -18.0796  -41.3862 H         1 UNK         0.0600 
    163 H163       -2.9619  -17.9120  -40.1148 H         1 UNK         0.0600 
    164 H164       -2.4518  -16.4579  -42.0777 H         1 UNK         0.3000 
    165 H165        0.0295  -15.1282  -44.2480 H         1 UNK         0.0600 
    166 H166       -1.8932  -13.8816  -45.0771 H         1 UNK         0.0600 
    167 H167       -2.1115  -15.5572  -45.5430 H         1 UNK         0.0600 
    168 H168       -3.0204  -14.9046  -44.1884 H         1 UNK         0.0600 
    169 H169       -1.3505  -13.5093  -42.7217 H         1 UNK         0.3000 
    170 H170       -1.2950  -13.4202  -39.8805 H         1 UNK         0.0600 
    171 H171        0.7581  -12.5589  -38.7189 H         1 UNK         0.0600 
    172 H172        0.7135  -14.3139  -38.7544 H         1 UNK         0.0600 
    173 H173        1.7696  -13.4430  -39.8615 H         1 UNK         0.0600 
    174 H174        0.6498  -11.9844  -41.6425 H         1 UNK         0.3000 
    175 H175       -1.7566   -9.8578  -42.9169 H         1 UNK         0.0600 
    176 H176        0.0922   -8.8544  -40.6848 H         1 UNK         0.0600 
    177 H177       -0.6012   -7.8696  -41.9743 H         1 UNK         0.0600 
    178 H178       -1.6463   -8.5961  -40.7651 H         1 UNK         0.0600 
    179 H179        1.1064   -9.6305  -42.7791 H         1 UNK         0.3000 
    180 H180        1.6026  -10.7193  -45.8725 H         1 UNK         0.0600 
    181 H181        3.7622  -10.0848  -44.8288 H         1 UNK         0.0600 
    182 H182        3.0859  -10.2838  -43.2187 H         1 UNK         0.0600 
    183 H183        2.4869   -9.0134  -44.2883 H         1 UNK         0.0600 
    184 H184        2.6459  -12.6896  -45.8062 H         1 UNK         0.3000 
    185 H185        4.2850  -14.3649  -44.2919 H         1 UNK         0.0600 
    186 H186        2.0162  -15.9501  -43.0022 H         1 UNK         0.0600 
    187 H187        3.6620  -16.4999  -43.2838 H         1 UNK         0.0600 
    188 H188        3.3554  -15.2254  -42.1219 H         1 UNK         0.0600 
    189 H189        2.1598  -15.9681  -45.3925 H         1 UNK         0.3000 
    190 H190        0.0970  -20.7125  -46.8194 H         1 UNK         0.3000 
    191 H191       -2.7179  -20.6987  -47.3705 H         1 UNK         0.0600 
    192 H192       -1.1886  -19.8597  -44.8631 H         1 UNK         0.0600 
    193 H193       -2.8505  -19.4287  -45.2595 H         1 UNK         0.0600 
    194 H194       -1.5307  -18.8194  -46.2435 H         1 UNK         0.0600 
    195 H195       -0.6493  -22.4366  -45.0187 H         1 UNK         0.3000 
    196 H196       -2.6526  -23.8270  -43.6159 H         1 UNK         0.0600 
    197 H197       -0.7890  -25.2922  -42.8970 H         1 UNK         0.0600 
    198 H198       -0.2670  -23.6132  -42.8926 H         1 UNK         0.0600 
    199 H199        0.2266  -24.6906  -44.1995 H         1 UNK         0.0600 
    200 H200       -1.2762  -24.4955  -46.7864 H         1 UNK         0.3000 
    201 H201       -2.5530  -27.1175  -47.0893 H         1 UNK         0.0600 
    202 H202       -0.3280  -26.6337  -48.1071 H         1 UNK         0.0600 
    203 H203       -1.0392  -25.3539  -49.0846 H         1 UNK         0.0600 
    204 H204       -1.5152  -27.0296  -49.3363 H         1 UNK         0.0600 
    205 H205       -4.1971  -24.6324  -46.5433 H         1 UNK         0.3000 
    206 H206       -6.1531  -23.7328  -47.0213 H         1 UNK         0.0600 
    207 H207       -7.8498  -25.0403  -48.2532 H         1 UNK         0.0600 
    208 H208       -6.6164  -26.1009  -48.9171 H         1 UNK         0.0600 
    209 H209       -6.9444  -26.1005  -47.1852 H         1 UNK         0.0600 
    210 H210       -4.1400  -22.4944  -48.1477 H         1 UNK         0.3000 
    211 H211       -3.4038  -21.0505  -49.6689 H         1 UNK         0.0600 
    212 H212       -6.2371  -20.9698  -50.8153 H         1 UNK         0.0600 
    213 H213       -4.9716  -19.7699  -51.0387 H         1 UNK         0.0600 
    214 H214       -5.6659  -20.0178  -49.4462 H         1 UNK         0.0600 
    215 H215       -2.7453  -23.5760  -50.1238 H         1 UNK         0.3000 
    216 H216       -2.0674  -25.1986  -51.4744 H         1 UNK         0.0600 
    217 H217       -1.0819  -24.5227  -53.6796 H         1 UNK         0.0600 
    218 H218       -0.5937  -23.4633  -52.3710 H         1 UNK         0.0600 
    219 H219       -1.8189  -22.9339  -53.5208 H         1 UNK         0.0600 
    220 H220       -4.5078  -25.6332  -51.0730 H         1 UNK         0.3000 
    221 H221       -6.4595  -26.4949  -51.6501 H         1 UNK         0.0600 
    222 H222       -5.0886  -27.3472  -54.2567 H         1 UNK         0.0600 
    223 H223       -5.0191  -28.2240  -52.7287 H         1 UNK         0.0600 
    224 H224       -6.5491  -28.0463  -53.5722 H         1 UNK         0.0600 
    225 H225       -6.5667  -23.9102  -51.8080 H         1 UNK         0.3000 
    226 H226       -7.6254  -22.1246  -52.4702 H         1 UNK         0.0600 
    227 H227       -9.5943  -23.6620  -52.3324 H         1 UNK         0.0600 
    228 H228       -9.8498  -22.3674  -53.4888 H         1 UNK         0.0600 
    229 H229       -9.4639  -23.9841  -54.0615 H         1 UNK         0.0600 
    230 H230       -5.3209  -22.8672  -54.0985 H         1 UNK         0.3000 
    231 H231       -5.8503  -21.9167  -56.8154 H         1 UNK         0.0600 
    232 H232       -3.2292  -22.4405  -55.3233 H         1 UNK         0.0600 
    233 H233       -4.0413  -23.5519  -56.4224 H         1 UNK         0.0600 
    234 H234       -3.3692  -22.0474  -57.0328 H         1 UNK         0.0600 
    235 H235       -4.3295  -20.6748  -53.8341 H         1 UNK         0.3000 
    236 H236       -3.7011  -18.6577  -53.1004 H         1 UNK         0.0600 
    237 H237       -6.3524  -17.8275  -54.3903 H         1 UNK         0.0600 
    238 H238       -6.1960  -18.6668  -52.8503 H         1 UNK         0.0600 
    239 H239       -5.5647  -17.0379  -53.0278 H         1 UNK         0.0600 
    240 H240       -2.3079  -19.1114  -55.4391 H         1 UNK         0.3000 
    241 H241       -0.9576  -18.2071  -56.9132 H         1 UNK         0.0600 
    242 H242       -4.1289  -17.6676  -59.1185 H         1 UNK         0.3800 
    243 H243       -4.1516  -18.3638  -57.5188 H         1 UNK         0.3800 
    244 H244       -0.4058  -15.7828  -57.0175 H         1 UNK         0.0800 
    245 H245       -1.7182  -15.4007  -55.9535 H         1 UNK         0.0800 
    246 H246       -0.3004  -14.8679  -53.0864 H         1 UNK         0.0800 
    247 H247       -1.7932  -15.5355  -53.6884 H         1 UNK         0.0800 
@<TRIPOS>BOND
     1    1    2 1    
     2    1  127 1    
     3    1  128 1    
     4    1  129 1    
     5    2    3 2    
     6    2    4 am   BACKBONE|DICT|INTERRES
     7    4    5 1    
     8    4  130 1    
     9    5    6 1    
    10    5   65 1    
    11    5  131 1    
    12    6    7 1    
    13    6  132 1    
    14    6  133 1    
    15    7    8 1    
    16    8    9 1    
    17    8  134 1    
    18    8  135 1    
    19    9   10 ar   
    20    9   14 ar   
    21   10   11 ar   
    22   10  136 1    
    23   11   12 ar   
    24   11  126 1    
    25   12   13 ar   
    26   12  137 1    
    27   13   14 ar   
    28   13   15 1    
    29   14  138 1    
    30   15   16 1    
    31   15  139 1    
    32   15  140 1    
    33   16   17 1    
    34   17   18 1    
    35   17  141 1    
    36   17  142 1    
    37   18   19 1    
    38   18   67 1    
    39   18  143 1    
    40   19   20 am   BACKBONE|DICT|INTERRES
    41   19  144 1    
    42   20   21 2    
    43   20   22 1    
    44   22   23 1    
    45   22   24 1    
    46   22  145 1    
    47   23  146 1    
    48   23  147 1    
    49   23  148 1    
    50   24   25 am   BACKBONE|DICT|INTERRES
    51   24  149 1    
    52   25   26 2    
    53   25   27 1    
    54   27   28 1    
    55   27   29 1    
    56   27  150 1    
    57   28  151 1    
    58   28  152 1    
    59   28  153 1    
    60   29   30 am   BACKBONE|DICT|INTERRES
    61   29  154 1    
    62   30   31 2    
    63   30   32 1    
    64   32   33 1    
    65   32   34 1    
    66   32  155 1    
    67   33  156 1    
    68   33  157 1    
    69   33  158 1    
    70   34   35 am   BACKBONE|DICT|INTERRES
    71   34  159 1    
    72   35   36 2    
    73   35   37 1    
    74   37   38 1    
    75   37   39 1    
    76   37  160 1    
    77   38  161 1    
    78   38  162 1    
    79   38  163 1    
    80   39   40 am   BACKBONE|DICT|INTERRES
    81   39  164 1    
    82   40   41 2    
    83   40   42 1    
    84   42   43 1    
    85   42   44 1    
    86   42  165 1    
    87   43  166 1    
    88   43  167 1    
    89   43  168 1    
    90   44   45 am   BACKBONE|DICT|INTERRES
    91   44  169 1    
    92   45   46 2    
    93   45   47 1    
    94   47   48 1    
    95   47   49 1    
    96   47  170 1    
    97   48  171 1    
    98   48  172 1    
    99   48  173 1    
   100   49   50 am   BACKBONE|DICT|INTERRES
   101   49  174 1    
   102   50   51 2    
   103   50   52 1    
   104   52   53 1    
   105   52   54 1    
   106   52  175 1    
   107   53  176 1    
   108   53  177 1    
   109   53  178 1    
   110   54   55 am   BACKBONE|DICT|INTERRES
   111   54  179 1    
   112   55   56 2    
   113   55   57 1    
   114   57   58 1    
   115   57   59 1    
   116   57  180 1    
   117   58  181 1    
   118   58  182 1    
   119   58  183 1    
   120   59   60 am   BACKBONE|DICT|INTERRES
   121   59  184 1    
   122   60   61 2    
   123   60   62 1    
   124   62   63 1    
   125   62   64 1    
   126   62  185 1    
   127   63  186 1    
   128   63  187 1    
   129   63  188 1    
   130   64   65 am   BACKBONE|DICT|INTERRES
   131   64  189 1    
   132   65   66 2    
   133   67   68 2    
   134   67   69 am   BACKBONE|DICT|INTERRES
   135   69   70 1    
   136   69  190 1    
   137   70   71 1    
   138   70   72 1    
   139   70  191 1    
   140   71  192 1    
   141   71  193 1    
   142   71  194 1    
   143   72   73 2    
   144   72   74 am   BACKBONE|DICT|INTERRES
   145   74   75 1    
   146   74  195 1    
   147   75   76 1    
   148   75   77 1    
   149   75  196 1    
   150   76  197 1    
   151   76  198 1    
   152   76  199 1    
   153   77   78 2    
   154   77   79 am   BACKBONE|DICT|INTERRES
   155   79   80 1    
   156   79  200 1    
   157   80   81 1    
   158   80   82 1    
   159   80  201 1    
   160   81  202 1    
   161   81  203 1    
   162   81  204 1    
   163   82   83 2    
   164   82   84 am   BACKBONE|DICT|INTERRES
   165   84   85 1    
   166   84  205 1    
   167   85   86 1    
   168   85   87 1    
   169   85  206 1    
   170   86  207 1    
   171   86  208 1    
   172   86  209 1    
   173   87   88 2    
   174   87   89 am   BACKBONE|DICT|INTERRES
   175   89   90 1    
   176   89  210 1    
   177   90   91 1    
   178   90   92 1    
   179   90  211 1    
   180   91  212 1    
   181   91  213 1    
   182   91  214 1    
   183   92   93 2    
   184   92   94 am   BACKBONE|DICT|INTERRES
   185   94   95 1    
   186   94  215 1    
   187   95   96 1    
   188   95   97 1    
   189   95  216 1    
   190   96  217 1    
   191   96  218 1    
   192   96  219 1    
   193   97   98 2    
   194   97   99 am   BACKBONE|DICT|INTERRES
   195   99  100 1    
   196   99  220 1    
   197  100  101 1    
   198  100  102 1    
   199  100  221 1    
   200  101  222 1    
   201  101  223 1    
   202  101  224 1    
   203  102  103 2    
   204  102  104 am   BACKBONE|DICT|INTERRES
   205  104  105 1    
   206  104  225 1    
   207  105  106 1    
   208  105  107 1    
   209  105  226 1    
   210  106  227 1    
   211  106  228 1    
   212  106  229 1    
   213  107  108 2    
   214  107  109 am   BACKBONE|DICT|INTERRES
   215  109  110 1    
   216  109  230 1    
   217  110  111 1    
   218  110  112 1    
   219  110  231 1    
   220  111  232 1    
   221  111  233 1    
   222  111  234 1    
   223  112  113 2    
   224  112  114 am   BACKBONE|DICT|INTERRES
   225  114  115 1    
   226  114  235 1    
   227  115  116 1    
   228  115  117 1    
   229  115  236 1    
   230  116  237 1    
   231  116  238 1    
   232  116  239 1    
   233  117  118 2    
   234  117  119 am   BACKBONE|DICT|INTERRES
   235  119  120 1    
   236  119  240 1    
   237  120  121 1    
   238  120  124 1    
   239  120  241 1    
   240  121  122 am   BACKBONE|DICT|INTERRES
   241  121  123 2    
   242  122  242 1    
   243  122  243 1    
   244  124  125 1    
   245  124  244 1    
   246  124  245 1    
   247  125  126 1    
   248  126  246 1    
   249  126  247 1    
@<TRIPOS>SUBSTRUCTURE
     1 UNK         1 GROUP             0       ****    0 ROOT    
