@<TRIPOS>MOLECULE
3R540
247   249    1
SMALL
USER_CHARGES


@<TRIPOS>ATOM
      1 CA         -3.7945  -12.2051  -49.2105 C.3       0 UNK        -0.1800 
      2 C          -2.4412  -12.7330  -48.7566 C.2       0 UNK         0.5000 
      3 O          -1.6448  -11.9788  -48.1981 O.2       0 UNK        -0.5000 
      4 N          -2.1808  -14.0265  -48.9896 N.am      1 UNK        -0.5000 
      5 CA         -0.9241  -14.7088  -48.6426 C.3       1 UNK         0.1400 
      6 C6         -0.7558  -16.0529  -49.3935 C.3       23 UNK        -0.0398 
      7 S7         -0.9280  -15.8603  -51.2023 S.3       23 UNK        -0.2404 
      8 C8          0.8040  -15.7231  -51.7431 C.3       23 UNK        -0.0205 
      9 C9          1.4375  -17.0921  -51.9280 C.ar      23 UNK        -0.0193 
     10 C10         1.2414  -17.7956  -53.1185 C.ar      23 UNK        -0.1150 
     11 C11         1.8108  -19.0585  -53.2977 C.ar      23 UNK        -0.0193 
     12 C12         2.5583  -19.6289  -52.2640 C.ar      23 UNK        -0.1150 
     13 C13         2.7637  -18.9389  -51.0645 C.ar      23 UNK        -0.0193 
     14 C14         2.2200  -17.6556  -50.9173 C.ar      23 UNK        -0.1150 
     15 C15         3.5829  -19.6090  -49.9596 C.3       23 UNK        -0.0205 
     16 S16         3.1830  -19.0909  -48.2520 S.3       23 UNK        -0.2404 
     17 C17         1.3952  -19.4441  -48.1545 C.3       23 UNK        -0.0398 
     18 CA          1.0760  -20.8636  -47.6250 C.3       11 UNK         0.1400 
     19 N           1.5723  -21.0945  -46.2701 N.am      11 UNK        -0.5000 
     20 C           2.3543  -22.1238  -45.9232 C.2       10 UNK         0.5000 
     21 O           2.6704  -23.0369  -46.6866 O.2       10 UNK        -0.5000 
     22 CA          2.9148  -22.1289  -44.4917 C.3       10 UNK         0.1400 
     23 CB          4.1825  -21.2639  -44.4189 C.3       10 UNK        -0.1800 
     24 N           1.9604  -21.6846  -43.4766 N.am      10 UNK        -0.5000 
     25 C           0.8905  -22.3902  -43.0845 C.2       9 UNK         0.5000 
     26 O           0.5536  -23.4628  -43.5870 O.2       9 UNK        -0.5000 
     27 CA          0.0603  -21.8019  -41.9278 C.3       9 UNK         0.1400 
     28 CB          0.7685  -22.0140  -40.5809 C.3       9 UNK        -0.1800 
     29 N          -0.2301  -20.3810  -42.1053 N.am      9 UNK        -0.5000 
     30 C          -1.0172  -19.8920  -43.0723 C.2       8 UNK         0.5000 
     31 O          -1.6083  -20.5897  -43.8932 O.2       8 UNK        -0.5000 
     32 CA         -1.1205  -18.3619  -43.1743 C.3       8 UNK         0.1400 
     33 CB         -2.0580  -17.8023  -42.0944 C.3       8 UNK        -0.1800 
     34 N           0.1860  -17.7164  -43.0820 N.am      8 UNK        -0.5000 
     35 C           1.1991  -17.9159  -43.9359 C.2       7 UNK         0.5000 
     36 O           1.1153  -18.6265  -44.9368 O.2       7 UNK        -0.5000 
     37 CA          2.5415  -17.2550  -43.5795 C.3       7 UNK         0.1400 
     38 CB          2.5893  -15.8036  -44.0786 C.3       7 UNK        -0.1800 
     39 N           2.8068  -17.2890  -42.1397 N.am      7 UNK        -0.5000 
     40 C           3.0699  -18.4050  -41.4447 C.2       6 UNK         0.5000 
     41 O           3.1326  -19.5253  -41.9479 O.2       6 UNK        -0.5000 
     42 CA          3.2484  -18.2472  -39.9245 C.3       6 UNK         0.1400 
     43 CB          4.6513  -17.7175  -39.5916 C.3       6 UNK        -0.1800 
     44 N           2.2410  -17.3644  -39.3369 N.am      6 UNK        -0.5000 
     45 C           0.9319  -17.6464  -39.2764 C.2       5 UNK         0.5000 
     46 O           0.4413  -18.7054  -39.6690 O.2       5 UNK        -0.5000 
     47 CA          0.0132  -16.5332  -38.7336 C.3       5 UNK         0.1400 
     48 CB         -0.0797  -16.6087  -37.2025 C.3       5 UNK        -0.1800 
     49 N           0.4281  -15.1817  -39.1315 N.am      5 UNK        -0.5000 
     50 C           0.5253  -14.7667  -40.4007 C.2       4 UNK         0.5000 
     51 O           0.3004  -15.4945  -41.3721 O.2       4 UNK        -0.5000 
     52 CA          0.9832  -13.3211  -40.6369 C.3       4 UNK         0.1400 
     53 CB          2.4839  -13.1564  -40.3378 C.3       4 UNK        -0.1800 
     54 N           0.7253  -13.0216  -42.0375 N.am      4 UNK        -0.5000 
     55 C           0.5395  -11.8252  -42.5982 C.2       3 UNK         0.5000 
     56 O           0.6298  -10.7593  -41.9879 O.2       3 UNK        -0.5000 
     57 CA          0.1888  -11.8240  -44.1007 C.3       3 UNK         0.1400 
     58 CB          1.4306  -11.4892  -44.9409 C.3       3 UNK        -0.1800 
     59 N          -0.3638  -13.0976  -44.5747 N.am      3 UNK        -0.5000 
     60 C          -1.5830  -13.5707  -44.2869 C.2       2 UNK         0.5000 
     61 O          -2.3917  -12.9696  -43.5781 O.2       2 UNK        -0.5000 
     62 CA         -1.9559  -14.9303  -44.9199 C.3       2 UNK         0.1400 
     63 CB         -3.3657  -15.4053  -44.5224 C.3       2 UNK        -0.1800 
     64 N          -1.8819  -14.8877  -46.3802 N.am      2 UNK        -0.5000 
     65 C          -0.7645  -14.9120  -47.1197 C.2       1 UNK         0.5000 
     66 O           0.3596  -15.0539  -46.6389 O.2       1 UNK        -0.5000 
     67 C          -0.4326  -21.1350  -47.6896 C.2       11 UNK         0.5000 
     68 O          -0.8423  -22.1018  -48.3310 O.2       11 UNK        -0.5000 
     69 N          -1.2352  -20.2561  -47.0709 N.am      12 UNK        -0.5000 
     70 CA         -2.6816  -20.1673  -47.2915 C.3       12 UNK         0.1400 
     71 CB         -3.2474  -18.9296  -46.5791 C.3       12 UNK        -0.1800 
     72 C          -3.4570  -21.4372  -46.9054 C.2       12 UNK         0.5000 
     73 O          -4.2818  -21.9012  -47.6909 O.2       12 UNK        -0.5000 
     74 N          -3.1539  -21.9914  -45.7264 N.am      13 UNK        -0.5000 
     75 CA         -3.7464  -23.2256  -45.2140 C.3       13 UNK         0.1400 
     76 CB         -3.4597  -23.3376  -43.7094 C.3       13 UNK        -0.1800 
     77 C          -3.2391  -24.4773  -45.9508 C.2       13 UNK         0.5000 
     78 O          -4.0063  -25.4227  -46.1310 O.2       13 UNK        -0.5000 
     79 N          -1.9667  -24.4590  -46.3716 N.am      14 UNK        -0.5000 
     80 CA         -1.3145  -25.5534  -47.0919 C.3       14 UNK         0.1400 
     81 CB          0.2060  -25.3405  -47.0761 C.3       14 UNK        -0.1800 
     82 C          -1.8350  -25.6904  -48.5330 C.2       14 UNK         0.5000 
     83 O          -2.1234  -26.8021  -48.9771 O.2       14 UNK        -0.5000 
     84 N          -1.9737  -24.5512  -49.2230 N.am      15 UNK        -0.5000 
     85 CA         -2.5419  -24.4487  -50.5678 C.3       15 UNK         0.1400 
     86 CB         -2.0334  -23.1481  -51.2067 C.3       15 UNK        -0.1800 
     87 C          -4.0839  -24.4919  -50.5711 C.2       15 UNK         0.5000 
     88 O          -4.6819  -24.6394  -51.6354 O.2       15 UNK        -0.5000 
     89 N          -4.7006  -24.3319  -49.3926 N.am      16 UNK        -0.5000 
     90 CA         -6.1329  -24.3153  -49.0708 C.3       16 UNK         0.1400 
     91 CB         -6.8265  -25.6229  -49.4965 C.3       16 UNK        -0.1800 
     92 C          -6.8944  -23.0799  -49.5902 C.2       16 UNK         0.5000 
     93 O          -7.7213  -22.5373  -48.8561 O.2       16 UNK        -0.5000 
     94 N          -6.6054  -22.6513  -50.8242 N.am      17 UNK        -0.5000 
     95 CA         -7.1954  -21.4780  -51.4747 C.3       17 UNK         0.1400 
     96 CB         -7.8796  -21.9203  -52.7795 C.3       17 UNK        -0.1800 
     97 C          -6.1529  -20.3727  -51.7329 C.2       17 UNK         0.5000 
     98 O          -6.4580  -19.4155  -52.4460 O.2       17 UNK        -0.5000 
     99 N          -4.9455  -20.5128  -51.1621 N.am      18 UNK        -0.5000 
    100 CA        -3.8029  -19.6033  -51.3063 C.3       18 UNK         0.1400 
    101 CB        -4.0838  -18.2778  -50.5624 C.3       18 UNK        -0.1800 
    102 C         -3.3954  -19.4304  -52.7873 C.2       18 UNK         0.5000 
    103 O         -3.2681  -20.4311  -53.4958 O.2       18 UNK        -0.5000 
    104 N         -3.2338  -18.1813  -53.2457 N.am      19 UNK        -0.5000 
    105 CA        -2.8516  -17.8203  -54.6137 C.3       19 UNK         0.1400 
    106 CB        -2.7027  -16.2951  -54.7105 C.3       19 UNK        -0.1800 
    107 C         -3.8064  -18.3372  -55.7102 C.2       19 UNK         0.5000 
    108 O         -3.3637  -18.5434  -56.8412 O.2       19 UNK        -0.5000 
    109 N         -5.0810  -18.5746  -55.3653 N.am      20 UNK        -0.5000 
    110 CA        -6.0769  -19.1500  -56.2719 C.3       20 UNK         0.1400 
    111 CB        -7.4844  -18.9469  -55.6929 C.3       20 UNK        -0.1800 
    112 C         -5.8211  -20.6376  -56.5864 C.2       20 UNK         0.5000 
    113 O         -6.2294  -21.0988  -57.6528 O.2       20 UNK        -0.5000 
    114 N         -5.1375  -21.3546  -55.6814 N.am      21 UNK        -0.5000 
    115 CA        -4.6578  -22.7162  -55.9214 C.3       21 UNK         0.1400 
    116 CB        -4.5467  -23.4765  -54.5940 C.3       21 UNK        -0.1800 
    117 C         -3.3129  -22.7197  -56.6684 C.2       21 UNK         0.5000 
    118 O         -3.0740  -23.6285  -57.4650 O.2       21 UNK        -0.5000 
    119 N         -2.4687  -21.7083  -56.4164 N.am      22 UNK        -0.5000 
    120 CA        -1.2092  -21.4805  -57.1445 C.3       22 UNK         0.1400 
    121 C         -1.4314  -21.1490  -58.6473 C.2       22 UNK         0.5000 
    122 N         -2.3635  -20.2621  -58.9758 N.am      22 UNK        -0.7600 
    123 O         -0.7548  -21.6949  -59.5144 O.2       22 UNK        -0.5000 
    124 C124       -0.3304  -20.3785  -56.5026 C.3       23 UNK        -0.0398 
    125 S125        0.0424  -20.6384  -54.7357 S.3       23 UNK        -0.2404 
    126 C126        1.6445  -19.7822  -54.6233 C.3       23 UNK        -0.0205 
    127 H127       -3.6595  -11.3914  -49.9231 H         1 UNK         0.0600 
    128 H128       -4.3927  -12.9806  -49.6895 H         1 UNK         0.0600 
    129 H129       -4.3535  -11.8228  -48.3565 H         1 UNK         0.0600 
    130 H130       -2.8613  -14.5879  -49.4815 H         1 UNK         0.3000 
    131 H131       -0.1041  -14.0577  -48.9536 H         1 UNK         0.0600 
    132 H132       -1.5028  -16.7734  -49.0574 H         1 UNK         0.0800 
    133 H133        0.2132  -16.4996  -49.1676 H         1 UNK         0.0800 
    134 H134        0.8323  -15.1804  -52.6891 H         1 UNK         0.0800 
    135 H135        1.3725  -15.1219  -51.0319 H         1 UNK         0.0800 
    136 H136        0.6477  -17.3577  -53.9088 H         1 UNK         0.1150 
    137 H137        2.9898  -20.6111  -52.3988 H         1 UNK         0.1150 
    138 H138        2.3857  -17.0984  -50.0068 H         1 UNK         0.1150 
    139 H139        3.4626  -20.6921  -50.0167 H         1 UNK         0.0800 
    140 H140        4.6386  -19.4066  -50.1433 H         1 UNK         0.0800 
    141 H141        0.9402  -19.3024  -49.1350 H         1 UNK         0.0800 
    142 H142        0.9547  -18.6767  -47.5174 H         1 UNK         0.0800 
    143 H143        1.5422  -21.5653  -48.3201 H         1 UNK         0.0600 
    144 H144        1.3850  -20.3581  -45.5942 H         1 UNK         0.3000 
    145 H145        3.1986  -23.1566  -44.2548 H         1 UNK         0.0600 
    146 H146        4.6524  -21.3338  -43.4379 H         1 UNK         0.0600 
    147 H147        4.9196  -21.5855  -45.1558 H         1 UNK         0.0600 
    148 H148        3.9621  -20.2134  -44.6124 H         1 UNK         0.0600 
    149 H149        2.1948  -20.8280  -42.9818 H         1 UNK         0.3000 
    150 H150       -0.8906  -22.3370  -41.8937 H         1 UNK         0.0600 
    151 H151        0.9867  -23.0697  -40.4155 H         1 UNK         0.0600 
    152 H152        0.1458  -21.6761  -39.7523 H         1 UNK         0.0600 
    153 H153        1.7124  -21.4702  -40.5302 H         1 UNK         0.0600 
    154 H154        0.1966  -19.7393  -41.4455 H         1 UNK         0.3000 
    155 H155       -1.5353  -18.1127  -44.1516 H         1 UNK         0.0600 
    156 H156       -1.7545  -18.1103  -41.0943 H         1 UNK         0.0600 
    157 H157       -3.0789  -18.1531  -42.2486 H         1 UNK         0.0600 
    158 H158       -2.0784  -16.7135  -42.1090 H         1 UNK         0.0600 
    159 H159        0.3213  -17.0684  -42.3097 H         1 UNK         0.3000 
    160 H160        3.3330  -17.8133  -44.0838 H         1 UNK         0.0600 
    161 H161        3.5336  -15.3250  -43.8191 H         1 UNK         0.0600 
    162 H162        1.7816  -15.2033  -43.6618 H         1 UNK         0.0600 
    163 H163        2.4969  -15.7679  -45.1645 H         1 UNK         0.0600 
    164 H164        2.7191  -16.4173  -41.6407 H         1 UNK         0.3000 
    165 H165        3.1405  -19.2354  -39.4720 H         1 UNK         0.0600 
    166 H166        4.8119  -17.6788  -38.5140 H         1 UNK         0.0600 
    167 H167        5.4219  -18.3659  -40.0108 H         1 UNK         0.0600 
    168 H168        4.8119  -16.7154  -39.9912 H         1 UNK         0.0600 
    169 H169        2.5578  -16.4711  -38.9907 H         1 UNK         0.3000 
    170 H170       -0.9843  -16.7055  -39.1428 H         1 UNK         0.0600 
    171 H171       -0.4050  -17.5986  -36.8795 H         1 UNK         0.0600 
    172 H172        0.8824  -16.4084  -36.7294 H         1 UNK         0.0600 
    173 H173       -0.8013  -15.8892  -36.8151 H         1 UNK         0.0600 
    174 H174        0.6339  -14.5343  -38.3842 H         1 UNK         0.3000 
    175 H175        0.3935  -12.6563  -40.0027 H         1 UNK         0.0600 
    176 H176        3.0917  -13.8204  -40.9540 H         1 UNK         0.0600 
    177 H177        2.8134  -12.1345  -40.5259 H         1 UNK         0.0600 
    178 H178        2.7058  -13.3788  -39.2936 H         1 UNK         0.0600 
    179 H179        0.5620  -13.8493  -42.5961 H         1 UNK         0.3000 
    180 H180       -0.5579  -11.0443  -44.2643 H         1 UNK         0.0600 
    181 H181        2.2066  -12.2479  -44.8304 H         1 UNK         0.0600 
    182 H182        1.8602  -10.5323  -44.6415 H         1 UNK         0.0600 
    183 H183        1.1811  -11.4157  -45.9998 H         1 UNK         0.0600 
    184 H184        0.2157  -13.6452  -45.2027 H         1 UNK         0.3000 
    185 H185       -1.2357  -15.6620  -44.5504 H         1 UNK         0.0600 
    186 H186       -3.4896  -15.4229  -43.4396 H         1 UNK         0.0600 
    187 H187       -4.1385  -14.7495  -44.9251 H         1 UNK         0.0600 
    188 H188       -3.5595  -16.4141  -44.8863 H         1 UNK         0.0600 
    189 H189       -2.7528  -14.7190  -46.8619 H         1 UNK         0.3000 
    190 H190       -0.8204  -19.5423  -46.4891 H         1 UNK         0.3000 
    191 H191       -2.8240  -20.0221  -48.3632 H         1 UNK         0.0600 
    192 H192       -3.2005  -19.0310  -45.4955 H         1 UNK         0.0600 
    193 H193       -4.2948  -18.7780  -46.8427 H         1 UNK         0.0600 
    194 H194       -2.7082  -18.0247  -46.8601 H         1 UNK         0.0600 
    195 H195       -2.4845  -21.5173  -45.1199 H         1 UNK         0.3000 
    196 H196       -4.8283  -23.1700  -45.3524 H         1 UNK         0.0600 
    197 H197       -2.3897  -23.4092  -43.5117 H         1 UNK         0.0600 
    198 H198       -3.9328  -24.2242  -43.2857 H         1 UNK         0.0600 
    199 H199       -3.8427  -22.4722  -43.1683 H         1 UNK         0.0600 
    200 H200       -1.4157  -23.6295  -46.2041 H         1 UNK         0.3000 
    201 H201       -1.5309  -26.4854  -46.5653 H         1 UNK         0.0600 
    202 H202        0.4907  -24.4293  -47.6029 H         1 UNK         0.0600 
    203 H203        0.7216  -26.1717  -47.5584 H         1 UNK         0.0600 
    204 H204        0.5856  -25.2683  -46.0565 H         1 UNK         0.0600 
    205 H205       -1.6606  -23.6792  -48.7994 H         1 UNK         0.3000 
    206 H206       -2.1868  -25.2878  -51.1694 H         1 UNK         0.0600 
    207 H207       -2.3889  -23.0394  -52.2304 H         1 UNK         0.0600 
    208 H208       -2.3665  -22.2771  -50.6448 H         1 UNK         0.0600 
    209 H209       -0.9440  -23.1242  -51.2405 H         1 UNK         0.0600 
    210 H210       -4.1014  -24.1403  -48.6016 H         1 UNK         0.3000 
    211 H211       -6.1762  -24.2667  -47.9814 H         1 UNK         0.0600 
    212 H212       -6.8550  -25.7379  -50.5803 H         1 UNK         0.0600 
    213 H213       -7.8573  -25.6475  -49.1413 H         1 UNK         0.0600 
    214 H214       -6.3176  -26.4918  -49.0790 H         1 UNK         0.0600 
    215 H215       -5.9344  -23.1925  -51.3631 H         1 UNK         0.3000 
    216 H216       -7.9599  -21.0345  -50.8341 H         1 UNK         0.0600 
    217 H217       -8.4814  -21.1120  -53.1953 H         1 UNK         0.0600 
    218 H218       -8.5490  -22.7639  -52.6108 H         1 UNK         0.0600 
    219 H219       -7.1554  -22.2105  -53.5390 H         1 UNK         0.0600 
    220 H220       -4.7947  -21.3303  -50.5894 H         1 UNK         0.3000 
    221 H221       -2.9542  -20.0787  -50.8161 H         1 UNK         0.0600 
    222 H222       -4.8872  -17.7056  -51.0276 H         1 UNK         0.0600 
    223 H223       -4.3743  -18.4638  -49.5286 H         1 UNK         0.0600 
    224 H224       -3.1975  -17.6466  -50.5342 H         1 UNK         0.0600 
    225 H225       -3.3688  -17.4140  -52.6039 H         1 UNK         0.3000 
    226 H226       -1.8735  -18.2647  -54.8006 H         1 UNK         0.0600 
    227 H227       -1.9264  -15.9305  -54.0386 H         1 UNK         0.0600 
    228 H228       -2.4203  -15.9923  -55.7198 H         1 UNK         0.0600 
    229 H229       -3.6331  -15.7834  -54.4617 H         1 UNK         0.0600 
    230 H230       -5.3695  -18.4226  -54.4074 H         1 UNK         0.3000 
    231 H231       -6.0249  -18.6041  -57.2164 H         1 UNK         0.0600 
    232 H232       -7.6794  -17.8953  -55.4829 H         1 UNK         0.0600 
    233 H233       -7.6250  -19.5066  -54.7697 H         1 UNK         0.0600 
    234 H234       -8.2460  -19.2852  -56.3965 H         1 UNK         0.0600 
    235 H235       -4.7941  -20.8966  -54.8448 H         1 UNK         0.3000 
    236 H236       -5.3779  -23.2511  -56.5443 H         1 UNK         0.0600 
    237 H237       -4.0698  -24.4476  -54.7324 H         1 UNK         0.0600 
    238 H238       -3.9603  -22.9257  -53.8618 H         1 UNK         0.0600 
    239 H239       -5.5284  -23.6659  -54.1634 H         1 UNK         0.0600 
    240 H240       -2.7110  -21.0321  -55.7056 H         1 UNK         0.3000 
    241 H241       -0.6438  -22.4136  -57.1014 H         1 UNK         0.0600 
    242 H242       -2.5201  -20.0398  -59.9458 H         1 UNK         0.3800 
    243 H243       -2.8645  -19.7507  -58.2542 H         1 UNK         0.3800 
    244 H244        0.6138  -20.3172  -57.0471 H         1 UNK         0.0800 
    245 H245       -0.7994  -19.3997  -56.6075 H         1 UNK         0.0800 
    246 H246        2.4475  -20.5057  -54.7721 H         1 UNK         0.0800 
    247 H247        1.7408  -19.0520  -55.4283 H         1 UNK         0.0800 
@<TRIPOS>BOND
     1    1    2 1    
     2    1  127 1    
     3    1  128 1    
     4    1  129 1    
     5    2    3 2    
     6    2    4 am   BACKBONE|DICT|INTERRES
     7    4    5 1    
     8    4  130 1    
     9    5    6 1    
    10    5   65 1    
    11    5  131 1    
    12    6    7 1    
    13    6  132 1    
    14    6  133 1    
    15    7    8 1    
    16    8    9 1    
    17    8  134 1    
    18    8  135 1    
    19    9   10 ar   
    20    9   14 ar   
    21   10   11 ar   
    22   10  136 1    
    23   11   12 ar   
    24   11  126 1    
    25   12   13 ar   
    26   12  137 1    
    27   13   14 ar   
    28   13   15 1    
    29   14  138 1    
    30   15   16 1    
    31   15  139 1    
    32   15  140 1    
    33   16   17 1    
    34   17   18 1    
    35   17  141 1    
    36   17  142 1    
    37   18   19 1    
    38   18   67 1    
    39   18  143 1    
    40   19   20 am   BACKBONE|DICT|INTERRES
    41   19  144 1    
    42   20   21 2    
    43   20   22 1    
    44   22   23 1    
    45   22   24 1    
    46   22  145 1    
    47   23  146 1    
    48   23  147 1    
    49   23  148 1    
    50   24   25 am   BACKBONE|DICT|INTERRES
    51   24  149 1    
    52   25   26 2    
    53   25   27 1    
    54   27   28 1    
    55   27   29 1    
    56   27  150 1    
    57   28  151 1    
    58   28  152 1    
    59   28  153 1    
    60   29   30 am   BACKBONE|DICT|INTERRES
    61   29  154 1    
    62   30   31 2    
    63   30   32 1    
    64   32   33 1    
    65   32   34 1    
    66   32  155 1    
    67   33  156 1    
    68   33  157 1    
    69   33  158 1    
    70   34   35 am   BACKBONE|DICT|INTERRES
    71   34  159 1    
    72   35   36 2    
    73   35   37 1    
    74   37   38 1    
    75   37   39 1    
    76   37  160 1    
    77   38  161 1    
    78   38  162 1    
    79   38  163 1    
    80   39   40 am   BACKBONE|DICT|INTERRES
    81   39  164 1    
    82   40   41 2    
    83   40   42 1    
    84   42   43 1    
    85   42   44 1    
    86   42  165 1    
    87   43  166 1    
    88   43  167 1    
    89   43  168 1    
    90   44   45 am   BACKBONE|DICT|INTERRES
    91   44  169 1    
    92   45   46 2    
    93   45   47 1    
    94   47   48 1    
    95   47   49 1    
    96   47  170 1    
    97   48  171 1    
    98   48  172 1    
    99   48  173 1    
   100   49   50 am   BACKBONE|DICT|INTERRES
   101   49  174 1    
   102   50   51 2    
   103   50   52 1    
   104   52   53 1    
   105   52   54 1    
   106   52  175 1    
   107   53  176 1    
   108   53  177 1    
   109   53  178 1    
   110   54   55 am   BACKBONE|DICT|INTERRES
   111   54  179 1    
   112   55   56 2    
   113   55   57 1    
   114   57   58 1    
   115   57   59 1    
   116   57  180 1    
   117   58  181 1    
   118   58  182 1    
   119   58  183 1    
   120   59   60 am   BACKBONE|DICT|INTERRES
   121   59  184 1    
   122   60   61 2    
   123   60   62 1    
   124   62   63 1    
   125   62   64 1    
   126   62  185 1    
   127   63  186 1    
   128   63  187 1    
   129   63  188 1    
   130   64   65 am   BACKBONE|DICT|INTERRES
   131   64  189 1    
   132   65   66 2    
   133   67   68 2    
   134   67   69 am   BACKBONE|DICT|INTERRES
   135   69   70 1    
   136   69  190 1    
   137   70   71 1    
   138   70   72 1    
   139   70  191 1    
   140   71  192 1    
   141   71  193 1    
   142   71  194 1    
   143   72   73 2    
   144   72   74 am   BACKBONE|DICT|INTERRES
   145   74   75 1    
   146   74  195 1    
   147   75   76 1    
   148   75   77 1    
   149   75  196 1    
   150   76  197 1    
   151   76  198 1    
   152   76  199 1    
   153   77   78 2    
   154   77   79 am   BACKBONE|DICT|INTERRES
   155   79   80 1    
   156   79  200 1    
   157   80   81 1    
   158   80   82 1    
   159   80  201 1    
   160   81  202 1    
   161   81  203 1    
   162   81  204 1    
   163   82   83 2    
   164   82   84 am   BACKBONE|DICT|INTERRES
   165   84   85 1    
   166   84  205 1    
   167   85   86 1    
   168   85   87 1    
   169   85  206 1    
   170   86  207 1    
   171   86  208 1    
   172   86  209 1    
   173   87   88 2    
   174   87   89 am   BACKBONE|DICT|INTERRES
   175   89   90 1    
   176   89  210 1    
   177   90   91 1    
   178   90   92 1    
   179   90  211 1    
   180   91  212 1    
   181   91  213 1    
   182   91  214 1    
   183   92   93 2    
   184   92   94 am   BACKBONE|DICT|INTERRES
   185   94   95 1    
   186   94  215 1    
   187   95   96 1    
   188   95   97 1    
   189   95  216 1    
   190   96  217 1    
   191   96  218 1    
   192   96  219 1    
   193   97   98 2    
   194   97   99 am   BACKBONE|DICT|INTERRES
   195   99  100 1    
   196   99  220 1    
   197  100  101 1    
   198  100  102 1    
   199  100  221 1    
   200  101  222 1    
   201  101  223 1    
   202  101  224 1    
   203  102  103 2    
   204  102  104 am   BACKBONE|DICT|INTERRES
   205  104  105 1    
   206  104  225 1    
   207  105  106 1    
   208  105  107 1    
   209  105  226 1    
   210  106  227 1    
   211  106  228 1    
   212  106  229 1    
   213  107  108 2    
   214  107  109 am   BACKBONE|DICT|INTERRES
   215  109  110 1    
   216  109  230 1    
   217  110  111 1    
   218  110  112 1    
   219  110  231 1    
   220  111  232 1    
   221  111  233 1    
   222  111  234 1    
   223  112  113 2    
   224  112  114 am   BACKBONE|DICT|INTERRES
   225  114  115 1    
   226  114  235 1    
   227  115  116 1    
   228  115  117 1    
   229  115  236 1    
   230  116  237 1    
   231  116  238 1    
   232  116  239 1    
   233  117  118 2    
   234  117  119 am   BACKBONE|DICT|INTERRES
   235  119  120 1    
   236  119  240 1    
   237  120  121 1    
   238  120  124 1    
   239  120  241 1    
   240  121  122 am   BACKBONE|DICT|INTERRES
   241  121  123 2    
   242  122  242 1    
   243  122  243 1    
   244  124  125 1    
   245  124  244 1    
   246  124  245 1    
   247  125  126 1    
   248  126  246 1    
   249  126  247 1    
@<TRIPOS>SUBSTRUCTURE
     1 UNK         1 GROUP             0       ****    0 ROOT    
