@<TRIPOS>MOLECULE
3R540
247   249    1
SMALL
USER_CHARGES


@<TRIPOS>ATOM
      1 CA          6.7496  -13.5895  -50.7718 C.3       0 UNK        -0.1800 
      2 C           5.4269  -14.2210  -50.3619 C.2       0 UNK         0.5000 
      3 O           5.3779  -15.4209  -50.0888 O.2       0 UNK        -0.5000 
      4 N           4.3564  -13.4195  -50.3086 N.am      1 UNK        -0.5000 
      5 CA          2.9933  -13.8246  -49.9433 C.3       1 UNK         0.1400 
      6 C6          1.9373  -12.8539  -50.5326 C.3       23 UNK        -0.0398 
      7 S7          1.8401  -12.9627  -52.3524 S.3       23 UNK        -0.2404 
      8 C8          0.2884  -13.8916  -52.5836 C.3       23 UNK        -0.0205 
      9 C9          0.4488  -15.3722  -52.2663 C.ar      23 UNK        -0.0193 
     10 C10         0.7579  -16.2786  -53.2860 C.ar      23 UNK        -0.1150 
     11 C11         0.8750  -17.6436  -53.0091 C.ar      23 UNK        -0.0193 
     12 C12         0.7154  -18.0932  -51.6965 C.ar      23 UNK        -0.1150 
     13 C13         0.4012  -17.2021  -50.6693 C.ar      23 UNK        -0.0193 
     14 C14         0.2572  -15.8434  -50.9626 C.ar      23 UNK        -0.1150 
     15 C15         0.1690  -17.7207  -49.2585 C.3       23 UNK        -0.0205 
     16 S16         1.6148  -18.6167  -48.6057 S.3       23 UNK        -0.2404 
     17 C17         0.9602  -19.1392  -46.9890 C.3       23 UNK        -0.0398 
     18 CA          0.6296  -20.6478  -46.8891 C.3       11 UNK         0.1400 
     19 N           0.5003  -21.0509  -45.4876 N.am      11 UNK        -0.5000 
     20 C           0.3077  -22.2975  -45.0384 C.2       10 UNK         0.5000 
     21 O           0.2758  -23.2926  -45.7606 O.2       10 UNK        -0.5000 
     22 CA          0.0588  -22.4443  -43.5272 C.3       10 UNK         0.1400 
     23 CB          1.3850  -22.4923  -42.7535 C.3       10 UNK        -0.1800 
     24 N          -0.7790  -21.3640  -43.0027 N.am      10 UNK        -0.5000 
     25 C          -2.0827  -21.2158  -43.2776 C.2       9 UNK         0.5000 
     26 O          -2.7251  -21.9945  -43.9819 O.2       9 UNK        -0.5000 
     27 CA         -2.7698  -19.9607  -42.7069 C.3       9 UNK         0.1400 
     28 CB         -3.0893  -20.1423  -41.2155 C.3       9 UNK        -0.1800 
     29 N          -1.9679  -18.7497  -42.8875 N.am      9 UNK        -0.5000 
     30 C          -1.6538  -18.2219  -44.0784 C.2       8 UNK         0.5000 
     31 O          -2.0463  -18.6759  -45.1524 O.2       8 UNK        -0.5000 
     32 CA         -0.6951  -17.0172  -44.0775 C.3       8 UNK         0.1400 
     33 CB         -1.4801  -15.7036  -43.9734 C.3       8 UNK        -0.1800 
     34 N           0.3312  -17.0669  -43.0318 N.am      8 UNK        -0.5000 
     35 C           1.2185  -18.0589  -42.8635 C.2       7 UNK         0.5000 
     36 O           1.2366  -19.0756  -43.5561 O.2       7 UNK        -0.5000 
     37 CA          2.2644  -17.9008  -41.7489 C.3       7 UNK         0.1400 
     38 CB          3.5950  -17.4241  -42.3401 C.3       7 UNK        -0.1800 
     39 N           1.8398  -16.9544  -40.7189 N.am      7 UNK        -0.5000 
     40 C           1.1773  -17.2976  -39.6064 C.2       6 UNK         0.5000 
     41 O           0.8706  -18.4555  -39.3207 O.2       6 UNK        -0.5000 
     42 CA          0.7750  -16.1509  -38.6593 C.3       6 UNK         0.1400 
     43 CB          1.9180  -15.8321  -37.6836 C.3       6 UNK        -0.1800 
     44 N           0.3979  -14.9291  -39.3709 N.am      6 UNK        -0.5000 
     45 C          -0.6795  -14.8084  -40.1583 C.2       5 UNK         0.5000 
     46 O          -1.5007  -15.7084  -40.3356 O.2       5 UNK        -0.5000 
     47 CA         -0.8597  -13.4661  -40.8933 C.3       5 UNK         0.1400 
     48 CB         -1.7889  -12.5415  -40.0924 C.3       5 UNK        -0.1800 
     49 N           0.3865  -12.7497  -41.1869 N.am      5 UNK        -0.5000 
     50 C           1.4113  -13.2109  -41.9182 C.2       4 UNK         0.5000 
     51 O           1.4566  -14.3565  -42.3753 O.2       4 UNK        -0.5000 
     52 CA          2.5457  -12.1997  -42.1980 C.3       4 UNK         0.1400 
     53 CB          2.9848  -11.4324  -40.9306 C.3       4 UNK        -0.1800 
     54 N           3.7026  -12.7928  -42.8770 N.am      4 UNK        -0.5000 
     55 C           4.5628  -13.7010  -42.3975 C.2       3 UNK         0.5000 
     56 O           4.5155  -14.1650  -41.2564 O.2       3 UNK        -0.5000 
     57 CA          5.6351  -14.1908  -43.3941 C.3       3 UNK         0.1400 
     58 CB          6.7093  -15.0719  -42.7310 C.3       3 UNK        -0.1800 
     59 N           5.0159  -14.9427  -44.4865 N.am      3 UNK        -0.5000 
     60 C           4.4206  -14.4055  -45.5578 C.2       2 UNK         0.5000 
     61 O           4.4192  -13.1948  -45.7914 O.2       2 UNK        -0.5000 
     62 CA          3.6788  -15.4018  -46.4701 C.3       2 UNK         0.1400 
     63 CB          2.2894  -15.7347  -45.8924 C.3       2 UNK        -0.1800 
     64 N           3.5845  -14.9741  -47.8692 N.am      2 UNK        -0.5000 
     65 C           2.8488  -13.9946  -48.4129 C.2       1 UNK         0.5000 
     66 O           2.0889  -13.2594  -47.7797 O.2       1 UNK        -0.5000 
     67 C          -0.6220  -21.0359  -47.7089 C.2       11 UNK         0.5000 
     68 O          -0.4892  -21.6560  -48.7642 O.2       11 UNK        -0.5000 
     69 N          -1.8130  -20.7206  -47.1771 N.am      12 UNK        -0.5000 
     70 CA         -3.1008  -21.1018  -47.7552 C.3       12 UNK         0.1400 
     71 CB         -4.2375  -20.3762  -47.0218 C.3       12 UNK        -0.1800 
     72 C          -3.3300  -22.6224  -47.7426 C.2       12 UNK         0.5000 
     73 O          -3.7977  -23.1660  -48.7427 O.2       12 UNK        -0.5000 
     74 N          -2.9767  -23.2943  -46.6364 N.am      13 UNK        -0.5000 
     75 CA         -3.0644  -24.7506  -46.4905 C.3       13 UNK         0.1400 
     76 CB         -2.7205  -25.1595  -45.0514 C.3       13 UNK        -0.1800 
     77 C          -2.1841  -25.5080  -47.5022 C.2       13 UNK         0.5000 
     78 O          -2.6467  -26.4840  -48.0934 O.2       13 UNK        -0.5000 
     79 N          -0.9629  -25.0062  -47.7360 N.am      14 UNK        -0.5000 
     80 CA         -0.0319  -25.4978  -48.7564 C.3       14 UNK         0.1400 
     81 CB          1.3298  -24.8109  -48.5740 C.3       14 UNK        -0.1800 
     82 C          -0.5478  -25.3127  -50.1989 C.2       14 UNK         0.5000 
     83 O          -0.1790  -26.0912  -51.0782 O.2       14 UNK        -0.5000 
     84 N          -1.4270  -24.3240  -50.4057 N.am      15 UNK        -0.5000 
     85 CA         -2.1543  -24.0639  -51.6485 C.3       15 UNK         0.1400 
     86 CB         -2.3395  -22.5460  -51.8006 C.3       15 UNK        -0.1800 
     87 C          -3.5033  -24.8148  -51.7129 C.2       15 UNK         0.5000 
     88 O          -4.3955  -24.3920  -52.4500 O.2       15 UNK        -0.5000 
     89 N          -3.6384  -25.9012  -50.9356 N.am      16 UNK        -0.5000 
     90 CA         -4.8032  -26.7852  -50.8253 C.3       16 UNK         0.1400 
     91 CB         -5.0308  -27.5585  -52.1408 C.3       16 UNK        -0.1800 
     92 C          -6.0574  -26.0482  -50.3145 C.2       16 UNK         0.5000 
     93 O          -7.1456  -26.2103  -50.8686 O.2       16 UNK        -0.5000 
     94 N          -5.8564  -25.2395  -49.2638 N.am      17 UNK        -0.5000 
     95 CA         -6.8226  -24.3299  -48.6397 C.3       17 UNK         0.1400 
     96 CB         -8.0142  -25.0991  -48.0311 C.3       17 UNK        -0.1800 
     97 C          -7.2381  -23.1976  -49.6009 C.2       17 UNK         0.5000 
     98 O          -8.4248  -22.8859  -49.7150 O.2       17 UNK        -0.5000 
     99 N          -6.2304  -22.6140  -50.2691 N.am      18 UNK        -0.5000 
    100 CA        -6.3133  -21.5508  -51.2750 C.3       18 UNK         0.1400 
    101 CB        -6.7203  -20.2202  -50.6103 C.3       18 UNK        -0.1800 
    102 C         -7.2276  -21.9385  -52.4552 C.2       18 UNK         0.5000 
    103 O         -8.2527  -21.2928  -52.6885 O.2       18 UNK        -0.5000 
    104 N         -6.8616  -23.0229  -53.1512 N.am      19 UNK        -0.5000 
    105 CA        -7.6040  -23.6153  -54.2647 C.3       19 UNK         0.1400 
    106 CB        -7.0476  -25.0221  -54.5394 C.3       19 UNK        -0.1800 
    107 C         -7.5981  -22.7252  -55.5259 C.2       19 UNK         0.5000 
    108 O         -6.8285  -22.9699  -56.4561 O.2       19 UNK        -0.5000 
    109 N         -8.4539  -21.6939  -55.5105 N.am      20 UNK        -0.5000 
    110 CA        -8.7159  -20.6882  -56.5511 C.3       20 UNK         0.1400 
    111 CB        -9.1582  -21.3512  -57.8720 C.3       20 UNK        -0.1800 
    112 C         -7.5802  -19.6655  -56.7721 C.2       20 UNK         0.5000 
    113 O         -7.7383  -18.7592  -57.5917 O.2       20 UNK        -0.5000 
    114 N         -6.4792  -19.7939  -56.0276 N.am      21 UNK        -0.5000 
    115 CA        -5.3059  -18.9303  -56.0358 C.3       21 UNK         0.1400 
    116 CB        -4.4836  -19.1559  -57.3198 C.3       21 UNK        -0.1800 
    117 C         -4.4698  -19.2591  -54.7919 C.2       21 UNK         0.5000 
    118 O         -4.6604  -20.3229  -54.1944 O.2       21 UNK        -0.5000 
    119 N         -3.5447  -18.3550  -54.4448 N.am      22 UNK        -0.5000 
    120 CA        -2.5520  -18.5262  -53.3671 C.3       22 UNK         0.1400 
    121 C         -3.1636  -18.6563  -51.9373 C.2       22 UNK         0.5000 
    122 N         -4.3093  -18.0411  -51.6719 N.am      22 UNK        -0.7600 
    123 O         -2.5946  -19.2829  -51.0502 O.2       22 UNK        -0.5000 
    124 C124       -1.5015  -19.6212  -53.7183 C.3       23 UNK        -0.0398 
    125 S125       -0.3800  -19.0617  -55.0493 S.3       23 UNK        -0.2404 
    126 C126        1.1386  -18.6436  -54.1259 C.3       23 UNK        -0.0205 
    127 H127        6.6425  -12.5257  -50.9853 H         1 UNK         0.0600 
    128 H128        7.1371  -14.0784  -51.6656 H         1 UNK         0.0600 
    129 H129        7.4831  -13.7043  -49.9737 H         1 UNK         0.0600 
    130 H130        4.4687  -12.4405  -50.5299 H         1 UNK         0.3000 
    131 H131        2.8084  -14.8105  -50.3748 H         1 UNK         0.0600 
    132 H132        0.9469  -13.0460  -50.1184 H         1 UNK         0.0800 
    133 H133        2.1723  -11.8241  -50.2588 H         1 UNK         0.0800 
    134 H134       -0.5035  -13.4550  -51.9731 H         1 UNK         0.0800 
    135 H135       -0.0348  -13.7718  -53.6188 H         1 UNK         0.0800 
    136 H136        0.8847  -15.9262  -54.3001 H         1 UNK         0.1150 
    137 H137        0.8070  -19.1467  -51.4712 H         1 UNK         0.1150 
    138 H138       -0.0082  -15.1535  -50.1749 H         1 UNK         0.1150 
    139 H139       -0.0753  -16.8994  -48.5829 H         1 UNK         0.0800 
    140 H140       -0.6960  -18.3856  -49.2694 H         1 UNK         0.0800 
    141 H141        0.0912  -18.5355  -46.7317 H         1 UNK         0.0800 
    142 H142        1.7258  -18.8852  -46.2545 H         1 UNK         0.0800 
    143 H143        1.4736  -21.2085  -47.2962 H         1 UNK         0.0600 
    144 H144        0.5726  -20.3084  -44.7965 H         1 UNK         0.3000 
    145 H145       -0.4619  -23.3895  -43.3623 H         1 UNK         0.0600 
    146 H146        1.2141  -22.6469  -41.6880 H         1 UNK         0.0600 
    147 H147        2.0096  -23.3144  -43.1049 H         1 UNK         0.0600 
    148 H148        1.9587  -21.5726  -42.8710 H         1 UNK         0.0600 
    149 H149       -0.3098  -20.6449  -42.4717 H         1 UNK         0.3000 
    150 H150       -3.7112  -19.8249  -43.2437 H         1 UNK         0.0600 
    151 H151       -3.6946  -21.0349  -41.0519 H         1 UNK         0.0600 
    152 H152       -3.6522  -19.2931  -40.8276 H         1 UNK         0.0600 
    153 H153       -2.1832  -20.2446  -40.6169 H         1 UNK         0.0600 
    154 H154       -1.6025  -18.3085  -42.0555 H         1 UNK         0.3000 
    155 H155       -0.1746  -17.0136  -45.0346 H         1 UNK         0.0600 
    156 H156       -2.0427  -15.6467  -43.0416 H         1 UNK         0.0600 
    157 H157       -0.8157  -14.8408  -44.0262 H         1 UNK         0.0600 
    158 H158       -2.1949  -15.6122  -44.7921 H         1 UNK         0.0600 
    159 H159        0.4417  -16.2325  -42.4691 H         1 UNK         0.3000 
    160 H160        2.4269  -18.8863  -41.3072 H         1 UNK         0.0600 
    161 H161        3.4890  -16.4341  -42.7796 H         1 UNK         0.0600 
    162 H162        3.9488  -18.1015  -43.1185 H         1 UNK         0.0600 
    163 H163        4.3682  -17.3708  -41.5737 H         1 UNK         0.0600 
    164 H164        2.0227  -15.9754  -40.9022 H         1 UNK         0.3000 
    165 H165       -0.0877  -16.4856  -38.0793 H         1 UNK         0.0600 
    166 H166        1.6183  -15.0755  -36.9583 H         1 UNK         0.0600 
    167 H167        2.2116  -16.7204  -37.1227 H         1 UNK         0.0600 
    168 H168        2.8031  -15.4659  -38.2058 H         1 UNK         0.0600 
    169 H169        1.0210  -14.1395  -39.2868 H         1 UNK         0.3000 
    170 H170       -1.3417  -13.6796  -41.8480 H         1 UNK         0.0600 
    171 H171       -1.3458  -12.2550  -39.1378 H         1 UNK         0.0600 
    172 H172       -2.0136  -11.6300  -40.6466 H         1 UNK         0.0600 
    173 H173       -2.7399  -13.0317  -39.8789 H         1 UNK         0.0600 
    174 H174        0.4341  -11.7996  -40.8488 H         1 UNK         0.3000 
    175 H175        2.1362  -11.4728  -42.9008 H         1 UNK         0.0600 
    176 H176        3.8371  -10.7853  -41.1386 H         1 UNK         0.0600 
    177 H177        3.2690  -12.1077  -40.1229 H         1 UNK         0.0600 
    178 H178        2.1870  -10.7916  -40.5546 H         1 UNK         0.0600 
    179 H179        3.8018  -12.5499  -43.8565 H         1 UNK         0.3000 
    180 H180        6.1366  -13.3090  -43.7990 H         1 UNK         0.0600 
    181 H181        6.2863  -15.9867  -42.3156 H         1 UNK         0.0600 
    182 H182        7.2021  -14.5389  -41.9169 H         1 UNK         0.0600 
    183 H183        7.4816  -15.3554  -43.4462 H         1 UNK         0.0600 
    184 H184        4.9656  -15.9418  -44.3546 H         1 UNK         0.3000 
    185 H185        4.2604  -16.3247  -46.4937 H         1 UNK         0.0600 
    186 H186        1.7104  -14.8366  -45.6734 H         1 UNK         0.0600 
    187 H187        1.7080  -16.3453  -46.5806 H         1 UNK         0.0600 
    188 H188        2.3827  -16.2897  -44.9606 H         1 UNK         0.0600 
    189 H189        4.2155  -15.4525  -48.5062 H         1 UNK         0.3000 
    190 H190       -1.8468  -20.1710  -46.3226 H         1 UNK         0.3000 
    191 H191       -3.1094  -20.7760  -48.7973 H         1 UNK         0.0600 
    192 H192       -4.1339  -19.2947  -47.1113 H         1 UNK         0.0600 
    193 H193       -5.2082  -20.6464  -47.4400 H         1 UNK         0.0600 
    194 H194       -4.2545  -20.6232  -45.9597 H         1 UNK         0.0600 
    195 H195       -2.6490  -22.7749  -45.8280 H         1 UNK         0.3000 
    196 H196       -4.1013  -25.0359  -46.6783 H         1 UNK         0.0600 
    197 H197       -2.8256  -26.2367  -44.9171 H         1 UNK         0.0600 
    198 H198       -3.3845  -24.6769  -44.3343 H         1 UNK         0.0600 
    199 H199       -1.6960  -24.8964  -44.7910 H         1 UNK         0.0600 
    200 H200       -0.6395  -24.2274  -47.1675 H         1 UNK         0.3000 
    201 H201        0.1033  -26.5688  -48.5933 H         1 UNK         0.0600 
    202 H202        1.7389  -25.0044  -47.5822 H         1 UNK         0.0600 
    203 H203        1.2553  -23.7305  -48.6993 H         1 UNK         0.0600 
    204 H204        2.0543  -25.1775  -49.3022 H         1 UNK         0.0600 
    205 H205       -1.6741  -23.7330  -49.6219 H         1 UNK         0.3000 
    206 H206       -1.5592  -24.4113  -52.4951 H         1 UNK         0.0600 
    207 H207       -1.3796  -22.0308  -51.7783 H         1 UNK         0.0600 
    208 H208       -2.8235  -22.2999  -52.7459 H         1 UNK         0.0600 
    209 H209       -2.9543  -22.1291  -51.0038 H         1 UNK         0.0600 
    210 H210       -2.8723  -26.1290  -50.3151 H         1 UNK         0.3000 
    211 H211       -4.5560  -27.5195  -50.0572 H         1 UNK         0.0600 
    212 H212       -5.2738  -26.8930  -52.9682 H         1 UNK         0.0600 
    213 H213       -5.8504  -28.2709  -52.0408 H         1 UNK         0.0600 
    214 H214       -4.1426  -28.1249  -52.4202 H         1 UNK         0.0600 
    215 H215       -4.9016  -25.1256  -48.9488 H         1 UNK         0.3000 
    216 H216       -6.2988  -23.8476  -47.8134 H         1 UNK         0.0600 
    217 H217       -8.6485  -24.4314  -47.4471 H         1 UNK         0.0600 
    218 H218       -7.6730  -25.8892  -47.3623 H         1 UNK         0.0600 
    219 H219       -8.6425  -25.5546  -48.7968 H         1 UNK         0.0600 
    220 H220       -5.2944  -22.9472  -50.0627 H         1 UNK         0.3000 
    221 H221       -5.3100  -21.4227  -51.6843 H         1 UNK         0.0600 
    222 H222       -7.7050  -20.2794  -50.1462 H         1 UNK         0.0600 
    223 H223       -6.0034  -19.9312  -49.8420 H         1 UNK         0.0600 
    224 H224       -6.7562  -19.4158  -51.3453 H         1 UNK         0.0600 
    225 H225       -5.9963  -23.4942  -52.8942 H         1 UNK         0.3000 
    226 H226       -8.6436  -23.7343  -53.9524 H         1 UNK         0.0600 
    227 H227       -7.1895  -25.6703  -53.6749 H         1 UNK         0.0600 
    228 H228       -7.5585  -25.4899  -55.3819 H         1 UNK         0.0600 
    229 H229       -5.9818  -24.9973  -54.7703 H         1 UNK         0.0600 
    230 H230       -8.9315  -21.5284  -54.6301 H         1 UNK         0.3000 
    231 H231       -9.5629  -20.1077  -56.1829 H         1 UNK         0.0600 
    232 H232       -8.3417  -21.8933  -58.3493 H         1 UNK         0.0600 
    233 H233       -9.5094  -20.6042  -58.5848 H         1 UNK         0.0600 
    234 H234       -9.9776  -22.0511  -57.7083 H         1 UNK         0.0600 
    235 H235       -6.4189  -20.5531  -55.3598 H         1 UNK         0.3000 
    236 H236       -5.6284  -17.8890  -55.9762 H         1 UNK         0.0600 
    237 H237       -5.0521  -18.8932  -58.2117 H         1 UNK         0.0600 
    238 H238       -3.5813  -18.5433  -57.3234 H         1 UNK         0.0600 
    239 H239       -4.1732  -20.1972  -57.4162 H         1 UNK         0.0600 
    240 H240       -3.4583  -17.5077  -54.9872 H         1 UNK         0.3000 
    241 H241       -2.0174  -17.5775  -53.3132 H         1 UNK         0.0600 
    242 H242       -4.7847  -17.5079  -52.3816 H         1 UNK         0.3800 
    243 H243       -4.6921  -18.0994  -50.7433 H         1 UNK         0.3800 
    244 H244       -0.9069  -19.9107  -52.8540 H         1 UNK         0.0800 
    245 H245       -1.9909  -20.5371  -54.0470 H         1 UNK         0.0800 
    246 H246        1.8744  -18.2331  -54.8188 H         1 UNK         0.0800 
    247 H247        1.5767  -19.5585  -53.7236 H         1 UNK         0.0800 
@<TRIPOS>BOND
     1    1    2 1    
     2    1  127 1    
     3    1  128 1    
     4    1  129 1    
     5    2    3 2    
     6    2    4 am   BACKBONE|DICT|INTERRES
     7    4    5 1    
     8    4  130 1    
     9    5    6 1    
    10    5   65 1    
    11    5  131 1    
    12    6    7 1    
    13    6  132 1    
    14    6  133 1    
    15    7    8 1    
    16    8    9 1    
    17    8  134 1    
    18    8  135 1    
    19    9   10 ar   
    20    9   14 ar   
    21   10   11 ar   
    22   10  136 1    
    23   11   12 ar   
    24   11  126 1    
    25   12   13 ar   
    26   12  137 1    
    27   13   14 ar   
    28   13   15 1    
    29   14  138 1    
    30   15   16 1    
    31   15  139 1    
    32   15  140 1    
    33   16   17 1    
    34   17   18 1    
    35   17  141 1    
    36   17  142 1    
    37   18   19 1    
    38   18   67 1    
    39   18  143 1    
    40   19   20 am   BACKBONE|DICT|INTERRES
    41   19  144 1    
    42   20   21 2    
    43   20   22 1    
    44   22   23 1    
    45   22   24 1    
    46   22  145 1    
    47   23  146 1    
    48   23  147 1    
    49   23  148 1    
    50   24   25 am   BACKBONE|DICT|INTERRES
    51   24  149 1    
    52   25   26 2    
    53   25   27 1    
    54   27   28 1    
    55   27   29 1    
    56   27  150 1    
    57   28  151 1    
    58   28  152 1    
    59   28  153 1    
    60   29   30 am   BACKBONE|DICT|INTERRES
    61   29  154 1    
    62   30   31 2    
    63   30   32 1    
    64   32   33 1    
    65   32   34 1    
    66   32  155 1    
    67   33  156 1    
    68   33  157 1    
    69   33  158 1    
    70   34   35 am   BACKBONE|DICT|INTERRES
    71   34  159 1    
    72   35   36 2    
    73   35   37 1    
    74   37   38 1    
    75   37   39 1    
    76   37  160 1    
    77   38  161 1    
    78   38  162 1    
    79   38  163 1    
    80   39   40 am   BACKBONE|DICT|INTERRES
    81   39  164 1    
    82   40   41 2    
    83   40   42 1    
    84   42   43 1    
    85   42   44 1    
    86   42  165 1    
    87   43  166 1    
    88   43  167 1    
    89   43  168 1    
    90   44   45 am   BACKBONE|DICT|INTERRES
    91   44  169 1    
    92   45   46 2    
    93   45   47 1    
    94   47   48 1    
    95   47   49 1    
    96   47  170 1    
    97   48  171 1    
    98   48  172 1    
    99   48  173 1    
   100   49   50 am   BACKBONE|DICT|INTERRES
   101   49  174 1    
   102   50   51 2    
   103   50   52 1    
   104   52   53 1    
   105   52   54 1    
   106   52  175 1    
   107   53  176 1    
   108   53  177 1    
   109   53  178 1    
   110   54   55 am   BACKBONE|DICT|INTERRES
   111   54  179 1    
   112   55   56 2    
   113   55   57 1    
   114   57   58 1    
   115   57   59 1    
   116   57  180 1    
   117   58  181 1    
   118   58  182 1    
   119   58  183 1    
   120   59   60 am   BACKBONE|DICT|INTERRES
   121   59  184 1    
   122   60   61 2    
   123   60   62 1    
   124   62   63 1    
   125   62   64 1    
   126   62  185 1    
   127   63  186 1    
   128   63  187 1    
   129   63  188 1    
   130   64   65 am   BACKBONE|DICT|INTERRES
   131   64  189 1    
   132   65   66 2    
   133   67   68 2    
   134   67   69 am   BACKBONE|DICT|INTERRES
   135   69   70 1    
   136   69  190 1    
   137   70   71 1    
   138   70   72 1    
   139   70  191 1    
   140   71  192 1    
   141   71  193 1    
   142   71  194 1    
   143   72   73 2    
   144   72   74 am   BACKBONE|DICT|INTERRES
   145   74   75 1    
   146   74  195 1    
   147   75   76 1    
   148   75   77 1    
   149   75  196 1    
   150   76  197 1    
   151   76  198 1    
   152   76  199 1    
   153   77   78 2    
   154   77   79 am   BACKBONE|DICT|INTERRES
   155   79   80 1    
   156   79  200 1    
   157   80   81 1    
   158   80   82 1    
   159   80  201 1    
   160   81  202 1    
   161   81  203 1    
   162   81  204 1    
   163   82   83 2    
   164   82   84 am   BACKBONE|DICT|INTERRES
   165   84   85 1    
   166   84  205 1    
   167   85   86 1    
   168   85   87 1    
   169   85  206 1    
   170   86  207 1    
   171   86  208 1    
   172   86  209 1    
   173   87   88 2    
   174   87   89 am   BACKBONE|DICT|INTERRES
   175   89   90 1    
   176   89  210 1    
   177   90   91 1    
   178   90   92 1    
   179   90  211 1    
   180   91  212 1    
   181   91  213 1    
   182   91  214 1    
   183   92   93 2    
   184   92   94 am   BACKBONE|DICT|INTERRES
   185   94   95 1    
   186   94  215 1    
   187   95   96 1    
   188   95   97 1    
   189   95  216 1    
   190   96  217 1    
   191   96  218 1    
   192   96  219 1    
   193   97   98 2    
   194   97   99 am   BACKBONE|DICT|INTERRES
   195   99  100 1    
   196   99  220 1    
   197  100  101 1    
   198  100  102 1    
   199  100  221 1    
   200  101  222 1    
   201  101  223 1    
   202  101  224 1    
   203  102  103 2    
   204  102  104 am   BACKBONE|DICT|INTERRES
   205  104  105 1    
   206  104  225 1    
   207  105  106 1    
   208  105  107 1    
   209  105  226 1    
   210  106  227 1    
   211  106  228 1    
   212  106  229 1    
   213  107  108 2    
   214  107  109 am   BACKBONE|DICT|INTERRES
   215  109  110 1    
   216  109  230 1    
   217  110  111 1    
   218  110  112 1    
   219  110  231 1    
   220  111  232 1    
   221  111  233 1    
   222  111  234 1    
   223  112  113 2    
   224  112  114 am   BACKBONE|DICT|INTERRES
   225  114  115 1    
   226  114  235 1    
   227  115  116 1    
   228  115  117 1    
   229  115  236 1    
   230  116  237 1    
   231  116  238 1    
   232  116  239 1    
   233  117  118 2    
   234  117  119 am   BACKBONE|DICT|INTERRES
   235  119  120 1    
   236  119  240 1    
   237  120  121 1    
   238  120  124 1    
   239  120  241 1    
   240  121  122 am   BACKBONE|DICT|INTERRES
   241  121  123 2    
   242  122  242 1    
   243  122  243 1    
   244  124  125 1    
   245  124  244 1    
   246  124  245 1    
   247  125  126 1    
   248  126  246 1    
   249  126  247 1    
@<TRIPOS>SUBSTRUCTURE
     1 UNK         1 GROUP             0       ****    0 ROOT    
