@<TRIPOS>MOLECULE
3R540
247   249    1
SMALL
USER_CHARGES


@<TRIPOS>ATOM
      1 CA          0.2781  -10.8579  -44.5056 C.3       0 UNK        -0.1800 
      2 C           0.8105  -11.0791  -45.9145 C.2       0 UNK         0.5000 
      3 O           1.1503  -10.1173  -46.6048 O.2       0 UNK        -0.5000 
      4 N           0.8922  -12.3430  -46.3449 N.am      1 UNK        -0.5000 
      5 CA          1.3297  -12.7804  -47.6773 C.3       1 UNK         0.1400 
      6 C6          0.7183  -14.1573  -48.0455 C.3       23 UNK        -0.0398 
      7 S7         -1.1037  -14.0725  -48.1381 S.3       23 UNK        -0.2404 
      8 C8         -1.4040  -14.2813  -49.9208 C.3       23 UNK        -0.0205 
      9 C9         -1.7941  -15.7139  -50.2473 C.ar      23 UNK        -0.0193 
     10 C10        -3.1367  -16.0380  -50.4580 C.ar      23 UNK        -0.1150 
     11 C11        -3.5150  -17.3485  -50.7574 C.ar      23 UNK        -0.0193 
     12 C12        -2.5366  -18.3460  -50.8233 C.ar      23 UNK        -0.1150 
     13 C13        -1.1853  -18.0353  -50.6266 C.ar      23 UNK        -0.0193 
     14 C14        -0.8214  -16.7126  -50.3495 C.ar      23 UNK        -0.1150 
     15 C15        -0.1298  -19.1285  -50.7757 C.3       23 UNK        -0.0205 
     16 S16         1.1824  -19.1284  -49.5034 S.3       23 UNK        -0.2404 
     17 C17         0.2671  -19.1519  -47.9258 C.3       23 UNK        -0.0398 
     18 CA         -0.2272  -20.5616  -47.5001 C.3       11 UNK         0.1400 
     19 N          -0.1623  -20.7488  -46.0440 N.am      11 UNK        -0.5000 
     20 C          -0.4558  -21.8813  -45.3873 C.2       10 UNK         0.5000 
     21 O          -0.7626  -22.9346  -45.9404 O.2       10 UNK        -0.5000 
     22 CA         -0.4757  -21.8184  -43.8491 C.3       10 UNK         0.1400 
     23 CB          0.9398  -21.9443  -43.2672 C.3       10 UNK        -0.1800 
     24 N          -1.1245  -20.6050  -43.3513 N.am      10 UNK        -0.5000 
     25 C          -2.4187  -20.3138  -43.5494 C.2       9 UNK         0.5000 
     26 O          -3.2094  -21.0770  -44.1044 O.2       9 UNK        -0.5000 
     27 CA         -2.9017  -18.9228  -43.0983 C.3       9 UNK         0.1400 
     28 CB         -3.2500  -18.9241  -41.6027 C.3       9 UNK        -0.1800 
     29 N          -1.9296  -17.8647  -43.3787 N.am      9 UNK        -0.5000 
     30 C          -1.5241  -17.5076  -44.6064 C.2       8 UNK         0.5000 
     31 O          -1.9638  -18.0050  -45.6424 O.2       8 UNK        -0.5000 
     32 CA         -0.3878  -16.4710  -44.6872 C.3       8 UNK         0.1400 
     33 CB         -0.9156  -15.0490  -44.4487 C.3       8 UNK        -0.1800 
     34 N           0.6916  -16.7591  -43.7416 N.am      8 UNK        -0.5000 
     35 C           1.4445  -17.8679  -43.7625 C.2       7 UNK         0.5000 
     36 O           1.3589  -18.7326  -44.6327 O.2       7 UNK        -0.5000 
     37 CA          2.4106  -18.0771  -42.5844 C.3       7 UNK         0.1400 
     38 CB          3.7400  -17.3467  -42.8171 C.3       7 UNK        -0.1800 
     39 N           1.8225  -17.6416  -41.3185 N.am      7 UNK        -0.5000 
     40 C           0.8415  -18.2944  -40.6801 C.2       6 UNK         0.5000 
     41 O           0.3629  -19.3579  -41.0730 O.2       6 UNK        -0.5000 
     42 CA          0.2756  -17.6256  -39.4132 C.3       6 UNK         0.1400 
     43 CB          1.1385  -17.9678  -38.1895 C.3       6 UNK        -0.1800 
     44 N           0.1740  -16.1708  -39.5429 N.am      6 UNK        -0.5000 
     45 C          -0.6653  -15.5438  -40.3794 C.2       5 UNK         0.5000 
     46 O          -1.4797  -16.1299  -41.0911 O.2       5 UNK        -0.5000 
     47 CA         -0.5381  -14.0102  -40.4762 C.3       5 UNK         0.1400 
     48 CB         -1.4416  -13.3282  -39.4387 C.3       5 UNK        -0.1800 
     49 N           0.8361  -13.5202  -40.3212 N.am      5 UNK        -0.5000 
     50 C           1.8592  -13.8533  -41.1192 C.2       4 UNK         0.5000 
     51 O           1.7531  -14.6397  -42.0631 O.2       4 UNK        -0.5000 
     52 CA          3.2338  -13.2581  -40.7516 C.3       4 UNK         0.1400 
     53 CB          3.8254  -14.0075  -39.5464 C.3       4 UNK        -0.1800 
     54 N           4.2012  -13.3191  -41.8499 N.am      4 UNK        -0.5000 
     55 C           4.0817  -12.6797  -43.0196 C.2       3 UNK         0.5000 
     56 O           3.1588  -11.9029  -43.2839 O.2       3 UNK        -0.5000 
     57 CA          5.1777  -12.9494  -44.0662 C.3       3 UNK         0.1400 
     58 CB          5.3141  -14.4542  -44.3796 C.3       3 UNK        -0.1800 
     59 N           4.8252  -12.2213  -45.2773 N.am      3 UNK        -0.5000 
     60 C           5.5951  -11.9890  -46.3448 C.2       2 UNK         0.5000 
     61 O           6.7851  -12.3030  -46.4100 O.2       2 UNK        -0.5000 
     62 CA          4.9025  -11.2900  -47.5374 C.3       2 UNK         0.1400 
     63 CB          5.5923  -11.5798  -48.8868 C.3       2 UNK        -0.1800 
     64 N           3.4621  -11.5771  -47.6126 N.am      2 UNK        -0.5000 
     65 C           2.8713  -12.7719  -47.7717 C.2       1 UNK         0.5000 
     66 O           3.4864  -13.8259  -47.9404 O.2       1 UNK        -0.5000 
     67 C          -1.6457  -20.8241  -48.0466 C.2       11 UNK         0.5000 
     68 O          -1.8050  -21.5510  -49.0270 O.2       11 UNK        -0.5000 
     69 N          -2.6466  -20.2342  -47.3795 N.am      12 UNK        -0.5000 
     70 CA         -4.0654  -20.3527  -47.7040 C.3       12 UNK         0.1400 
     71 CB         -4.8597  -19.4217  -46.7753 C.3       12 UNK        -0.1800 
     72 C          -4.5950  -21.7949  -47.6094 C.2       12 UNK         0.5000 
     73 O          -5.4114  -22.1944  -48.4426 O.2       12 UNK        -0.5000 
     74 N          -4.1255  -22.5351  -46.5964 N.am      13 UNK        -0.5000 
     75 CA         -4.4713  -23.9306  -46.3486 C.3       13 UNK         0.1400 
     76 CB         -4.2210  -24.2589  -44.8673 C.3       13 UNK        -0.1800 
     77 C          -3.6989  -24.8901  -47.2703 C.2       13 UNK         0.5000 
     78 O          -4.3147  -25.6208  -48.0473 O.2       13 UNK        -0.5000 
     79 N          -2.3631  -24.8757  -47.1780 N.am      14 UNK        -0.5000 
     80 CA         -1.4512  -25.7664  -47.8977 C.3       14 UNK         0.1400 
     81 CB         -0.2357  -26.0725  -47.0036 C.3       14 UNK        -0.1800 
     82 C          -1.0554  -25.1695  -49.2610 C.2       14 UNK         0.5000 
     83 O           0.1302  -25.0401  -49.5716 O.2       14 UNK        -0.5000 
     84 N          -2.0724  -24.8115  -50.0517 N.am      15 UNK        -0.5000 
     85 CA         -1.9384  -24.1886  -51.3673 C.3       15 UNK         0.1400 
     86 CB         -3.2961  -23.5916  -51.7524 C.3       15 UNK        -0.1800 
     87 C          -1.4478  -25.1479  -52.4659 C.2       15 UNK         0.5000 
     88 O          -0.9293  -24.6806  -53.4821 O.2       15 UNK        -0.5000 
     89 N          -1.6593  -26.4591  -52.2616 N.am      16 UNK        -0.5000 
     90 CA         -1.2345  -27.5869  -53.1069 C.3       16 UNK         0.1400 
     91 CB          0.3014  -27.7240  -53.0582 C.3       16 UNK        -0.1800 
     92 C          -1.7643  -27.5406  -54.5591 C.2       16 UNK         0.5000 
     93 O          -1.1786  -28.1675  -55.4427 O.2       16 UNK        -0.5000 
     94 N          -2.8372  -26.7651  -54.7816 N.am      17 UNK        -0.5000 
     95 CA         -3.4184  -26.3708  -56.0724 C.3       17 UNK         0.1400 
     96 CB         -3.9621  -27.5960  -56.8365 C.3       17 UNK        -0.1800 
     97 C          -2.4871  -25.4971  -56.9478 C.2       17 UNK         0.5000 
     98 O          -2.8173  -25.2388  -58.1065 O.2       17 UNK        -0.5000 
     99 N          -1.3580  -25.0402  -56.3883 N.am      18 UNK        -0.5000 
    100 CA        -0.4299  -24.1026  -57.0144 C.3       18 UNK         0.1400 
    101 CB         0.9909  -24.3650  -56.4901 C.3       18 UNK        -0.1800 
    102 C         -0.8678  -22.6585  -56.7272 C.2       18 UNK         0.5000 
    103 O         -0.8893  -21.8336  -57.6419 O.2       18 UNK        -0.5000 
    104 N         -1.2430  -22.3957  -55.4684 N.am      19 UNK        -0.5000 
    105 CA        -1.9031  -21.1653  -55.0392 C.3       19 UNK         0.1400 
    106 CB        -1.4300  -20.8145  -53.6194 C.3       19 UNK        -0.1800 
    107 C         -3.4358  -21.3191  -55.1191 C.2       19 UNK         0.5000 
    108 O         -3.9408  -22.4014  -55.4287 O.2       19 UNK        -0.5000 
    109 N         -4.1518  -20.2220  -54.8409 N.am      20 UNK        -0.5000 
    110 CA        -5.6029  -20.0898  -55.0145 C.3       20 UNK         0.1400 
    111 CB        -5.9764  -18.6039  -54.8858 C.3       20 UNK        -0.1800 
    112 C         -6.4775  -20.9469  -54.0738 C.2       20 UNK         0.5000 
    113 O         -7.6694  -21.0873  -54.3503 O.2       20 UNK        -0.5000 
    114 N         -5.8927  -21.4867  -52.9914 N.am      21 UNK        -0.5000 
    115 CA        -6.5450  -22.3118  -51.9616 C.3       21 UNK         0.1400 
    116 CB        -7.0050  -23.6642  -52.5461 C.3       21 UNK        -0.1800 
    117 C         -7.6632  -21.5476  -51.2267 C.2       21 UNK         0.5000 
    118 O         -8.7909  -22.0305  -51.1085 O.2       21 UNK        -0.5000 
    119 N         -7.3141  -20.3385  -50.7755 N.am      22 UNK        -0.5000 
    120 CA        -8.2016  -19.3875  -50.0942 C.3       22 UNK         0.1400 
    121 C         -8.6013  -19.7615  -48.6346 C.2       22 UNK         0.5000 
    122 N         -8.0391  -20.7986  -48.0251 N.am      22 UNK        -0.7600 
    123 O         -9.4614  -19.1083  -48.0502 O.2       22 UNK        -0.5000 
    124 C124       -7.6666  -17.9361  -50.2207 C.3       23 UNK        -0.0398 
    125 S125       -5.9858  -17.6873  -49.5427 S.3       23 UNK        -0.2404 
    126 C126       -4.9744  -17.6631  -51.0540 C.3       23 UNK        -0.0205 
    127 H127       -0.6989  -10.3767  -44.5442 H         1 UNK         0.0600 
    128 H128        0.1783  -11.7957  -43.9582 H         1 UNK         0.0600 
    129 H129        0.9558  -10.2136  -43.9455 H         1 UNK         0.0600 
    130 H130        0.6165  -13.0860  -45.7211 H         1 UNK         0.3000 
    131 H131        0.9719  -12.0584  -48.4149 H         1 UNK         0.0600 
    132 H132        1.1153  -14.5143  -48.9968 H         1 UNK         0.0800 
    133 H133        0.9936  -14.9109  -47.3063 H         1 UNK         0.0800 
    134 H134       -2.2038  -13.6001  -50.2151 H         1 UNK         0.0800 
    135 H135       -0.5322  -13.9834  -50.5045 H         1 UNK         0.0800 
    136 H136       -3.8926  -15.2677  -50.3958 H         1 UNK         0.1150 
    137 H137       -2.8244  -19.3629  -51.0503 H         1 UNK         0.1150 
    138 H138        0.2197  -16.4612  -50.2068 H         1 UNK         0.1150 
    139 H139       -0.5942  -20.1140  -50.7967 H         1 UNK         0.0800 
    140 H140        0.3460  -19.0050  -51.7490 H         1 UNK         0.0800 
    141 H141       -0.5358  -18.4127  -47.9426 H         1 UNK         0.0800 
    142 H142        0.9746  -18.7732  -47.1889 H         1 UNK         0.0800 
    143 H143        0.4360  -21.3144  -47.9315 H         1 UNK         0.0600 
    144 H144        0.1318  -19.9431  -45.4992 H         1 UNK         0.3000 
    145 H145       -1.0577  -22.6709  -43.4923 H         1 UNK         0.0600 
    146 H146        0.9203  -21.9397  -42.1773 H         1 UNK         0.0600 
    147 H147        1.4052  -22.8796  -43.5804 H         1 UNK         0.0600 
    148 H148        1.5886  -21.1330  -43.5940 H         1 UNK         0.0600 
    149 H149       -0.5475  -19.9557  -42.8282 H         1 UNK         0.3000 
    150 H150       -3.8110  -18.6917  -43.6565 H         1 UNK         0.0600 
    151 H151       -3.9906  -19.6917  -41.3749 H         1 UNK         0.0600 
    152 H152       -3.6692  -17.9659  -41.2954 H         1 UNK         0.0600 
    153 H153       -2.3736  -19.1188  -40.9844 H         1 UNK         0.0600 
    154 H154       -1.5586  -17.3650  -42.5755 H         1 UNK         0.3000 
    155 H155        0.0326  -16.5151  -45.6937 H         1 UNK         0.0600 
    156 H156       -0.1075  -14.3193  -44.4723 H         1 UNK         0.0600 
    157 H157       -1.4161  -14.9589  -43.4856 H         1 UNK         0.0600 
    158 H158       -1.6385  -14.7695  -45.2155 H         1 UNK         0.0600 
    159 H159        0.8748  -16.0660  -43.0215 H         1 UNK         0.3000 
    160 H160        2.6241  -19.1457  -42.5145 H         1 UNK         0.0600 
    161 H161        3.6015  -16.2680  -42.8629 H         1 UNK         0.0600 
    162 H162        4.1989  -17.6593  -43.7559 H         1 UNK         0.0600 
    163 H163        4.4517  -17.5591  -42.0194 H         1 UNK         0.0600 
    164 H164        2.1114  -16.7381  -40.9736 H         1 UNK         0.3000 
    165 H165       -0.7274  -18.0240  -39.2462 H         1 UNK         0.0600 
    166 H166        2.1506  -17.5725  -38.2851 H         1 UNK         0.0600 
    167 H167        0.7043  -17.5626  -37.2754 H         1 UNK         0.0600 
    168 H168        1.2186  -19.0479  -38.0589 H         1 UNK         0.0600 
    169 H169        0.8080  -15.6145  -38.9891 H         1 UNK         0.3000 
    170 H170       -0.8808  -13.7152  -41.4697 H         1 UNK         0.0600 
    171 H171       -2.4761  -13.6579  -39.5452 H         1 UNK         0.0600 
    172 H172       -1.1278  -13.5554  -38.4191 H         1 UNK         0.0600 
    173 H173       -1.4339  -12.2448  -39.5599 H         1 UNK         0.0600 
    174 H174        0.9995  -12.8803  -39.5571 H         1 UNK         0.3000 
    175 H175        3.0917  -12.2092  -40.4839 H         1 UNK         0.0600 
    176 H176        4.7810  -13.5775  -39.2455 H         1 UNK         0.0600 
    177 H177        3.1641  -13.9533  -38.6808 H         1 UNK         0.0600 
    178 H178        3.9885  -15.0629  -39.7693 H         1 UNK         0.0600 
    179 H179        4.9796  -13.9474  -41.7195 H         1 UNK         0.3000 
    180 H180        6.1226  -12.5624  -43.6804 H         1 UNK         0.0600 
    181 H181        4.3723  -14.8724  -44.7377 H         1 UNK         0.0600 
    182 H182        5.6190  -15.0193  -43.4989 H         1 UNK         0.0600 
    183 H183        6.0681  -14.6384  -45.1445 H         1 UNK         0.0600 
    184 H184        3.8737  -11.8750  -45.2702 H         1 UNK         0.3000 
    185 H185        4.9883  -10.2192  -47.3481 H         1 UNK         0.0600 
    186 H186        5.0833  -11.0731  -49.7067 H         1 UNK         0.0600 
    187 H187        6.6247  -11.2285  -48.8816 H         1 UNK         0.0600 
    188 H188        5.6125  -12.6464  -49.1117 H         1 UNK         0.0600 
    189 H189        2.8464  -10.7899  -47.4284 H         1 UNK         0.3000 
    190 H190       -2.4128  -19.6074  -46.6141 H         1 UNK         0.3000 
    191 H191       -4.1976  -20.0152  -48.7332 H         1 UNK         0.0600 
    192 H192       -4.5111  -18.3920  -46.8579 H         1 UNK         0.0600 
    193 H193       -5.9190  -19.4235  -47.0267 H         1 UNK         0.0600 
    194 H194       -4.7753  -19.7198  -45.7313 H         1 UNK         0.0600 
    195 H195       -3.4977  -22.0965  -45.9318 H         1 UNK         0.3000 
    196 H196       -5.5373  -24.0660  -46.5440 H         1 UNK         0.0600 
    197 H197       -4.4550  -25.3021  -44.6519 H         1 UNK         0.0600 
    198 H198       -4.8464  -23.6442  -44.2197 H         1 UNK         0.0600 
    199 H199       -3.1823  -24.0872  -44.5820 H         1 UNK         0.0600 
    200 H200       -1.9110  -24.1694  -46.5996 H         1 UNK         0.3000 
    201 H201       -1.9546  -26.7148  -48.0961 H         1 UNK         0.0600 
    202 H202       -0.5458  -26.4858  -46.0438 H         1 UNK         0.0600 
    203 H203        0.3585  -25.1796  -46.8076 H         1 UNK         0.0600 
    204 H204        0.4205  -26.8048  -47.4754 H         1 UNK         0.0600 
    205 H205       -3.0117  -24.9395  -49.6960 H         1 UNK         0.3000 
    206 H206       -1.2101  -23.3782  -51.2947 H         1 UNK         0.0600 
    207 H207       -3.5211  -22.7331  -51.1194 H         1 UNK         0.0600 
    208 H208       -3.3116  -23.2531  -52.7879 H         1 UNK         0.0600 
    209 H209       -4.0997  -24.3198  -51.6396 H         1 UNK         0.0600 
    210 H210       -2.1277  -26.7164  -51.4044 H         1 UNK         0.3000 
    211 H211       -1.6629  -28.4845  -52.6589 H         1 UNK         0.0600 
    212 H212        0.7962  -26.8874  -53.5531 H         1 UNK         0.0600 
    213 H213        0.6325  -28.6388  -53.5511 H         1 UNK         0.0600 
    214 H214        0.6610  -27.7642  -52.0299 H         1 UNK         0.0600 
    215 H215       -3.2331  -26.3012  -53.9767 H         1 UNK         0.3000 
    216 H216       -4.2704  -25.7342  -55.8286 H         1 UNK         0.0600 
    217 H217       -4.6184  -28.1954  -56.2056 H         1 UNK         0.0600 
    218 H218       -3.1600  -28.2406  -57.1965 H         1 UNK         0.0600 
    219 H219       -4.5439  -27.2874  -57.7057 H         1 UNK         0.0600 
    220 H220       -1.1840  -25.2544  -55.4128 H         1 UNK         0.3000 
    221 H221       -0.4263  -24.2533  -58.0960 H         1 UNK         0.0600 
    222 H222        1.0570  -24.2327  -55.4095 H         1 UNK         0.0600 
    223 H223        1.3126  -25.3806  -56.7214 H         1 UNK         0.0600 
    224 H224        1.7074  -23.6831  -56.9495 H         1 UNK         0.0600 
    225 H225       -1.2136  -23.1506  -54.7919 H         1 UNK         0.3000 
    226 H226       -1.6179  -20.3446  -55.7007 H         1 UNK         0.0600 
    227 H227       -0.3436  -20.7322  -53.5815 H         1 UNK         0.0600 
    228 H228       -1.8332  -19.8551  -53.2959 H         1 UNK         0.0600 
    229 H229       -1.7278  -21.5619  -52.8876 H         1 UNK         0.0600 
    230 H230       -3.6607  -19.3759  -54.5913 H         1 UNK         0.3000 
    231 H231       -5.8393  -20.4067  -56.0326 H         1 UNK         0.0600 
    232 H232       -7.0446  -18.4508  -55.0455 H         1 UNK         0.0600 
    233 H233       -5.4519  -17.9991  -55.6259 H         1 UNK         0.0600 
    234 H234       -5.7343  -18.2111  -53.8989 H         1 UNK         0.0600 
    235 H235       -4.9068  -21.3151  -52.8663 H         1 UNK         0.3000 
    236 H236       -5.7965  -22.5244  -51.2002 H         1 UNK         0.0600 
    237 H237       -7.3619  -24.3266  -51.7568 H         1 UNK         0.0600 
    238 H238       -7.8175  -23.5438  -53.2630 H         1 UNK         0.0600 
    239 H239       -6.1860  -24.1737  -53.0536 H         1 UNK         0.0600 
    240 H240       -6.3598  -20.0373  -50.8897 H         1 UNK         0.3000 
    241 H241       -9.1453  -19.4086  -50.6428 H         1 UNK         0.0600 
    242 H242       -7.3053  -21.3363  -48.4697 H         1 UNK         0.3800 
    243 H243       -8.3310  -21.0326  -47.0902 H         1 UNK         0.3800 
    244 H244       -7.6735  -17.6396  -51.2704 H         1 UNK         0.0800 
    245 H245       -8.3409  -17.2366  -49.7238 H         1 UNK         0.0800 
    246 H246       -5.0585  -18.6222  -51.5650 H         1 UNK         0.0800 
    247 H247       -5.3676  -16.9103  -51.7389 H         1 UNK         0.0800 
@<TRIPOS>BOND
     1    1    2 1    
     2    1  127 1    
     3    1  128 1    
     4    1  129 1    
     5    2    3 2    
     6    2    4 am   BACKBONE|DICT|INTERRES
     7    4    5 1    
     8    4  130 1    
     9    5    6 1    
    10    5   65 1    
    11    5  131 1    
    12    6    7 1    
    13    6  132 1    
    14    6  133 1    
    15    7    8 1    
    16    8    9 1    
    17    8  134 1    
    18    8  135 1    
    19    9   10 ar   
    20    9   14 ar   
    21   10   11 ar   
    22   10  136 1    
    23   11   12 ar   
    24   11  126 1    
    25   12   13 ar   
    26   12  137 1    
    27   13   14 ar   
    28   13   15 1    
    29   14  138 1    
    30   15   16 1    
    31   15  139 1    
    32   15  140 1    
    33   16   17 1    
    34   17   18 1    
    35   17  141 1    
    36   17  142 1    
    37   18   19 1    
    38   18   67 1    
    39   18  143 1    
    40   19   20 am   BACKBONE|DICT|INTERRES
    41   19  144 1    
    42   20   21 2    
    43   20   22 1    
    44   22   23 1    
    45   22   24 1    
    46   22  145 1    
    47   23  146 1    
    48   23  147 1    
    49   23  148 1    
    50   24   25 am   BACKBONE|DICT|INTERRES
    51   24  149 1    
    52   25   26 2    
    53   25   27 1    
    54   27   28 1    
    55   27   29 1    
    56   27  150 1    
    57   28  151 1    
    58   28  152 1    
    59   28  153 1    
    60   29   30 am   BACKBONE|DICT|INTERRES
    61   29  154 1    
    62   30   31 2    
    63   30   32 1    
    64   32   33 1    
    65   32   34 1    
    66   32  155 1    
    67   33  156 1    
    68   33  157 1    
    69   33  158 1    
    70   34   35 am   BACKBONE|DICT|INTERRES
    71   34  159 1    
    72   35   36 2    
    73   35   37 1    
    74   37   38 1    
    75   37   39 1    
    76   37  160 1    
    77   38  161 1    
    78   38  162 1    
    79   38  163 1    
    80   39   40 am   BACKBONE|DICT|INTERRES
    81   39  164 1    
    82   40   41 2    
    83   40   42 1    
    84   42   43 1    
    85   42   44 1    
    86   42  165 1    
    87   43  166 1    
    88   43  167 1    
    89   43  168 1    
    90   44   45 am   BACKBONE|DICT|INTERRES
    91   44  169 1    
    92   45   46 2    
    93   45   47 1    
    94   47   48 1    
    95   47   49 1    
    96   47  170 1    
    97   48  171 1    
    98   48  172 1    
    99   48  173 1    
   100   49   50 am   BACKBONE|DICT|INTERRES
   101   49  174 1    
   102   50   51 2    
   103   50   52 1    
   104   52   53 1    
   105   52   54 1    
   106   52  175 1    
   107   53  176 1    
   108   53  177 1    
   109   53  178 1    
   110   54   55 am   BACKBONE|DICT|INTERRES
   111   54  179 1    
   112   55   56 2    
   113   55   57 1    
   114   57   58 1    
   115   57   59 1    
   116   57  180 1    
   117   58  181 1    
   118   58  182 1    
   119   58  183 1    
   120   59   60 am   BACKBONE|DICT|INTERRES
   121   59  184 1    
   122   60   61 2    
   123   60   62 1    
   124   62   63 1    
   125   62   64 1    
   126   62  185 1    
   127   63  186 1    
   128   63  187 1    
   129   63  188 1    
   130   64   65 am   BACKBONE|DICT|INTERRES
   131   64  189 1    
   132   65   66 2    
   133   67   68 2    
   134   67   69 am   BACKBONE|DICT|INTERRES
   135   69   70 1    
   136   69  190 1    
   137   70   71 1    
   138   70   72 1    
   139   70  191 1    
   140   71  192 1    
   141   71  193 1    
   142   71  194 1    
   143   72   73 2    
   144   72   74 am   BACKBONE|DICT|INTERRES
   145   74   75 1    
   146   74  195 1    
   147   75   76 1    
   148   75   77 1    
   149   75  196 1    
   150   76  197 1    
   151   76  198 1    
   152   76  199 1    
   153   77   78 2    
   154   77   79 am   BACKBONE|DICT|INTERRES
   155   79   80 1    
   156   79  200 1    
   157   80   81 1    
   158   80   82 1    
   159   80  201 1    
   160   81  202 1    
   161   81  203 1    
   162   81  204 1    
   163   82   83 2    
   164   82   84 am   BACKBONE|DICT|INTERRES
   165   84   85 1    
   166   84  205 1    
   167   85   86 1    
   168   85   87 1    
   169   85  206 1    
   170   86  207 1    
   171   86  208 1    
   172   86  209 1    
   173   87   88 2    
   174   87   89 am   BACKBONE|DICT|INTERRES
   175   89   90 1    
   176   89  210 1    
   177   90   91 1    
   178   90   92 1    
   179   90  211 1    
   180   91  212 1    
   181   91  213 1    
   182   91  214 1    
   183   92   93 2    
   184   92   94 am   BACKBONE|DICT|INTERRES
   185   94   95 1    
   186   94  215 1    
   187   95   96 1    
   188   95   97 1    
   189   95  216 1    
   190   96  217 1    
   191   96  218 1    
   192   96  219 1    
   193   97   98 2    
   194   97   99 am   BACKBONE|DICT|INTERRES
   195   99  100 1    
   196   99  220 1    
   197  100  101 1    
   198  100  102 1    
   199  100  221 1    
   200  101  222 1    
   201  101  223 1    
   202  101  224 1    
   203  102  103 2    
   204  102  104 am   BACKBONE|DICT|INTERRES
   205  104  105 1    
   206  104  225 1    
   207  105  106 1    
   208  105  107 1    
   209  105  226 1    
   210  106  227 1    
   211  106  228 1    
   212  106  229 1    
   213  107  108 2    
   214  107  109 am   BACKBONE|DICT|INTERRES
   215  109  110 1    
   216  109  230 1    
   217  110  111 1    
   218  110  112 1    
   219  110  231 1    
   220  111  232 1    
   221  111  233 1    
   222  111  234 1    
   223  112  113 2    
   224  112  114 am   BACKBONE|DICT|INTERRES
   225  114  115 1    
   226  114  235 1    
   227  115  116 1    
   228  115  117 1    
   229  115  236 1    
   230  116  237 1    
   231  116  238 1    
   232  116  239 1    
   233  117  118 2    
   234  117  119 am   BACKBONE|DICT|INTERRES
   235  119  120 1    
   236  119  240 1    
   237  120  121 1    
   238  120  124 1    
   239  120  241 1    
   240  121  122 am   BACKBONE|DICT|INTERRES
   241  121  123 2    
   242  122  242 1    
   243  122  243 1    
   244  124  125 1    
   245  124  244 1    
   246  124  245 1    
   247  125  126 1    
   248  126  246 1    
   249  126  247 1    
@<TRIPOS>SUBSTRUCTURE
     1 UNK         1 GROUP             0       ****    0 ROOT    
