@<TRIPOS>MOLECULE
3R540
247   249    1
SMALL
USER_CHARGES


@<TRIPOS>ATOM
      1 CA          1.8281  -12.4554  -53.5573 C.3       0 UNK        -0.1800 
      2 C           1.8491  -13.0058  -52.1383 C.2       0 UNK         0.5000 
      3 O           2.9226  -13.2890  -51.6068 O.2       0 UNK        -0.5000 
      4 N           0.6674  -13.1760  -51.5337 N.am      1 UNK        -0.5000 
      5 CA          0.4920  -13.6545  -50.1592 C.3       1 UNK         0.1400 
      6 C6         -0.9605  -14.1428  -49.9215 C.3       23 UNK        -0.0398 
      7 S7         -1.0683  -15.4513  -48.6505 S.3       23 UNK        -0.2404 
      8 C8         -1.4480  -16.9324  -49.6435 C.3       23 UNK        -0.0205 
      9 C9         -0.1984  -17.6367  -50.1565 C.ar      23 UNK        -0.0193 
     10 C10         0.5909  -17.0572  -51.1546 C.ar      23 UNK        -0.1150 
     11 C11         1.7297  -17.7102  -51.6362 C.ar      23 UNK        -0.0193 
     12 C12         2.0570  -18.9734  -51.1354 C.ar      23 UNK        -0.1150 
     13 C13         1.2669  -19.5738  -50.1517 C.ar      23 UNK        -0.0193 
     14 C14         0.1490  -18.8958  -49.6587 C.ar      23 UNK        -0.1150 
     15 C15         1.6022  -20.9627  -49.6344 C.3       23 UNK        -0.0205 
     16 S16         2.2303  -20.9058  -47.9281 S.3       23 UNK        -0.2404 
     17 C17         2.3875  -22.6816  -47.5502 C.3       23 UNK        -0.0398 
     18 CA          1.2170  -23.3144  -46.7565 C.3       11 UNK         0.1400 
     19 N           1.0980  -22.8528  -45.3692 N.am      11 UNK        -0.5000 
     20 C           0.4310  -23.5522  -44.4362 C.2       10 UNK         0.5000 
     21 O          -0.1193  -24.6312  -44.6623 O.2       10 UNK        -0.5000 
     22 CA          0.3246  -22.9477  -43.0269 C.3       10 UNK         0.1400 
     23 CB          1.6437  -23.1136  -42.2579 C.3       10 UNK        -0.1800 
     24 N          -0.0835  -21.5442  -43.0350 N.am      10 UNK        -0.5000 
     25 C          -1.2621  -21.0970  -43.4923 C.2       9 UNK         0.5000 
     26 O          -2.1396  -21.8280  -43.9505 O.2       9 UNK        -0.5000 
     27 CA         -1.4849  -19.5736  -43.4728 C.3       9 UNK         0.1400 
     28 CB         -1.8834  -19.0912  -42.0702 C.3       9 UNK        -0.1800 
     29 N          -0.3107  -18.8335  -43.9293 N.am      9 UNK        -0.5000 
     30 C           0.2105  -18.9251  -45.1606 C.2       8 UNK         0.5000 
     31 O          -0.2859  -19.5960  -46.0644 O.2       8 UNK        -0.5000 
     32 CA          1.5385  -18.1871  -45.3967 C.3       8 UNK         0.1400 
     33 CB          1.3081  -16.6937  -45.6662 C.3       8 UNK        -0.1800 
     34 N           2.4616  -18.3522  -44.2738 N.am      8 UNK        -0.5000 
     35 C           3.0438  -19.5115  -43.9332 C.2       7 UNK         0.5000 
     36 O           2.8855  -20.5695  -44.5429 O.2       7 UNK        -0.5000 
     37 CA          3.9221  -19.4886  -42.6689 C.3       7 UNK         0.1400 
     38 CB          5.3246  -18.9514  -42.9909 C.3       7 UNK        -0.1800 
     39 N           3.3324  -18.6938  -41.5899 N.am      7 UNK        -0.5000 
     40 C           2.2090  -19.0249  -40.9377 C.2       6 UNK         0.5000 
     41 O           1.5644  -20.0474  -41.1629 O.2       6 UNK        -0.5000 
     42 CA          1.6932  -18.0224  -39.8896 C.3       6 UNK         0.1400 
     43 CB          2.3859  -18.2488  -38.5376 C.3       6 UNK        -0.1800 
     44 N           1.8511  -16.6215  -40.2909 N.am      6 UNK        -0.5000 
     45 C           1.2821  -16.0724  -41.3715 C.2       5 UNK         0.5000 
     46 O           0.6142  -16.7072  -42.1916 O.2       5 UNK        -0.5000 
     47 CA          1.5444  -14.5731  -41.5985 C.3       5 UNK         0.1400 
     48 CB          2.8099  -14.3808  -42.4477 C.3       5 UNK        -0.1800 
     49 N           0.4150  -13.9268  -42.2673 N.am      5 UNK        -0.5000 
     50 C          -0.7863  -13.7276  -41.7068 C.2       4 UNK         0.5000 
     51 O          -1.0397  -13.9937  -40.5298 O.2       4 UNK        -0.5000 
     52 CA         -1.8780  -13.1320  -42.6223 C.3       4 UNK         0.1400 
     53 CB         -3.1038  -12.6109  -41.8427 C.3       4 UNK        -0.1800 
     54 N          -1.3726  -12.1039  -43.5396 N.am      4 UNK        -0.5000 
     55 C          -0.7993  -10.9331  -43.2277 C.2       3 UNK         0.5000 
     56 O          -0.5813  -10.5598  -42.0737 O.2       3 UNK        -0.5000 
     57 CA         -0.3899  -10.0438  -44.4235 C.3       3 UNK         0.1400 
     58 CB          0.0956   -8.6495  -43.9868 C.3       3 UNK        -0.1800 
     59 N           0.6512  -10.6633  -45.2474 N.am      3 UNK        -0.5000 
     60 C           0.4703  -11.6764  -46.1029 C.2       2 UNK         0.5000 
     61 O          -0.6208  -12.2233  -46.2881 O.2       2 UNK        -0.5000 
     62 CA          1.7317  -12.1860  -46.8265 C.3       2 UNK         0.1400 
     63 CB          2.6060  -13.0020  -45.8625 C.3       2 UNK        -0.1800 
     64 N           1.3973  -13.0283  -47.9736 N.am      2 UNK        -0.5000 
     65 C           0.9055  -12.5777  -49.1333 C.2       1 UNK         0.5000 
     66 O           0.7567  -11.3809  -49.3974 O.2       1 UNK        -0.5000 
     67 C          -0.1317  -23.2699  -47.5043 C.2       11 UNK         0.5000 
     68 O          -0.4049  -24.1832  -48.2815 O.2       11 UNK        -0.5000 
     69 N          -0.9739  -22.2603  -47.2282 N.am      12 UNK        -0.5000 
     70 CA         -2.3389  -22.1722  -47.7527 C.3       12 UNK         0.1400 
     71 CB         -2.9655  -20.8159  -47.3980 C.3       12 UNK        -0.1800 
     72 C          -3.2306  -23.3250  -47.2599 C.2       12 UNK         0.5000 
     73 O          -3.9622  -23.9047  -48.0610 O.2       12 UNK        -0.5000 
     74 N          -3.1295  -23.6691  -45.9682 N.am      13 UNK        -0.5000 
     75 CA         -3.8197  -24.8093  -45.3641 C.3       13 UNK         0.1400 
     76 CB         -3.6296  -24.7907  -43.8401 C.3       13 UNK        -0.1800 
     77 C          -3.3674  -26.1533  -45.9627 C.2       13 UNK         0.5000 
     78 O          -4.2163  -26.9785  -46.3008 O.2       13 UNK        -0.5000 
     79 N          -2.0484  -26.3277  -46.1327 N.am      14 UNK        -0.5000 
     80 CA         -1.4373  -27.5039  -46.7586 C.3       14 UNK         0.1400 
     81 CB          0.0888  -27.4323  -46.6013 C.3       14 UNK        -0.1800 
     82 C          -1.8238  -27.6735  -48.2415 C.2       14 UNK         0.5000 
     83 O          -2.0363  -28.8006  -48.6895 O.2       14 UNK        -0.5000 
     84 N          -1.9380  -26.5522  -48.9653 N.am      15 UNK        -0.5000 
     85 CA         -2.3722  -26.4888  -50.3622 C.3       15 UNK         0.1400 
     86 CB         -1.9036  -25.1529  -50.9625 C.3       15 UNK        -0.1800 
     87 C          -3.8948  -26.6571  -50.5508 C.2       15 UNK         0.5000 
     88 O          -4.3390  -26.7752  -51.6930 O.2       15 UNK        -0.5000 
     89 N          -4.6622  -26.6512  -49.4492 N.am      16 UNK        -0.5000 
     90 CA         -6.1271  -26.6755  -49.3833 C.3       16 UNK         0.1400 
     91 CB         -6.6928  -28.0009  -49.9348 C.3       16 UNK        -0.1800 
     92 C          -6.7435  -25.4224  -50.0379 C.2       16 UNK         0.5000 
     93 O          -7.5969  -25.5252  -50.9216 O.2       16 UNK        -0.5000 
     94 N          -6.2517  -24.2543  -49.6048 N.am      17 UNK        -0.5000 
     95 CA         -6.5552  -22.8878  -50.0391 C.3       17 UNK         0.1400 
     96 CB         -8.0559  -22.5571  -49.9336 C.3       17 UNK        -0.1800 
     97 C          -5.9956  -22.5461  -51.4292 C.2       17 UNK         0.5000 
     98 O          -5.3798  -21.4912  -51.5770 O.2       17 UNK        -0.5000 
     99 N          -6.2165  -23.4293  -52.4138 N.am      18 UNK        -0.5000 
    100 CA        -5.7240  -23.3687  -53.7965 C.3       18 UNK         0.1400 
    101 CB        -4.2153  -23.6865  -53.8296 C.3       18 UNK        -0.1800 
    102 C         -6.0658  -22.0452  -54.5153 C.2       18 UNK         0.5000 
    103 O         -5.2100  -21.4713  -55.1900 O.2       18 UNK        -0.5000 
    104 N         -7.3001  -21.5590  -54.3087 N.am      19 UNK        -0.5000 
    105 CA        -7.8310  -20.2741  -54.7881 C.3       19 UNK         0.1400 
    106 CB        -7.9899  -20.2870  -56.3232 C.3       19 UNK        -0.1800 
    107 C         -7.0257  -19.0581  -54.2723 C.2       19 UNK         0.5000 
    108 O         -6.8232  -18.0905  -55.0070 O.2       19 UNK        -0.5000 
    109 N         -6.5743  -19.1532  -53.0124 N.am      20 UNK        -0.5000 
    110 CA        -5.7029  -18.2203  -52.2885 C.3       20 UNK         0.1400 
    111 CB        -6.3226  -16.8101  -52.1906 C.3       20 UNK        -0.1800 
    112 C         -4.2495  -18.2091  -52.8074 C.2       20 UNK         0.5000 
    113 O         -3.5389  -17.2243  -52.5964 O.2       20 UNK        -0.5000 
    114 N         -3.8282  -19.3101  -53.4496 N.am      21 UNK        -0.5000 
    115 CA        -2.4896  -19.5914  -53.9724 C.3       21 UNK         0.1400 
    116 CB        -1.5306  -19.9236  -52.8101 C.3       21 UNK        -0.1800 
    117 C         -1.9851  -18.4738  -54.9081 C.2       21 UNK         0.5000 
    118 O         -2.4633  -18.3794  -56.0398 O.2       21 UNK        -0.5000 
    119 N         -1.0491  -17.6465  -54.4259 N.am      22 UNK        -0.5000 
    120 CA        -0.5245  -16.4734  -55.1432 C.3       22 UNK         0.1400 
    121 C         -1.5149  -15.2736  -55.2304 C.2       22 UNK         0.5000 
    122 N         -2.6013  -15.2412  -54.4674 N.am      22 UNK        -0.7600 
    123 O         -1.2878  -14.3492  -56.0061 O.2       22 UNK        -0.5000 
    124 C124        0.8380  -15.9914  -54.5825 C.3       23 UNK        -0.0398 
    125 S125        2.0747  -17.3201  -54.3774 S.3       23 UNK        -0.2404 
    126 C126        2.6328  -17.0443  -52.6656 C.3       23 UNK        -0.0205 
    127 H127        2.4087  -13.0990  -54.2182 H         1 UNK         0.0600 
    128 H128        2.2673  -11.4581  -53.5790 H         1 UNK         0.0600 
    129 H129        0.8139  -12.3920  -53.9529 H         1 UNK         0.0600 
    130 H130       -0.1736  -12.8743  -52.0042 H         1 UNK         0.3000 
    131 H131        1.1698  -14.5015  -50.0333 H         1 UNK         0.0600 
    132 H132       -1.6153  -13.3182  -49.6326 H         1 UNK         0.0800 
    133 H133       -1.3865  -14.5296  -50.8480 H         1 UNK         0.0800 
    134 H134       -2.0967  -16.6736  -50.4798 H         1 UNK         0.0800 
    135 H135       -2.0293  -17.6135  -49.0202 H         1 UNK         0.0800 
    136 H136        0.3220  -16.0903  -51.5464 H         1 UNK         0.1150 
    137 H137        2.9303  -19.4883  -51.5106 H         1 UNK         0.1150 
    138 H138       -0.4524  -19.3598  -48.8904 H         1 UNK         0.1150 
    139 H139        0.7051  -21.5804  -49.6828 H         1 UNK         0.0800 
    140 H140        2.3436  -21.4433  -50.2745 H         1 UNK         0.0800 
    141 H141        2.5418  -23.2299  -48.4811 H         1 UNK         0.0800 
    142 H142        3.3111  -22.8121  -46.9848 H         1 UNK         0.0800 
    143 H143        1.4732  -24.3743  -46.6921 H         1 UNK         0.0600 
    144 H144        1.5468  -21.9734  -45.1288 H         1 UNK         0.3000 
    145 H145       -0.4446  -23.5070  -42.4902 H         1 UNK         0.0600 
    146 H146        1.5367  -22.7967  -41.2206 H         1 UNK         0.0600 
    147 H147        2.4489  -22.5308  -42.7048 H         1 UNK         0.0600 
    148 H148        1.9607  -24.1571  -42.2462 H         1 UNK         0.0600 
    149 H149        0.5669  -20.8823  -42.6225 H         1 UNK         0.3000 
    150 H150       -2.3062  -19.3483  -44.1561 H         1 UNK         0.0600 
    151 H151       -2.7807  -19.6040  -41.7218 H         1 UNK         0.0600 
    152 H152       -2.0958  -18.0218  -42.0670 H         1 UNK         0.0600 
    153 H153       -1.0947  -19.2761  -41.3408 H         1 UNK         0.0600 
    154 H154        0.1343  -18.2164  -43.2550 H         1 UNK         0.3000 
    155 H155        2.0080  -18.6112  -46.2840 H         1 UNK         0.0600 
    156 H156        0.6451  -16.5570  -46.5200 H         1 UNK         0.0600 
    157 H157        2.2463  -16.1916  -45.9006 H         1 UNK         0.0600 
    158 H158        0.8536  -16.1879  -44.8143 H         1 UNK         0.0600 
    159 H159        2.6014  -17.5494  -43.6800 H         1 UNK         0.3000 
    160 H160        4.0246  -20.5170  -42.3160 H         1 UNK         0.0600 
    161 H161        5.2941  -17.9128  -43.3227 H         1 UNK         0.0600 
    162 H162        5.7927  -19.5359  -43.7842 H         1 UNK         0.0600 
    163 H163        5.9774  -19.0069  -42.1196 H         1 UNK         0.0600 
    164 H164        3.7996  -17.8341  -41.3425 H         1 UNK         0.3000 
    165 H165        0.6251  -18.2082  -39.7584 H         1 UNK         0.0600 
    166 H166        1.9586  -17.6110  -37.7636 H         1 UNK         0.0600 
    167 H167        2.2679  -19.2816  -38.2069 H         1 UNK         0.0600 
    168 H168        3.4554  -18.0416  -38.5920 H         1 UNK         0.0600 
    169 H169        2.3972  -16.0374  -39.6740 H         1 UNK         0.3000 
    170 H170        1.6927  -14.0874  -40.6317 H         1 UNK         0.0600 
    171 H171        2.7325  -14.8889  -43.4090 H         1 UNK         0.0600 
    172 H172        3.0028  -13.3247  -42.6367 H         1 UNK         0.0600 
    173 H173        3.6866  -14.7822  -41.9379 H         1 UNK         0.0600 
    174 H174        0.5320  -13.6991  -43.2422 H         1 UNK         0.3000 
    175 H175       -2.2190  -13.9557  -43.2511 H         1 UNK         0.0600 
    176 H176       -2.8340  -11.8157  -41.1471 H         1 UNK         0.0600 
    177 H177       -3.8645  -12.2211  -42.5191 H         1 UNK         0.0600 
    178 H178       -3.5671  -13.4095  -41.2623 H         1 UNK         0.0600 
    179 H179       -1.4361  -12.3245  -44.5303 H         1 UNK         0.3000 
    180 H180       -1.2813   -9.9024  -45.0385 H         1 UNK         0.0600 
    181 H181        1.0020   -8.7078  -43.3828 H         1 UNK         0.0600 
    182 H182       -0.6637   -8.1390  -43.3928 H         1 UNK         0.0600 
    183 H183        0.3078   -8.0179  -44.8497 H         1 UNK         0.0600 
    184 H184        1.5835  -10.2949  -45.1245 H         1 UNK         0.3000 
    185 H185        2.3032  -11.3250  -47.1796 H         1 UNK         0.0600 
    186 H186        2.0517  -13.8389  -45.4396 H         1 UNK         0.0600 
    187 H187        3.4876  -13.4006  -46.3650 H         1 UNK         0.0600 
    188 H188        2.9582  -12.3882  -45.0328 H         1 UNK         0.0600 
    189 H189        1.4301  -14.0250  -47.8179 H         1 UNK         0.3000 
    190 H190       -0.6688  -21.5081  -46.6175 H         1 UNK         0.3000 
    191 H191       -2.2817  -22.2407  -48.8411 H         1 UNK         0.0600 
    192 H192       -2.3993  -19.9920  -47.8295 H         1 UNK         0.0600 
    193 H193       -3.0093  -20.6614  -46.3197 H         1 UNK         0.0600 
    194 H194       -3.9835  -20.7436  -47.7830 H         1 UNK         0.0600 
    195 H195       -2.5484  -23.1087  -45.3508 H         1 UNK         0.3000 
    196 H196       -4.8862  -24.6979  -45.5707 H         1 UNK         0.0600 
    197 H197       -4.0332  -23.8762  -43.4053 H         1 UNK         0.0600 
    198 H198       -2.5777  -24.8555  -43.5618 H         1 UNK         0.0600 
    199 H199       -4.1462  -25.6292  -43.3715 H         1 UNK         0.0600 
    200 H200       -1.4140  -25.6123  -45.7890 H         1 UNK         0.3000 
    201 H201       -1.7925  -28.3857  -46.2216 H         1 UNK         0.0600 
    202 H202        0.3753  -27.3633  -45.5518 H         1 UNK         0.0600 
    203 H203        0.5056  -26.5691  -47.1201 H         1 UNK         0.0600 
    204 H204        0.5656  -28.3232  -47.0117 H         1 UNK         0.0600 
    205 H205       -1.6705  -25.6691  -48.5402 H         1 UNK         0.3000 
    206 H206       -1.8849  -27.2966  -50.9118 H         1 UNK         0.0600 
    207 H207       -0.8254  -25.0299  -50.8598 H         1 UNK         0.0600 
    208 H208       -2.3869  -24.3034  -50.4781 H         1 UNK         0.0600 
    209 H209       -2.1302  -25.0994  -52.0270 H         1 UNK         0.0600 
    210 H210       -4.1938  -26.5398  -48.5590 H         1 UNK         0.3000 
    211 H211       -6.3848  -26.6269  -48.3243 H         1 UNK         0.0600 
    212 H212       -6.5215  -28.1067  -51.0062 H         1 UNK         0.0600 
    213 H213       -7.7693  -28.0601  -49.7712 H         1 UNK         0.0600 
    214 H214       -6.2408  -28.8585  -49.4365 H         1 UNK         0.0600 
    215 H215       -5.4760  -24.2979  -48.9443 H         1 UNK         0.3000 
    216 H216       -6.0337  -22.2426  -49.3301 H         1 UNK         0.0600 
    217 H217       -8.2339  -21.5010  -50.1399 H         1 UNK         0.0600 
    218 H218       -8.4339  -22.7602  -48.9317 H         1 UNK         0.0600 
    219 H219       -8.6558  -23.1296  -50.6412 H         1 UNK         0.0600 
    220 H220       -6.7480  -24.2593  -52.1658 H         1 UNK         0.3000 
    221 H221       -6.2409  -24.1562  -54.3464 H         1 UNK         0.0600 
    222 H222       -3.6316  -22.9436  -53.2845 H         1 UNK         0.0600 
    223 H223       -4.0165  -24.6618  -53.3883 H         1 UNK         0.0600 
    224 H224       -3.8388  -23.7164  -54.8527 H         1 UNK         0.0600 
    225 H225       -7.9241  -22.1009  -53.7271 H         1 UNK         0.3000 
    226 H226       -8.8288  -20.1763  -54.3581 H         1 UNK         0.0600 
    227 H227       -8.5720  -21.1478  -56.6521 H         1 UNK         0.0600 
    228 H228       -8.5104  -19.3936  -56.6699 H         1 UNK         0.0600 
    229 H229       -7.0256  -20.3201  -56.8312 H         1 UNK         0.0600 
    230 H230       -6.7341  -20.0269  -52.5273 H         1 UNK         0.3000 
    231 H231       -5.6416  -18.6122  -51.2723 H         1 UNK         0.0600 
    232 H232       -5.7637  -16.1880  -51.4907 H         1 UNK         0.0600 
    233 H233       -7.3515  -16.8536  -51.8337 H         1 UNK         0.0600 
    234 H234       -6.3194  -16.2959  -53.1518 H         1 UNK         0.0600 
    235 H235       -4.5084  -20.0410  -53.6150 H         1 UNK         0.3000 
    236 H236       -2.5798  -20.4875  -54.5882 H         1 UNK         0.0600 
    237 H237       -1.4818  -19.1142  -52.0844 H         1 UNK         0.0600 
    238 H238       -1.8596  -20.8170  -52.2788 H         1 UNK         0.0600 
    239 H239       -0.5182  -20.1154  -53.1681 H         1 UNK         0.0600 
    240 H240       -0.7126  -17.7856  -53.4846 H         1 UNK         0.3000 
    241 H241       -0.3474  -16.7874  -56.1736 H         1 UNK         0.0600 
    242 H242       -3.2315  -14.4594  -54.5417 H         1 UNK         0.3800 
    243 H243       -2.8170  -15.9978  -53.8220 H         1 UNK         0.3800 
    244 H244        0.6913  -15.4758  -53.6351 H         1 UNK         0.0800 
    245 H245        1.2719  -15.2485  -55.2540 H         1 UNK         0.0800 
    246 H246        2.7135  -15.9758  -52.4630 H         1 UNK         0.0800 
    247 H247        3.6462  -17.4372  -52.5701 H         1 UNK         0.0800 
@<TRIPOS>BOND
     1    1    2 1    
     2    1  127 1    
     3    1  128 1    
     4    1  129 1    
     5    2    3 2    
     6    2    4 am   BACKBONE|DICT|INTERRES
     7    4    5 1    
     8    4  130 1    
     9    5    6 1    
    10    5   65 1    
    11    5  131 1    
    12    6    7 1    
    13    6  132 1    
    14    6  133 1    
    15    7    8 1    
    16    8    9 1    
    17    8  134 1    
    18    8  135 1    
    19    9   10 ar   
    20    9   14 ar   
    21   10   11 ar   
    22   10  136 1    
    23   11   12 ar   
    24   11  126 1    
    25   12   13 ar   
    26   12  137 1    
    27   13   14 ar   
    28   13   15 1    
    29   14  138 1    
    30   15   16 1    
    31   15  139 1    
    32   15  140 1    
    33   16   17 1    
    34   17   18 1    
    35   17  141 1    
    36   17  142 1    
    37   18   19 1    
    38   18   67 1    
    39   18  143 1    
    40   19   20 am   BACKBONE|DICT|INTERRES
    41   19  144 1    
    42   20   21 2    
    43   20   22 1    
    44   22   23 1    
    45   22   24 1    
    46   22  145 1    
    47   23  146 1    
    48   23  147 1    
    49   23  148 1    
    50   24   25 am   BACKBONE|DICT|INTERRES
    51   24  149 1    
    52   25   26 2    
    53   25   27 1    
    54   27   28 1    
    55   27   29 1    
    56   27  150 1    
    57   28  151 1    
    58   28  152 1    
    59   28  153 1    
    60   29   30 am   BACKBONE|DICT|INTERRES
    61   29  154 1    
    62   30   31 2    
    63   30   32 1    
    64   32   33 1    
    65   32   34 1    
    66   32  155 1    
    67   33  156 1    
    68   33  157 1    
    69   33  158 1    
    70   34   35 am   BACKBONE|DICT|INTERRES
    71   34  159 1    
    72   35   36 2    
    73   35   37 1    
    74   37   38 1    
    75   37   39 1    
    76   37  160 1    
    77   38  161 1    
    78   38  162 1    
    79   38  163 1    
    80   39   40 am   BACKBONE|DICT|INTERRES
    81   39  164 1    
    82   40   41 2    
    83   40   42 1    
    84   42   43 1    
    85   42   44 1    
    86   42  165 1    
    87   43  166 1    
    88   43  167 1    
    89   43  168 1    
    90   44   45 am   BACKBONE|DICT|INTERRES
    91   44  169 1    
    92   45   46 2    
    93   45   47 1    
    94   47   48 1    
    95   47   49 1    
    96   47  170 1    
    97   48  171 1    
    98   48  172 1    
    99   48  173 1    
   100   49   50 am   BACKBONE|DICT|INTERRES
   101   49  174 1    
   102   50   51 2    
   103   50   52 1    
   104   52   53 1    
   105   52   54 1    
   106   52  175 1    
   107   53  176 1    
   108   53  177 1    
   109   53  178 1    
   110   54   55 am   BACKBONE|DICT|INTERRES
   111   54  179 1    
   112   55   56 2    
   113   55   57 1    
   114   57   58 1    
   115   57   59 1    
   116   57  180 1    
   117   58  181 1    
   118   58  182 1    
   119   58  183 1    
   120   59   60 am   BACKBONE|DICT|INTERRES
   121   59  184 1    
   122   60   61 2    
   123   60   62 1    
   124   62   63 1    
   125   62   64 1    
   126   62  185 1    
   127   63  186 1    
   128   63  187 1    
   129   63  188 1    
   130   64   65 am   BACKBONE|DICT|INTERRES
   131   64  189 1    
   132   65   66 2    
   133   67   68 2    
   134   67   69 am   BACKBONE|DICT|INTERRES
   135   69   70 1    
   136   69  190 1    
   137   70   71 1    
   138   70   72 1    
   139   70  191 1    
   140   71  192 1    
   141   71  193 1    
   142   71  194 1    
   143   72   73 2    
   144   72   74 am   BACKBONE|DICT|INTERRES
   145   74   75 1    
   146   74  195 1    
   147   75   76 1    
   148   75   77 1    
   149   75  196 1    
   150   76  197 1    
   151   76  198 1    
   152   76  199 1    
   153   77   78 2    
   154   77   79 am   BACKBONE|DICT|INTERRES
   155   79   80 1    
   156   79  200 1    
   157   80   81 1    
   158   80   82 1    
   159   80  201 1    
   160   81  202 1    
   161   81  203 1    
   162   81  204 1    
   163   82   83 2    
   164   82   84 am   BACKBONE|DICT|INTERRES
   165   84   85 1    
   166   84  205 1    
   167   85   86 1    
   168   85   87 1    
   169   85  206 1    
   170   86  207 1    
   171   86  208 1    
   172   86  209 1    
   173   87   88 2    
   174   87   89 am   BACKBONE|DICT|INTERRES
   175   89   90 1    
   176   89  210 1    
   177   90   91 1    
   178   90   92 1    
   179   90  211 1    
   180   91  212 1    
   181   91  213 1    
   182   91  214 1    
   183   92   93 2    
   184   92   94 am   BACKBONE|DICT|INTERRES
   185   94   95 1    
   186   94  215 1    
   187   95   96 1    
   188   95   97 1    
   189   95  216 1    
   190   96  217 1    
   191   96  218 1    
   192   96  219 1    
   193   97   98 2    
   194   97   99 am   BACKBONE|DICT|INTERRES
   195   99  100 1    
   196   99  220 1    
   197  100  101 1    
   198  100  102 1    
   199  100  221 1    
   200  101  222 1    
   201  101  223 1    
   202  101  224 1    
   203  102  103 2    
   204  102  104 am   BACKBONE|DICT|INTERRES
   205  104  105 1    
   206  104  225 1    
   207  105  106 1    
   208  105  107 1    
   209  105  226 1    
   210  106  227 1    
   211  106  228 1    
   212  106  229 1    
   213  107  108 2    
   214  107  109 am   BACKBONE|DICT|INTERRES
   215  109  110 1    
   216  109  230 1    
   217  110  111 1    
   218  110  112 1    
   219  110  231 1    
   220  111  232 1    
   221  111  233 1    
   222  111  234 1    
   223  112  113 2    
   224  112  114 am   BACKBONE|DICT|INTERRES
   225  114  115 1    
   226  114  235 1    
   227  115  116 1    
   228  115  117 1    
   229  115  236 1    
   230  116  237 1    
   231  116  238 1    
   232  116  239 1    
   233  117  118 2    
   234  117  119 am   BACKBONE|DICT|INTERRES
   235  119  120 1    
   236  119  240 1    
   237  120  121 1    
   238  120  124 1    
   239  120  241 1    
   240  121  122 am   BACKBONE|DICT|INTERRES
   241  121  123 2    
   242  122  242 1    
   243  122  243 1    
   244  124  125 1    
   245  124  244 1    
   246  124  245 1    
   247  125  126 1    
   248  126  246 1    
   249  126  247 1    
@<TRIPOS>SUBSTRUCTURE
     1 UNK         1 GROUP             0       ****    0 ROOT    
