@<TRIPOS>MOLECULE
3R540
247   249    1
SMALL
USER_CHARGES


@<TRIPOS>ATOM
      1 CA          4.5104  -11.8863  -44.6000 C.3       0 UNK        -0.1800 
      2 C           3.2145  -12.6595  -44.7898 C.2       0 UNK         0.5000 
      3 O           2.5501  -12.9963  -43.8099 O.2       0 UNK        -0.5000 
      4 N           2.8553  -12.9337  -46.0502 N.am      1 UNK        -0.5000 
      5 CA          1.7074  -13.7517  -46.4685 C.3       1 UNK         0.1400 
      6 C6          1.6850  -13.9284  -48.0094 C.3       23 UNK        -0.0398 
      7 S7          1.1411  -15.5927  -48.5130 S.3       23 UNK        -0.2404 
      8 C8          2.5848  -16.1636  -49.4620 C.3       23 UNK        -0.0205 
      9 C9          2.3741  -17.5340  -50.0925 C.ar      23 UNK        -0.0193 
     10 C10         1.5725  -17.6634  -51.2306 C.ar      23 UNK        -0.1150 
     11 C11         1.4608  -18.8903  -51.8924 C.ar      23 UNK        -0.0193 
     12 C12         2.1696  -19.9938  -51.4048 C.ar      23 UNK        -0.1150 
     13 C13         2.9523  -19.8885  -50.2502 C.ar      23 UNK        -0.0193 
     14 C14         3.0416  -18.6567  -49.5927 C.ar      23 UNK        -0.1150 
     15 C15         3.7723  -21.0804  -49.7676 C.3       23 UNK        -0.0205 
     16 S16         2.7585  -22.4494  -49.1197 S.3       23 UNK        -0.2404 
     17 C17         2.1938  -21.7765  -47.5176 C.3       23 UNK        -0.0398 
     18 CA          0.7366  -22.1635  -47.1583 C.3       11 UNK         0.1400 
     19 N           0.3598  -21.7089  -45.8184 N.am      11 UNK        -0.5000 
     20 C          -0.7599  -22.0721  -45.1746 C.2       10 UNK         0.5000 
     21 O          -1.5373  -22.9344  -45.5836 O.2       10 UNK        -0.5000 
     22 CA         -1.0822  -21.3383  -43.8605 C.3       10 UNK         0.1400 
     23 CB         -0.4284  -22.0572  -42.6711 C.3       10 UNK        -0.1800 
     24 N          -0.6750  -19.9318  -43.8721 N.am      10 UNK        -0.5000 
     25 C          -1.2135  -18.9847  -44.6546 C.2       9 UNK         0.5000 
     26 O          -2.1510  -19.1880  -45.4269 O.2       9 UNK        -0.5000 
     27 CA         -0.5678  -17.5860  -44.5988 C.3       9 UNK         0.1400 
     28 CB         -1.0691  -16.7907  -43.3872 C.3       9 UNK        -0.1800 
     29 N           0.8939  -17.6355  -44.5719 N.am      9 UNK        -0.5000 
     30 C           1.6462  -18.1353  -45.5616 C.2       8 UNK         0.5000 
     31 O           1.1881  -18.5915  -46.6083 O.2       8 UNK        -0.5000 
     32 CA          3.1596  -18.2021  -45.3023 C.3       8 UNK         0.1400 
     33 CB          3.8193  -16.8273  -45.4835 C.3       8 UNK        -0.1800 
     34 N           3.4482  -18.7160  -43.9635 N.am      8 UNK        -0.5000 
     35 C           3.2483  -19.9876  -43.5887 C.2       7 UNK         0.5000 
     36 O           2.8337  -20.8643  -44.3461 O.2       7 UNK        -0.5000 
     37 CA          3.5256  -20.3307  -42.1134 C.3       7 UNK         0.1400 
     38 CB          5.0121  -20.6554  -41.9050 C.3       7 UNK        -0.1800 
     39 N           3.1293  -19.2635  -41.1933 N.am      7 UNK        -0.5000 
     40 C           1.8656  -18.8631  -40.9940 C.2       6 UNK         0.5000 
     41 O           0.8936  -19.3610  -41.5578 O.2       6 UNK        -0.5000 
     42 CA          1.6553  -17.6726  -40.0420 C.3       6 UNK         0.1400 
     43 CB          1.5271  -18.1566  -38.5903 C.3       6 UNK        -0.1800 
     44 N           2.7136  -16.6634  -40.1281 N.am      6 UNK        -0.5000 
     45 C           3.0116  -15.9702  -41.2338 C.2       5 UNK         0.5000 
     46 O           2.4450  -16.1324  -42.3180 O.2       5 UNK        -0.5000 
     47 CA          4.1063  -14.9060  -41.0953 C.3       5 UNK         0.1400 
     48 CB          5.1677  -15.0445  -42.1989 C.3       5 UNK        -0.1800 
     49 N           3.4517  -13.6133  -41.2149 N.am      5 UNK        -0.5000 
     50 C           3.2772  -12.7264  -40.2288 C.2       4 UNK         0.5000 
     51 O           3.7825  -12.8293  -39.1104 O.2       4 UNK        -0.5000 
     52 CA          2.3347  -11.5494  -40.5356 C.3       4 UNK         0.1400 
     53 CB          3.0651  -10.4284  -41.2883 C.3       4 UNK        -0.1800 
     54 N           1.1826  -12.0006  -41.3182 N.am      4 UNK        -0.5000 
     55 C           0.0834  -12.5466  -40.7814 C.2       3 UNK         0.5000 
     56 O          -0.0996  -12.6311  -39.5655 O.2       3 UNK        -0.5000 
     57 CA         -0.9731  -13.1295  -41.7454 C.3       3 UNK         0.1400 
     58 CB         -2.4128  -12.9601  -41.2173 C.3       3 UNK        -0.1800 
     59 N          -0.8759  -12.6654  -43.1351 N.am      3 UNK        -0.5000 
     60 C          -1.0337  -11.4206  -43.6066 C.2       2 UNK         0.5000 
     61 O          -1.2410  -10.4416  -42.8878 O.2       2 UNK        -0.5000 
     62 CA         -0.9346  -11.2490  -45.1417 C.3       2 UNK         0.1400 
     63 CB         -0.8956   -9.7711  -45.5712 C.3       2 UNK        -0.1800 
     64 N           0.2282  -11.9299  -45.7177 N.am      2 UNK        -0.5000 
     65 C           0.3448  -13.2468  -45.9398 C.2       1 UNK         0.5000 
     66 O          -0.5534  -14.0528  -45.6955 O.2       1 UNK        -0.5000 
     67 C          -0.2797  -21.6603  -48.2010 C.2       11 UNK         0.5000 
     68 O          -0.8352  -22.4718  -48.9427 O.2       11 UNK        -0.5000 
     69 N          -0.5223  -20.3419  -48.2132 N.am      12 UNK        -0.5000 
     70 CA         -1.4430  -19.6857  -49.1359 C.3       12 UNK         0.1400 
     71 CB         -1.3864  -18.1679  -48.9477 C.3       12 UNK        -0.1800 
     72 C          -2.8857  -20.1904  -49.0173 C.2       12 UNK         0.5000 
     73 O          -3.4683  -20.5627  -50.0340 O.2       12 UNK        -0.5000 
     74 N          -3.4229  -20.2113  -47.7889 N.am      13 UNK        -0.5000 
     75 CA         -4.7766  -20.6393  -47.4284 C.3       13 UNK         0.1400 
     76 CB         -4.8957  -22.1756  -47.5377 C.3       13 UNK        -0.1800 
     77 C          -5.8500  -19.8686  -48.2282 C.2       13 UNK         0.5000 
     78 O          -6.0927  -18.6968  -47.9373 O.2       13 UNK        -0.5000 
     79 N          -6.4450  -20.5223  -49.2357 N.am      14 UNK        -0.5000 
     80 CA         -7.4203  -19.9425  -50.1627 C.3       14 UNK         0.1400 
     81 CB         -8.2793  -21.0765  -50.7493 C.3       14 UNK        -0.1800 
     82 C          -6.7836  -19.0946  -51.2884 C.2       14 UNK         0.5000 
     83 O          -7.5246  -18.5323  -52.0936 O.2       14 UNK        -0.5000 
     84 N          -5.4438  -19.0282  -51.3431 N.am      15 UNK        -0.5000 
     85 CA         -4.6150  -18.2989  -52.3097 C.3       15 UNK         0.1400 
     86 CB         -4.8578  -16.7778  -52.2229 C.3       15 UNK        -0.1800 
     87 C          -4.7628  -18.8685  -53.7331 C.2       15 UNK         0.5000 
     88 O          -5.1451  -18.1548  -54.6614 O.2       15 UNK        -0.5000 
     89 N          -4.4754  -20.1728  -53.8515 N.am      16 UNK        -0.5000 
     90 CA         -4.4954  -20.9975  -55.0683 C.3       16 UNK         0.1400 
     91 CB         -3.4907  -20.4692  -56.1132 C.3       16 UNK        -0.1800 
     92 C          -5.8984  -21.2396  -55.6692 C.2       16 UNK         0.5000 
     93 O          -5.9984  -21.7794  -56.7717 O.2       16 UNK        -0.5000 
     94 N          -6.9612  -20.8805  -54.9348 N.am      17 UNK        -0.5000 
     95 CA         -8.3590  -21.1069  -55.3198 C.3       17 UNK         0.1400 
     96 CB         -9.2431  -20.0709  -54.6100 C.3       17 UNK        -0.1800 
     97 C          -8.8496  -22.5413  -55.0242 C.2       17 UNK         0.5000 
     98 O          -9.9515  -22.9009  -55.4411 O.2       17 UNK        -0.5000 
     99 N          -8.0327  -23.3295  -54.3178 N.am      18 UNK        -0.5000 
    100 CA        -8.2289  -24.7458  -54.0262 C.3       18 UNK         0.1400 
    101 CB        -8.5638  -24.9053  -52.5337 C.3       18 UNK        -0.1800 
    102 C         -6.9356  -25.4959  -54.3811 C.2       18 UNK         0.5000 
    103 O         -5.8853  -24.8667  -54.5243 O.2       18 UNK        -0.5000 
    104 N         -7.0212  -26.8267  -54.4982 N.am      19 UNK        -0.5000 
    105 CA        -5.9020  -27.6951  -54.8813 C.3       19 UNK         0.1400 
    106 CB        -6.4344  -29.1092  -55.1603 C.3       19 UNK        -0.1800 
    107 C         -4.7606  -27.7433  -53.8453 C.2       19 UNK         0.5000 
    108 O         -3.5981  -27.8707  -54.2309 O.2       19 UNK        -0.5000 
    109 N         -5.1107  -27.6435  -52.5557 N.am      20 UNK        -0.5000 
    110 CA        -4.1590  -27.6370  -51.4410 C.3       20 UNK         0.1400 
    111 CB        -4.8712  -28.1517  -50.1804 C.3       20 UNK        -0.1800 
    112 C         -3.5525  -26.2449  -51.1788 C.2       20 UNK         0.5000 
    113 O         -2.4657  -26.1527  -50.6050 O.2       20 UNK        -0.5000 
    114 N         -4.2673  -25.1882  -51.5860 N.am      21 UNK        -0.5000 
    115 CA        -3.8743  -23.7923  -51.4174 C.3       21 UNK         0.1400 
    116 CB        -5.0779  -22.9045  -51.7650 C.3       21 UNK        -0.1800 
    117 C         -2.6440  -23.4595  -52.2782 C.2       21 UNK         0.5000 
    118 O         -2.6426  -23.7556  -53.4740 O.2       21 UNK        -0.5000 
    119 N         -1.6173  -22.8859  -51.6433 N.am      22 UNK        -0.5000 
    120 CA        -0.2728  -22.6495  -52.1934 C.3       22 UNK         0.1400 
    121 C          0.5548  -23.9488  -52.4473 C.2       22 UNK         0.5000 
    122 N          0.1516  -25.1125  -51.9478 N.am      22 UNK        -0.7600 
    123 O          1.6049  -23.9020  -53.0821 O.2       22 UNK        -0.5000 
    124 C124       -0.2536  -21.6740  -53.4053 C.3       23 UNK        -0.0398 
    125 S125       -0.8680  -20.0042  -52.9880 S.3       23 UNK        -0.2404 
    126 C126        0.6368  -18.9890  -53.1725 C.3       23 UNK        -0.0205 
    127 H127        4.3023  -10.8220  -44.4937 H         1 UNK         0.0600 
    128 H128        5.1827  -12.0213  -45.4475 H         1 UNK         0.0600 
    129 H129        5.0276  -12.2283  -43.7034 H         1 UNK         0.0600 
    130 H130        3.4452  -12.5998  -46.7989 H         1 UNK         0.3000 
    131 H131        1.8639  -14.7277  -46.0064 H         1 UNK         0.0600 
    132 H132        1.0508  -13.1848  -48.4962 H         1 UNK         0.0800 
    133 H133        2.6806  -13.7638  -48.4234 H         1 UNK         0.0800 
    134 H134        3.4626  -16.1740  -48.8154 H         1 UNK         0.0800 
    135 H135        2.7986  -15.4429  -50.2528 H         1 UNK         0.0800 
    136 H136        1.0588  -16.7941  -51.6166 H         1 UNK         0.1150 
    137 H137        2.1335  -20.9343  -51.9336 H         1 UNK         0.1150 
    138 H138        3.6672  -18.5595  -48.7169 H         1 UNK         0.1150 
    139 H139        4.3638  -21.4560  -50.6037 H         1 UNK         0.0800 
    140 H140        4.4907  -20.7759  -49.0047 H         1 UNK         0.0800 
    141 H141        2.3137  -20.6941  -47.5196 H         1 UNK         0.0800 
    142 H142        2.8716  -22.1501  -46.7494 H         1 UNK         0.0800 
    143 H143        0.6811  -23.2543  -47.1520 H         1 UNK         0.0600 
    144 H144        0.9774  -21.0365  -45.3796 H         1 UNK         0.3000 
    145 H145       -2.1650  -21.3703  -43.7227 H         1 UNK         0.0600 
    146 H146       -0.7259  -21.6046  -41.7251 H         1 UNK         0.0600 
    147 H147       -0.7249  -23.1062  -42.6361 H         1 UNK         0.0600 
    148 H148        0.6599  -22.0245  -42.7317 H         1 UNK         0.0600 
    149 H149        0.0499  -19.6684  -43.2092 H         1 UNK         0.3000 
    150 H150       -0.8629  -17.0478  -45.5024 H         1 UNK         0.0600 
    151 H151       -2.1562  -16.7037  -43.3967 H         1 UNK         0.0600 
    152 H152       -0.6599  -15.7820  -43.4019 H         1 UNK         0.0600 
    153 H153       -0.7804  -17.2588  -42.4458 H         1 UNK         0.0600 
    154 H154        1.3538  -17.2707  -43.7449 H         1 UNK         0.3000 
    155 H155        3.5961  -18.8851  -46.0343 H         1 UNK         0.0600 
    156 H156        3.4181  -16.0909  -44.7879 H         1 UNK         0.0600 
    157 H157        3.6539  -16.4472  -46.4908 H         1 UNK         0.0600 
    158 H158        4.8969  -16.8818  -45.3294 H         1 UNK         0.0600 
    159 H159        3.7289  -18.0410  -43.2674 H         1 UNK         0.3000 
    160 H160        2.9443  -21.2215  -41.8661 H         1 UNK         0.0600 
    161 H161        5.6468  -19.7923  -42.1099 H         1 UNK         0.0600 
    162 H162        5.3314  -21.4622  -42.5662 H         1 UNK         0.0600 
    163 H163        5.2053  -20.9798  -40.8823 H         1 UNK         0.0600 
    164 H164        3.8676  -18.7947  -40.6897 H         1 UNK         0.3000 
    165 H165        0.7166  -17.1909  -40.3240 H         1 UNK         0.0600 
    166 H166        1.2842  -17.3322  -37.9196 H         1 UNK         0.0600 
    167 H167        0.7312  -18.8965  -38.4946 H         1 UNK         0.0600 
    168 H168        2.4494  -18.6185  -38.2358 H         1 UNK         0.0600 
    169 H169        3.2113  -16.4601  -39.2731 H         1 UNK         0.3000 
    170 H170        4.5993  -15.0121  -40.1268 H         1 UNK         0.0600 
    171 H171        5.6374  -16.0283  -42.1699 H         1 UNK         0.0600 
    172 H172        4.7411  -14.9112  -43.1930 H         1 UNK         0.0600 
    173 H173        5.9563  -14.3022  -42.0765 H         1 UNK         0.0600 
    174 H174        2.9834  -13.4515  -42.1051 H         1 UNK         0.3000 
    175 H175        1.9898  -11.1378  -39.5845 H         1 UNK         0.0600 
    176 H176        3.4357  -10.7659  -42.2538 H         1 UNK         0.0600 
    177 H177        2.4058   -9.5778  -41.4621 H         1 UNK         0.0600 
    178 H178        3.9203  -10.0673  -40.7158 H         1 UNK         0.0600 
    179 H179        1.2949  -12.0297  -42.3242 H         1 UNK         0.3000 
    180 H180       -0.7657  -14.1986  -41.7718 H         1 UNK         0.0600 
    181 H181       -2.6771  -11.9097  -41.0928 H         1 UNK         0.0600 
    182 H182       -2.5370  -13.4448  -40.2483 H         1 UNK         0.0600 
    183 H183       -3.1368  -13.4108  -41.8962 H         1 UNK         0.0600 
    184 H184       -0.7010  -13.3867  -43.8280 H         1 UNK         0.3000 
    185 H185       -1.8383  -11.6914  -45.5658 H         1 UNK         0.0600 
    186 H186       -0.8692   -9.6763  -46.6569 H         1 UNK         0.0600 
    187 H187       -1.7811   -9.2370  -45.2241 H         1 UNK         0.0600 
    188 H188       -0.0216   -9.2583  -45.1677 H         1 UNK         0.0600 
    189 H189        1.0353  -11.3516  -45.9001 H         1 UNK         0.3000 
    190 H190       -0.0063  -19.7372  -47.5787 H         1 UNK         0.3000 
    191 H191       -1.0973  -19.9109  -50.1446 H         1 UNK         0.0600 
    192 H192       -1.6159  -17.8719  -47.9237 H         1 UNK         0.0600 
    193 H193       -2.0871  -17.6587  -49.6107 H         1 UNK         0.0600 
    194 H194       -0.3917  -17.8044  -49.1873 H         1 UNK         0.0600 
    195 H195       -2.8644  -19.8564  -47.0150 H         1 UNK         0.3000 
    196 H196       -4.9172  -20.3702  -46.3805 H         1 UNK         0.0600 
    197 H197       -4.7029  -22.5377  -48.5468 H         1 UNK         0.0600 
    198 H198       -4.1806  -22.6648  -46.8758 H         1 UNK         0.0600 
    199 H199       -5.8897  -22.5153  -47.2443 H         1 UNK         0.0600 
    200 H200       -6.1621  -21.4740  -49.4141 H         1 UNK         0.3000 
    201 H201       -8.0804  -19.2826  -49.5959 H         1 UNK         0.0600 
    202 H202       -7.7324  -21.6689  -51.4824 H         1 UNK         0.0600 
    203 H203       -9.1592  -20.6721  -51.2494 H         1 UNK         0.0600 
    204 H204       -8.6394  -21.7496  -49.9710 H         1 UNK         0.0600 
    205 H205       -4.9156  -19.5766  -50.6687 H         1 UNK         0.3000 
    206 H206       -3.5787  -18.4744  -52.0159 H         1 UNK         0.0600 
    207 H207       -4.7136  -16.4148  -51.2052 H         1 UNK         0.0600 
    208 H208       -4.1591  -16.2376  -52.8627 H         1 UNK         0.0600 
    209 H209       -5.8649  -16.5036  -52.5377 H         1 UNK         0.0600 
    210 H210       -4.1616  -20.6486  -53.0179 H         1 UNK         0.3000 
    211 H211       -4.1440  -21.9822  -54.7609 H         1 UNK         0.0600 
    212 H212       -2.5018  -20.3333  -55.6755 H         1 UNK         0.0600 
    213 H213       -3.8062  -19.5150  -56.5354 H         1 UNK         0.0600 
    214 H214       -3.3816  -21.1707  -56.9409 H         1 UNK         0.0600 
    215 H215       -6.8034  -20.4006  -54.0606 H         1 UNK         0.3000 
    216 H216       -8.4570  -20.9473  -56.3956 H         1 UNK         0.0600 
    217 H217       -9.2263  -20.2024  -53.5292 H         1 UNK         0.0600 
    218 H218      -10.2813  -20.1536  -54.9336 H         1 UNK         0.0600 
    219 H219       -8.9148  -19.0544  -54.8284 H         1 UNK         0.0600 
    220 H220       -7.1056  -22.9856  -54.1134 H         1 UNK         0.3000 
    221 H221       -9.0406  -25.1553  -54.6310 H         1 UNK         0.0600 
    222 H222       -9.4620  -24.3455  -52.2721 H         1 UNK         0.0600 
    223 H223       -7.7540  -24.5500  -51.8962 H         1 UNK         0.0600 
    224 H224       -8.7485  -25.9497  -52.2802 H         1 UNK         0.0600 
    225 H225       -7.9143  -27.2777  -54.3599 H         1 UNK         0.3000 
    226 H226       -5.4805  -27.3040  -55.8100 H         1 UNK         0.0600 
    227 H227       -7.1749  -29.1018  -55.9603 H         1 UNK         0.0600 
    228 H228       -5.6288  -29.7756  -55.4719 H         1 UNK         0.0600 
    229 H229       -6.8985  -29.5470  -54.2756 H         1 UNK         0.0600 
    230 H230       -6.0899  -27.5625  -52.3248 H         1 UNK         0.3000 
    231 H231       -3.3362  -28.3191  -51.6662 H         1 UNK         0.0600 
    232 H232       -5.7094  -27.5120  -49.9009 H         1 UNK         0.0600 
    233 H233       -4.1869  -28.1854  -49.3316 H         1 UNK         0.0600 
    234 H234       -5.2535  -29.1619  -50.3281 H         1 UNK         0.0600 
    235 H235       -5.0905  -25.3582  -52.1430 H         1 UNK         0.3000 
    236 H236       -3.6223  -23.6351  -50.3666 H         1 UNK         0.0600 
    237 H237       -5.3913  -23.0342  -52.7987 H         1 UNK         0.0600 
    238 H238       -5.9252  -23.1357  -51.1211 H         1 UNK         0.0600 
    239 H239       -4.8476  -21.8518  -51.6323 H         1 UNK         0.0600 
    240 H240       -1.6843  -22.7063  -50.6446 H         1 UNK         0.3000 
    241 H241        0.2658  -22.1589  -51.3839 H         1 UNK         0.0600 
    242 H242       -0.7074  -25.1899  -51.4176 H         1 UNK         0.3800 
    243 H243        0.7084  -25.9357  -52.1120 H         1 UNK         0.3800 
    244 H244       -0.8526  -22.0648  -54.2277 H         1 UNK         0.0800 
    245 H245        0.7556  -21.5826  -53.8072 H         1 UNK         0.0800 
    246 H246        0.3240  -17.9931  -53.4896 H         1 UNK         0.0800 
    247 H247        1.2596  -19.3691  -53.9830 H         1 UNK         0.0800 
@<TRIPOS>BOND
     1    1    2 1    
     2    1  127 1    
     3    1  128 1    
     4    1  129 1    
     5    2    3 2    
     6    2    4 am   BACKBONE|DICT|INTERRES
     7    4    5 1    
     8    4  130 1    
     9    5    6 1    
    10    5   65 1    
    11    5  131 1    
    12    6    7 1    
    13    6  132 1    
    14    6  133 1    
    15    7    8 1    
    16    8    9 1    
    17    8  134 1    
    18    8  135 1    
    19    9   10 ar   
    20    9   14 ar   
    21   10   11 ar   
    22   10  136 1    
    23   11   12 ar   
    24   11  126 1    
    25   12   13 ar   
    26   12  137 1    
    27   13   14 ar   
    28   13   15 1    
    29   14  138 1    
    30   15   16 1    
    31   15  139 1    
    32   15  140 1    
    33   16   17 1    
    34   17   18 1    
    35   17  141 1    
    36   17  142 1    
    37   18   19 1    
    38   18   67 1    
    39   18  143 1    
    40   19   20 am   BACKBONE|DICT|INTERRES
    41   19  144 1    
    42   20   21 2    
    43   20   22 1    
    44   22   23 1    
    45   22   24 1    
    46   22  145 1    
    47   23  146 1    
    48   23  147 1    
    49   23  148 1    
    50   24   25 am   BACKBONE|DICT|INTERRES
    51   24  149 1    
    52   25   26 2    
    53   25   27 1    
    54   27   28 1    
    55   27   29 1    
    56   27  150 1    
    57   28  151 1    
    58   28  152 1    
    59   28  153 1    
    60   29   30 am   BACKBONE|DICT|INTERRES
    61   29  154 1    
    62   30   31 2    
    63   30   32 1    
    64   32   33 1    
    65   32   34 1    
    66   32  155 1    
    67   33  156 1    
    68   33  157 1    
    69   33  158 1    
    70   34   35 am   BACKBONE|DICT|INTERRES
    71   34  159 1    
    72   35   36 2    
    73   35   37 1    
    74   37   38 1    
    75   37   39 1    
    76   37  160 1    
    77   38  161 1    
    78   38  162 1    
    79   38  163 1    
    80   39   40 am   BACKBONE|DICT|INTERRES
    81   39  164 1    
    82   40   41 2    
    83   40   42 1    
    84   42   43 1    
    85   42   44 1    
    86   42  165 1    
    87   43  166 1    
    88   43  167 1    
    89   43  168 1    
    90   44   45 am   BACKBONE|DICT|INTERRES
    91   44  169 1    
    92   45   46 2    
    93   45   47 1    
    94   47   48 1    
    95   47   49 1    
    96   47  170 1    
    97   48  171 1    
    98   48  172 1    
    99   48  173 1    
   100   49   50 am   BACKBONE|DICT|INTERRES
   101   49  174 1    
   102   50   51 2    
   103   50   52 1    
   104   52   53 1    
   105   52   54 1    
   106   52  175 1    
   107   53  176 1    
   108   53  177 1    
   109   53  178 1    
   110   54   55 am   BACKBONE|DICT|INTERRES
   111   54  179 1    
   112   55   56 2    
   113   55   57 1    
   114   57   58 1    
   115   57   59 1    
   116   57  180 1    
   117   58  181 1    
   118   58  182 1    
   119   58  183 1    
   120   59   60 am   BACKBONE|DICT|INTERRES
   121   59  184 1    
   122   60   61 2    
   123   60   62 1    
   124   62   63 1    
   125   62   64 1    
   126   62  185 1    
   127   63  186 1    
   128   63  187 1    
   129   63  188 1    
   130   64   65 am   BACKBONE|DICT|INTERRES
   131   64  189 1    
   132   65   66 2    
   133   67   68 2    
   134   67   69 am   BACKBONE|DICT|INTERRES
   135   69   70 1    
   136   69  190 1    
   137   70   71 1    
   138   70   72 1    
   139   70  191 1    
   140   71  192 1    
   141   71  193 1    
   142   71  194 1    
   143   72   73 2    
   144   72   74 am   BACKBONE|DICT|INTERRES
   145   74   75 1    
   146   74  195 1    
   147   75   76 1    
   148   75   77 1    
   149   75  196 1    
   150   76  197 1    
   151   76  198 1    
   152   76  199 1    
   153   77   78 2    
   154   77   79 am   BACKBONE|DICT|INTERRES
   155   79   80 1    
   156   79  200 1    
   157   80   81 1    
   158   80   82 1    
   159   80  201 1    
   160   81  202 1    
   161   81  203 1    
   162   81  204 1    
   163   82   83 2    
   164   82   84 am   BACKBONE|DICT|INTERRES
   165   84   85 1    
   166   84  205 1    
   167   85   86 1    
   168   85   87 1    
   169   85  206 1    
   170   86  207 1    
   171   86  208 1    
   172   86  209 1    
   173   87   88 2    
   174   87   89 am   BACKBONE|DICT|INTERRES
   175   89   90 1    
   176   89  210 1    
   177   90   91 1    
   178   90   92 1    
   179   90  211 1    
   180   91  212 1    
   181   91  213 1    
   182   91  214 1    
   183   92   93 2    
   184   92   94 am   BACKBONE|DICT|INTERRES
   185   94   95 1    
   186   94  215 1    
   187   95   96 1    
   188   95   97 1    
   189   95  216 1    
   190   96  217 1    
   191   96  218 1    
   192   96  219 1    
   193   97   98 2    
   194   97   99 am   BACKBONE|DICT|INTERRES
   195   99  100 1    
   196   99  220 1    
   197  100  101 1    
   198  100  102 1    
   199  100  221 1    
   200  101  222 1    
   201  101  223 1    
   202  101  224 1    
   203  102  103 2    
   204  102  104 am   BACKBONE|DICT|INTERRES
   205  104  105 1    
   206  104  225 1    
   207  105  106 1    
   208  105  107 1    
   209  105  226 1    
   210  106  227 1    
   211  106  228 1    
   212  106  229 1    
   213  107  108 2    
   214  107  109 am   BACKBONE|DICT|INTERRES
   215  109  110 1    
   216  109  230 1    
   217  110  111 1    
   218  110  112 1    
   219  110  231 1    
   220  111  232 1    
   221  111  233 1    
   222  111  234 1    
   223  112  113 2    
   224  112  114 am   BACKBONE|DICT|INTERRES
   225  114  115 1    
   226  114  235 1    
   227  115  116 1    
   228  115  117 1    
   229  115  236 1    
   230  116  237 1    
   231  116  238 1    
   232  116  239 1    
   233  117  118 2    
   234  117  119 am   BACKBONE|DICT|INTERRES
   235  119  120 1    
   236  119  240 1    
   237  120  121 1    
   238  120  124 1    
   239  120  241 1    
   240  121  122 am   BACKBONE|DICT|INTERRES
   241  121  123 2    
   242  122  242 1    
   243  122  243 1    
   244  124  125 1    
   245  124  244 1    
   246  124  245 1    
   247  125  126 1    
   248  126  246 1    
   249  126  247 1    
@<TRIPOS>SUBSTRUCTURE
     1 UNK         1 GROUP             0       ****    0 ROOT    
