@<TRIPOS>MOLECULE
3R540
247   249    1
SMALL
USER_CHARGES


@<TRIPOS>ATOM
      1 CA         -6.3067  -14.3488  -48.8687 C.3       0 UNK        -0.1800 
      2 C          -5.0376  -15.0712  -48.4376 C.2       0 UNK         0.5000 
      3 O          -4.9007  -15.4074  -47.2617 O.2       0 UNK        -0.5000 
      4 N          -4.1360  -15.3150  -49.3967 N.am      1 UNK        -0.5000 
      5 CA         -2.8397  -15.9936  -49.2789 C.3       1 UNK         0.1400 
      6 C6         -2.9206  -17.4356  -48.7031 C.3       23 UNK        -0.0398 
      7 S7         -3.9000  -18.5178  -49.8074 S.3       23 UNK        -0.2404 
      8 C8         -2.6659  -19.4569  -50.7736 C.3       23 UNK        -0.0205 
      9 C9         -1.3650  -18.7130  -51.0380 C.ar      23 UNK        -0.0193 
     10 C10        -1.3031  -17.6848  -51.9816 C.ar      23 UNK        -0.1150 
     11 C11        -0.1055  -16.9955  -52.1957 C.ar      23 UNK        -0.0193 
     12 C12         1.0358  -17.3632  -51.4786 C.ar      23 UNK        -0.1150 
     13 C13         0.9930  -18.3888  -50.5302 C.ar      23 UNK        -0.0193 
     14 C14        -0.2168  -19.0598  -50.3209 C.ar      23 UNK        -0.1150 
     15 C15         2.2641  -18.7062  -49.7400 C.3       23 UNK        -0.0205 
     16 S16         2.3593  -20.3871  -49.0339 S.3       23 UNK        -0.2404 
     17 C17         1.5496  -20.1557  -47.4135 C.3       23 UNK        -0.0398 
     18 CA          1.0280  -21.4897  -46.8270 C.3       11 UNK         0.1400 
     19 N           0.9569  -21.4593  -45.3655 N.am      11 UNK        -0.5000 
     20 C           1.0445  -22.5468  -44.5867 C.2       10 UNK         0.5000 
     21 O           1.2320  -23.6851  -45.0177 O.2       10 UNK        -0.5000 
     22 CA          0.8696  -22.3279  -43.0716 C.3       10 UNK         0.1400 
     23 CB          2.1941  -21.8759  -42.4400 C.3       10 UNK        -0.1800 
     24 N          -0.1715  -21.3516  -42.7481 N.am      10 UNK        -0.5000 
     25 C          -1.4713  -21.5026  -43.0393 C.2       9 UNK         0.5000 
     26 O          -1.9367  -22.4947  -43.5966 O.2       9 UNK        -0.5000 
     27 CA         -2.4045  -20.3303  -42.6922 C.3       9 UNK         0.1400 
     28 CB         -2.8916  -20.4469  -41.2405 C.3       9 UNK        -0.1800 
     29 N          -1.8027  -19.0124  -42.8848 N.am      9 UNK        -0.5000 
     30 C          -1.2095  -18.5354  -43.9860 C.2       8 UNK         0.5000 
     31 O          -1.0702  -19.1892  -45.0212 O.2       8 UNK        -0.5000 
     32 CA         -0.6299  -17.1083  -43.9098 C.3       8 UNK         0.1400 
     33 CB         -1.6189  -16.0707  -44.4695 C.3       8 UNK        -0.1800 
     34 N          -0.1175  -16.7077  -42.5905 N.am      8 UNK        -0.5000 
     35 C          -0.7727  -16.5422  -41.4306 C.2       7 UNK         0.5000 
     36 O          -1.9924  -16.6701  -41.3191 O.2       7 UNK        -0.5000 
     37 CA          0.0663  -16.2101  -40.1784 C.3       7 UNK         0.1400 
     38 CB         -0.4790  -16.9002  -38.9105 C.3       7 UNK        -0.1800 
     39 N           1.5036  -16.4650  -40.3301 N.am      7 UNK        -0.5000 
     40 C           2.1285  -17.6390  -40.5225 C.2       6 UNK         0.5000 
     41 O           1.5407  -18.7187  -40.6079 O.2       6 UNK        -0.5000 
     42 CA          3.6643  -17.5855  -40.6797 C.3       6 UNK         0.1400 
     43 CB          4.1710  -18.6186  -41.7010 C.3       6 UNK        -0.1800 
     44 N           4.0959  -16.2552  -41.1111 N.am      6 UNK        -0.5000 
     45 C           4.7144  -15.3404  -40.3519 C.2       5 UNK         0.5000 
     46 O           5.0880  -15.5488  -39.1975 O.2       5 UNK        -0.5000 
     47 CA          4.9222  -13.9417  -40.9741 C.3       5 UNK         0.1400 
     48 CB          6.3434  -13.8146  -41.5432 C.3       5 UNK        -0.1800 
     49 N           3.9572  -13.6212  -42.0311 N.am      5 UNK        -0.5000 
     50 C           2.6349  -13.4825  -41.8546 C.2       4 UNK         0.5000 
     51 O           2.0912  -13.5218  -40.7513 O.2       4 UNK        -0.5000 
     52 CA          1.7634  -13.3488  -43.1212 C.3       4 UNK         0.1400 
     53 CB          1.4274  -11.8752  -43.3915 C.3       4 UNK        -0.1800 
     54 N           2.3562  -13.9350  -44.3293 N.am      4 UNK        -0.5000 
     55 C           2.7076  -15.2201  -44.4828 C.2       3 UNK         0.5000 
     56 O           2.5793  -16.0674  -43.5965 O.2       3 UNK        -0.5000 
     57 CA          3.3223  -15.5926  -45.8447 C.3       3 UNK         0.1400 
     58 CB          3.6021  -17.1035  -45.9890 C.3       3 UNK        -0.1800 
     59 N           2.5290  -15.0602  -46.9605 N.am      3 UNK        -0.5000 
     60 C           1.3255  -15.4788  -47.3802 C.2       2 UNK         0.5000 
     61 O           0.7433  -16.4669  -46.9318 O.2       2 UNK        -0.5000 
     62 CA          0.6785  -14.6493  -48.5074 C.3       2 UNK         0.1400 
     63 CB          1.6598  -14.3941  -49.6666 C.3       2 UNK        -0.1800 
     64 N          -0.5102  -15.3208  -49.0342 N.am      2 UNK        -0.5000 
     65 C          -1.7592  -15.1345  -48.5881 C.2       1 UNK         0.5000 
     66 O          -2.0540  -14.3183  -47.7123 O.2       1 UNK        -0.5000 
     67 C          -0.3296  -21.9033  -47.4240 C.2       11 UNK         0.5000 
     68 O          -0.3620  -22.7083  -48.3544 O.2       11 UNK        -0.5000 
     69 N          -1.4298  -21.3931  -46.8496 N.am      12 UNK        -0.5000 
     70 CA         -2.7993  -21.7280  -47.2423 C.3       12 UNK         0.1400 
     71 CB         -3.7980  -20.8686  -46.4575 C.3       12 UNK        -0.1800 
     72 C          -3.1229  -23.2250  -47.0921 C.2       12 UNK         0.5000 
     73 O          -3.7649  -23.7869  -47.9767 O.2       12 UNK        -0.5000 
     74 N          -2.6377  -23.8596  -46.0163 N.am      13 UNK        -0.5000 
     75 CA         -2.7724  -25.2975  -45.7726 C.3       13 UNK         0.1400 
     76 CB         -2.2468  -25.6310  -44.3684 C.3       13 UNK        -0.1800 
     77 C          -2.0649  -26.1652  -46.8311 C.2       13 UNK         0.5000 
     78 O          -2.5927  -27.2134  -47.2034 O.2       13 UNK        -0.5000 
     79 N          -0.9000  -25.7073  -47.3098 N.am      14 UNK        -0.5000 
     80 CA         -0.1323  -26.3606  -48.3704 C.3       14 UNK         0.1400 
     81 CB          1.3165  -25.8492  -48.3386 C.3       14 UNK        -0.1800 
     82 C          -0.7624  -26.1435  -49.7587 C.2       14 UNK         0.5000 
     83 O          -0.8028  -27.0740  -50.5643 O.2       14 UNK        -0.5000 
     84 N          -1.2501  -24.9214  -50.0054 N.am      15 UNK        -0.5000 
     85 CA         -1.8856  -24.4998  -51.2546 C.3       15 UNK         0.1400 
     86 CB         -1.9422  -22.9682  -51.2626 C.3       15 UNK        -0.1800 
     87 C          -3.3063  -25.0599  -51.4620 C.2       15 UNK         0.5000 
     88 O          -3.7808  -25.0755  -52.5980 O.2       15 UNK        -0.5000 
     89 N          -3.9600  -25.4700  -50.3652 N.am      16 UNK        -0.5000 
     90 CA         -5.3838  -25.8018  -50.2466 C.3       16 UNK         0.1400 
     91 CB         -5.7799  -26.9895  -51.1494 C.3       16 UNK        -0.1800 
     92 C          -6.2685  -24.5499  -50.4345 C.2       16 UNK         0.5000 
     93 O          -7.2663  -24.5878  -51.1570 O.2       16 UNK        -0.5000 
     94 N          -5.8677  -23.4662  -49.7540 N.am      17 UNK        -0.5000 
     95 CA         -6.4709  -22.1343  -49.7209 C.3       17 UNK         0.1400 
     96 CB         -7.8161  -22.1725  -48.9619 C.3       17 UNK        -0.1800 
     97 C          -6.5385  -21.4917  -51.1214 C.2       17 UNK         0.5000 
     98 O          -5.4946  -21.3233  -51.7504 O.2       17 UNK        -0.5000 
     99 N          -7.7479  -21.1153  -51.5632 N.am      18 UNK        -0.5000 
    100 CA        -8.0900  -20.5147  -52.8603 C.3       18 UNK         0.1400 
    101 CB        -7.7254  -21.4615  -54.0217 C.3       18 UNK        -0.1800 
    102 C         -7.5556  -19.0816  -53.0792 C.2       18 UNK         0.5000 
    103 O         -7.6536  -18.5690  -54.1946 O.2       18 UNK        -0.5000 
    104 N         -7.0284  -18.4509  -52.0188 N.am      19 UNK        -0.5000 
    105 CA        -6.5790  -17.0564  -51.8765 C.3       19 UNK         0.1400 
    106 CB        -7.7600  -16.0857  -52.0631 C.3       19 UNK        -0.1800 
    107 C         -5.3803  -16.6175  -52.7452 C.2       19 UNK         0.5000 
    108 O         -4.6241  -15.7470  -52.3107 O.2       19 UNK        -0.5000 
    109 N         -5.2322  -17.1942  -53.9412 N.am      20 UNK        -0.5000 
    110 CA        -4.2515  -16.8109  -54.9558 C.3       20 UNK         0.1400 
    111 CB        -4.9332  -15.8995  -55.9922 C.3       20 UNK        -0.1800 
    112 C         -3.5762  -18.0317  -55.6078 C.2       20 UNK         0.5000 
    113 O         -2.9839  -17.8976  -56.6802 O.2       20 UNK        -0.5000 
    114 N         -3.6350  -19.2008  -54.9547 N.am      21 UNK        -0.5000 
    115 CA        -2.9202  -20.4161  -55.3584 C.3       21 UNK         0.1400 
    116 CB        -3.6860  -21.6468  -54.8464 C.3       21 UNK        -0.1800 
    117 C         -1.4556  -20.3719  -54.8744 C.2       21 UNK         0.5000 
    118 O         -1.0424  -21.1903  -54.0534 O.2       21 UNK        -0.5000 
    119 N         -0.7106  -19.3769  -55.3668 N.am      22 UNK        -0.5000 
    120 CA         0.6393  -19.0140  -54.9034 C.3       22 UNK         0.1400 
    121 C          1.7827  -19.9639  -55.3673 C.2       22 UNK         0.5000 
    122 N          1.5344  -20.9326  -56.2401 N.am      22 UNK        -0.7600 
    123 O          2.9199  -19.8187  -54.9275 O.2       22 UNK        -0.5000 
    124 C124        0.9883  -17.5328  -55.2251 C.3       23 UNK        -0.0398 
    125 S125       -0.3647  -16.3470  -54.8925 S.3       23 UNK        -0.2404 
    126 C126       -0.0408  -15.8356  -53.1785 C.3       23 UNK        -0.0205 
    127 H127       -6.2475  -14.0092  -49.9031 H         1 UNK         0.0600 
    128 H128       -6.4770  -13.4774  -48.2364 H         1 UNK         0.0600 
    129 H129       -7.1662  -15.0128  -48.7764 H         1 UNK         0.0600 
    130 H130       -4.3536  -15.0362  -50.3469 H         1 UNK         0.3000 
    131 H131       -2.5158  -16.0713  -50.3147 H         1 UNK         0.0600 
    132 H132       -1.9305  -17.8640  -48.5475 H         1 UNK         0.0800 
    133 H133       -3.3832  -17.4361  -47.7162 H         1 UNK         0.0800 
    134 H134       -2.4541  -20.3768  -50.2352 H         1 UNK         0.0800 
    135 H135       -3.1116  -19.7613  -51.7216 H         1 UNK         0.0800 
    136 H136       -2.1907  -17.4074  -52.5326 H         1 UNK         0.1150 
    137 H137        1.9649  -16.8393  -51.6533 H         1 UNK         0.1150 
    138 H138       -0.2807  -19.8538  -49.5933 H         1 UNK         0.1150 
    139 H139        3.1271  -18.5838  -50.3961 H         1 UNK         0.0800 
    140 H140        2.3802  -17.9709  -48.9430 H         1 UNK         0.0800 
    141 H141        2.3112  -19.7436  -46.7524 H         1 UNK         0.0800 
    142 H142        0.7631  -19.4000  -47.4710 H         1 UNK         0.0800 
    143 H143        1.7447  -22.2689  -47.0980 H         1 UNK         0.0600 
    144 H144        0.7169  -20.5732  -44.9416 H         1 UNK         0.3000 
    145 H145        0.5834  -23.2834  -42.6268 H         1 UNK         0.0600 
    146 H146        2.1007  -21.7644  -41.3595 H         1 UNK         0.0600 
    147 H147        2.9851  -22.6036  -42.6258 H         1 UNK         0.0600 
    148 H148        2.5238  -20.9199  -42.8480 H         1 UNK         0.0600 
    149 H149        0.1244  -20.5036  -42.2843 H         1 UNK         0.3000 
    150 H150       -3.2749  -20.3873  -43.3451 H         1 UNK         0.0600 
    151 H151       -3.3666  -21.4127  -41.0627 H         1 UNK         0.0600 
    152 H152       -3.6269  -19.6760  -41.0083 H         1 UNK         0.0600 
    153 H153       -2.0685  -20.3482  -40.5313 H         1 UNK         0.0600 
    154 H154       -1.9025  -18.3574  -42.1148 H         1 UNK         0.3000 
    155 H155        0.2451  -17.1162  -44.5569 H         1 UNK         0.0600 
    156 H156       -1.1652  -15.0806  -44.5142 H         1 UNK         0.0600 
    157 H157       -2.5259  -16.0021  -43.8687 H         1 UNK         0.0600 
    158 H158       -1.9195  -16.3319  -45.4852 H         1 UNK         0.0600 
    159 H159        0.8904  -16.5937  -42.5699 H         1 UNK         0.3000 
    160 H160       -0.0339  -15.1340  -40.0325 H         1 UNK         0.0600 
    161 H161       -0.4944  -17.9856  -39.0136 H         1 UNK         0.0600 
    162 H162       -1.4994  -16.5798  -38.6970 H         1 UNK         0.0600 
    163 H163        0.1244  -16.6540  -38.0368 H         1 UNK         0.0600 
    164 H164        2.0771  -15.6305  -40.3041 H         1 UNK         0.3000 
    165 H165        4.0946  -17.8295  -39.7067 H         1 UNK         0.0600 
    166 H166        3.6936  -18.4916  -42.6736 H         1 UNK         0.0600 
    167 H167        5.2485  -18.5364  -41.8435 H         1 UNK         0.0600 
    168 H168        3.9689  -19.6344  -41.3606 H         1 UNK         0.0600 
    169 H169        3.7861  -15.9916  -42.0413 H         1 UNK         0.3000 
    170 H170        4.8040  -13.2061  -40.1758 H         1 UNK         0.0600 
    171 H171        7.0914  -14.0181  -40.7756 H         1 UNK         0.0600 
    172 H172        6.5134  -14.5158  -42.3612 H         1 UNK         0.0600 
    173 H173        6.5304  -12.8080  -41.9177 H         1 UNK         0.0600 
    174 H174        4.3199  -13.5671  -42.9713 H         1 UNK         0.3000 
    175 H175        0.8294  -13.8795  -42.9259 H         1 UNK         0.0600 
    176 H176        2.3207  -11.2957  -43.6281 H         1 UNK         0.0600 
    177 H177        0.7306  -11.7756  -44.2240 H         1 UNK         0.0600 
    178 H178        0.9581  -11.4147  -42.5210 H         1 UNK         0.0600 
    179 H179        2.4942  -13.3052  -45.1058 H         1 UNK         0.3000 
    180 H180        4.2863  -15.0841  -45.8913 H         1 UNK         0.0600 
    181 H181        2.7096  -17.6978  -45.7975 H         1 UNK         0.0600 
    182 H182        4.3588  -17.4259  -45.2729 H         1 UNK         0.0600 
    183 H183        3.9688  -17.3494  -46.9853 H         1 UNK         0.0600 
    184 H184        2.9298  -14.2557  -47.4219 H         1 UNK         0.3000 
    185 H185        0.3930  -13.6829  -48.0870 H         1 UNK         0.0600 
    186 H186        1.1471  -14.0064  -50.5474 H         1 UNK         0.0600 
    187 H187        2.4129  -13.6564  -49.3883 H         1 UNK         0.0600 
    188 H188        2.1891  -15.3011  -49.9558 H         1 UNK         0.0600 
    189 H189       -0.3367  -16.0438  -49.7183 H         1 UNK         0.3000 
    190 H190       -1.3225  -20.7097  -46.1041 H         1 UNK         0.3000 
    191 H191       -2.9049  -21.4765  -48.2973 H         1 UNK         0.0600 
    192 H192       -3.5670  -19.8070  -46.5479 H         1 UNK         0.0600 
    193 H193       -4.8126  -21.0146  -46.8296 H         1 UNK         0.0600 
    194 H194       -3.7999  -21.1272  -45.4003 H         1 UNK         0.0600 
    195 H195       -2.1772  -23.3184  -45.2889 H         1 UNK         0.3000 
    196 H196       -3.8361  -25.5421  -45.8047 H         1 UNK         0.0600 
    197 H197       -2.3188  -26.7002  -44.1650 H         1 UNK         0.0600 
    198 H198       -2.8238  -25.1160  -43.6003 H         1 UNK         0.0600 
    199 H199       -1.2013  -25.3418  -44.2520 H         1 UNK         0.0600 
    200 H200       -0.5454  -24.8257  -46.9658 H         1 UNK         0.3000 
    201 H201       -0.1140  -27.4350  -48.1747 H         1 UNK         0.0600 
    202 H202        1.7807  -26.0411  -47.3710 H         1 UNK         0.0600 
    203 H203        1.3736  -24.7770  -48.5286 H         1 UNK         0.0600 
    204 H204        1.9223  -26.3487  -49.0957 H         1 UNK         0.0600 
    205 H205       -1.1091  -24.1959  -49.3073 H         1 UNK         0.3000 
    206 H206       -1.2665  -24.8308  -52.0907 H         1 UNK         0.0600 
    207 H207       -0.9494  -22.5263  -51.1733 H         1 UNK         0.0600 
    208 H208       -2.3832  -22.5961  -52.1866 H         1 UNK         0.0600 
    209 H209       -2.5548  -22.6034  -50.4391 H         1 UNK         0.0600 
    210 H210       -3.4774  -25.3502  -49.4830 H         1 UNK         0.3000 
    211 H211       -5.5286  -26.1208  -49.2133 H         1 UNK         0.0600 
    212 H212       -5.7547  -26.7286  -52.2074 H         1 UNK         0.0600 
    213 H213       -6.7931  -27.3237  -50.9242 H         1 UNK         0.0600 
    214 H214       -5.1155  -27.8398  -50.9961 H         1 UNK         0.0600 
    215 H215       -5.0294  -23.5687  -49.1839 H         1 UNK         0.3000 
    216 H216       -5.7880  -21.5098  -49.1432 H         1 UNK         0.0600 
    217 H217       -7.6823  -22.5828  -47.9608 H         1 UNK         0.0600 
    218 H218       -8.5595  -22.7874  -49.4706 H         1 UNK         0.0600 
    219 H219       -8.2318  -21.1715  -48.8399 H         1 UNK         0.0600 
    220 H220       -8.5357  -21.2939  -50.9560 H         1 UNK         0.3000 
    221 H221       -9.1764  -20.4170  -52.8577 H         1 UNK         0.0600 
    222 H222       -6.6476  -21.5743  -54.1258 H         1 UNK         0.0600 
    223 H223       -8.1511  -22.4534  -53.8691 H         1 UNK         0.0600 
    224 H224       -8.1078  -21.0879  -54.9721 H         1 UNK         0.0600 
    225 H225       -6.9500  -19.0008  -51.1759 H         1 UNK         0.3000 
    226 H226       -6.2505  -16.9639  -50.8408 H         1 UNK         0.0600 
    227 H227       -7.4538  -15.0557  -51.8767 H         1 UNK         0.0600 
    228 H228       -8.1622  -16.1253  -53.0758 H         1 UNK         0.0600 
    229 H229       -8.5702  -16.3129  -51.3702 H         1 UNK         0.0600 
    230 H230       -5.9549  -17.8495  -54.2306 H         1 UNK         0.3000 
    231 H231       -3.4434  -16.2442  -54.4897 H         1 UNK         0.0600 
    232 H232       -4.2204  -15.5448  -56.7376 H         1 UNK         0.0600 
    233 H233       -5.3658  -15.0189  -55.5172 H         1 UNK         0.0600 
    234 H234       -5.7318  -16.4226  -56.5194 H         1 UNK         0.0600 
    235 H235       -4.1074  -19.2305  -54.0631 H         1 UNK         0.3000 
    236 H236       -2.8968  -20.4808  -56.4483 H         1 UNK         0.0600 
    237 H237       -3.8322  -21.6105  -53.7676 H         1 UNK         0.0600 
    238 H238       -3.1515  -22.5697  -55.0752 H         1 UNK         0.0600 
    239 H239       -4.6651  -21.7185  -55.3182 H         1 UNK         0.0600 
    240 H240       -1.1480  -18.7305  -56.0133 H         1 UNK         0.3000 
    241 H241        0.6261  -19.1112  -53.8172 H         1 UNK         0.0600 
    242 H242        2.2807  -21.5439  -56.5322 H         1 UNK         0.3800 
    243 H243        0.6033  -21.0677  -56.5998 H         1 UNK         0.3800 
    244 H244        1.2439  -17.4330  -56.2813 H         1 UNK         0.0800 
    245 H245        1.8757  -17.2223  -54.6710 H         1 UNK         0.0800 
    246 H246       -0.7827  -15.0895  -52.8902 H         1 UNK         0.0800 
    247 H247        0.9280  -15.3356  -53.1337 H         1 UNK         0.0800 
@<TRIPOS>BOND
     1    1    2 1    
     2    1  127 1    
     3    1  128 1    
     4    1  129 1    
     5    2    3 2    
     6    2    4 am   BACKBONE|DICT|INTERRES
     7    4    5 1    
     8    4  130 1    
     9    5    6 1    
    10    5   65 1    
    11    5  131 1    
    12    6    7 1    
    13    6  132 1    
    14    6  133 1    
    15    7    8 1    
    16    8    9 1    
    17    8  134 1    
    18    8  135 1    
    19    9   10 ar   
    20    9   14 ar   
    21   10   11 ar   
    22   10  136 1    
    23   11   12 ar   
    24   11  126 1    
    25   12   13 ar   
    26   12  137 1    
    27   13   14 ar   
    28   13   15 1    
    29   14  138 1    
    30   15   16 1    
    31   15  139 1    
    32   15  140 1    
    33   16   17 1    
    34   17   18 1    
    35   17  141 1    
    36   17  142 1    
    37   18   19 1    
    38   18   67 1    
    39   18  143 1    
    40   19   20 am   BACKBONE|DICT|INTERRES
    41   19  144 1    
    42   20   21 2    
    43   20   22 1    
    44   22   23 1    
    45   22   24 1    
    46   22  145 1    
    47   23  146 1    
    48   23  147 1    
    49   23  148 1    
    50   24   25 am   BACKBONE|DICT|INTERRES
    51   24  149 1    
    52   25   26 2    
    53   25   27 1    
    54   27   28 1    
    55   27   29 1    
    56   27  150 1    
    57   28  151 1    
    58   28  152 1    
    59   28  153 1    
    60   29   30 am   BACKBONE|DICT|INTERRES
    61   29  154 1    
    62   30   31 2    
    63   30   32 1    
    64   32   33 1    
    65   32   34 1    
    66   32  155 1    
    67   33  156 1    
    68   33  157 1    
    69   33  158 1    
    70   34   35 am   BACKBONE|DICT|INTERRES
    71   34  159 1    
    72   35   36 2    
    73   35   37 1    
    74   37   38 1    
    75   37   39 1    
    76   37  160 1    
    77   38  161 1    
    78   38  162 1    
    79   38  163 1    
    80   39   40 am   BACKBONE|DICT|INTERRES
    81   39  164 1    
    82   40   41 2    
    83   40   42 1    
    84   42   43 1    
    85   42   44 1    
    86   42  165 1    
    87   43  166 1    
    88   43  167 1    
    89   43  168 1    
    90   44   45 am   BACKBONE|DICT|INTERRES
    91   44  169 1    
    92   45   46 2    
    93   45   47 1    
    94   47   48 1    
    95   47   49 1    
    96   47  170 1    
    97   48  171 1    
    98   48  172 1    
    99   48  173 1    
   100   49   50 am   BACKBONE|DICT|INTERRES
   101   49  174 1    
   102   50   51 2    
   103   50   52 1    
   104   52   53 1    
   105   52   54 1    
   106   52  175 1    
   107   53  176 1    
   108   53  177 1    
   109   53  178 1    
   110   54   55 am   BACKBONE|DICT|INTERRES
   111   54  179 1    
   112   55   56 2    
   113   55   57 1    
   114   57   58 1    
   115   57   59 1    
   116   57  180 1    
   117   58  181 1    
   118   58  182 1    
   119   58  183 1    
   120   59   60 am   BACKBONE|DICT|INTERRES
   121   59  184 1    
   122   60   61 2    
   123   60   62 1    
   124   62   63 1    
   125   62   64 1    
   126   62  185 1    
   127   63  186 1    
   128   63  187 1    
   129   63  188 1    
   130   64   65 am   BACKBONE|DICT|INTERRES
   131   64  189 1    
   132   65   66 2    
   133   67   68 2    
   134   67   69 am   BACKBONE|DICT|INTERRES
   135   69   70 1    
   136   69  190 1    
   137   70   71 1    
   138   70   72 1    
   139   70  191 1    
   140   71  192 1    
   141   71  193 1    
   142   71  194 1    
   143   72   73 2    
   144   72   74 am   BACKBONE|DICT|INTERRES
   145   74   75 1    
   146   74  195 1    
   147   75   76 1    
   148   75   77 1    
   149   75  196 1    
   150   76  197 1    
   151   76  198 1    
   152   76  199 1    
   153   77   78 2    
   154   77   79 am   BACKBONE|DICT|INTERRES
   155   79   80 1    
   156   79  200 1    
   157   80   81 1    
   158   80   82 1    
   159   80  201 1    
   160   81  202 1    
   161   81  203 1    
   162   81  204 1    
   163   82   83 2    
   164   82   84 am   BACKBONE|DICT|INTERRES
   165   84   85 1    
   166   84  205 1    
   167   85   86 1    
   168   85   87 1    
   169   85  206 1    
   170   86  207 1    
   171   86  208 1    
   172   86  209 1    
   173   87   88 2    
   174   87   89 am   BACKBONE|DICT|INTERRES
   175   89   90 1    
   176   89  210 1    
   177   90   91 1    
   178   90   92 1    
   179   90  211 1    
   180   91  212 1    
   181   91  213 1    
   182   91  214 1    
   183   92   93 2    
   184   92   94 am   BACKBONE|DICT|INTERRES
   185   94   95 1    
   186   94  215 1    
   187   95   96 1    
   188   95   97 1    
   189   95  216 1    
   190   96  217 1    
   191   96  218 1    
   192   96  219 1    
   193   97   98 2    
   194   97   99 am   BACKBONE|DICT|INTERRES
   195   99  100 1    
   196   99  220 1    
   197  100  101 1    
   198  100  102 1    
   199  100  221 1    
   200  101  222 1    
   201  101  223 1    
   202  101  224 1    
   203  102  103 2    
   204  102  104 am   BACKBONE|DICT|INTERRES
   205  104  105 1    
   206  104  225 1    
   207  105  106 1    
   208  105  107 1    
   209  105  226 1    
   210  106  227 1    
   211  106  228 1    
   212  106  229 1    
   213  107  108 2    
   214  107  109 am   BACKBONE|DICT|INTERRES
   215  109  110 1    
   216  109  230 1    
   217  110  111 1    
   218  110  112 1    
   219  110  231 1    
   220  111  232 1    
   221  111  233 1    
   222  111  234 1    
   223  112  113 2    
   224  112  114 am   BACKBONE|DICT|INTERRES
   225  114  115 1    
   226  114  235 1    
   227  115  116 1    
   228  115  117 1    
   229  115  236 1    
   230  116  237 1    
   231  116  238 1    
   232  116  239 1    
   233  117  118 2    
   234  117  119 am   BACKBONE|DICT|INTERRES
   235  119  120 1    
   236  119  240 1    
   237  120  121 1    
   238  120  124 1    
   239  120  241 1    
   240  121  122 am   BACKBONE|DICT|INTERRES
   241  121  123 2    
   242  122  242 1    
   243  122  243 1    
   244  124  125 1    
   245  124  244 1    
   246  124  245 1    
   247  125  126 1    
   248  126  246 1    
   249  126  247 1    
@<TRIPOS>SUBSTRUCTURE
     1 UNK         1 GROUP             0       ****    0 ROOT    
