@<TRIPOS>MOLECULE
3R540
247   249    1
SMALL
USER_CHARGES


@<TRIPOS>ATOM
      1 CA          4.4532  -15.9875  -44.0776 C.3       0 UNK        -0.1800 
      2 C           3.9998  -14.8296  -44.9545 C.2       0 UNK         0.5000 
      3 O           3.6738  -13.7638  -44.4309 O.2       0 UNK        -0.5000 
      4 N           3.9651  -15.0411  -46.2784 N.am      1 UNK        -0.5000 
      5 CA          3.5232  -14.0886  -47.3067 C.3       1 UNK         0.1400 
      6 C6          3.6685  -14.6644  -48.7348 C.3       23 UNK        -0.0398 
      7 S7          2.5633  -16.0876  -49.0246 S.3       23 UNK        -0.2404 
      8 C8          1.2695  -15.3062  -50.0396 C.3       23 UNK        -0.0205 
      9 C9          0.2813  -16.3336  -50.5669 C.ar      23 UNK        -0.0193 
     10 C10         0.5548  -17.0237  -51.7525 C.ar      23 UNK        -0.1150 
     11 C11        -0.3327  -17.9842  -52.2487 C.ar      23 UNK        -0.0193 
     12 C12        -1.5202  -18.2271  -51.5473 C.ar      23 UNK        -0.1150 
     13 C13        -1.7957  -17.5599  -50.3514 C.ar      23 UNK        -0.0193 
     14 C14        -0.8970  -16.6067  -49.8673 C.ar      23 UNK        -0.1150 
     15 C15        -3.0348  -17.9349  -49.5550 C.3       23 UNK        -0.0205 
     16 S16        -2.6861  -19.1683  -48.2537 S.3       23 UNK        -0.2404 
     17 C17        -1.4100  -20.2380  -49.0051 C.3       23 UNK        -0.0398 
     18 CA         -0.9515  -21.4342  -48.1463 C.3       11 UNK         0.1400 
     19 N          -0.3373  -21.0512  -46.8704 N.am      11 UNK        -0.5000 
     20 C           0.4886  -21.8622  -46.1924 C.2       10 UNK         0.5000 
     21 O           0.7831  -22.9952  -46.5705 O.2       10 UNK        -0.5000 
     22 CA          1.0443  -21.3623  -44.8496 C.3       10 UNK         0.1400 
     23 CB          2.1333  -20.2978  -45.0550 C.3       10 UNK        -0.1800 
     24 N           0.0001  -20.8500  -43.9681 N.am      10 UNK        -0.5000 
     25 C          -1.0243  -21.5718  -43.4921 C.2       9 UNK         0.5000 
     26 O          -1.1941  -22.7677  -43.7316 O.2       9 UNK        -0.5000 
     27 CA         -2.0509  -20.8166  -42.6313 C.3       9 UNK         0.1400 
     28 CB         -1.5729  -20.7018  -41.1758 C.3       9 UNK        -0.1800 
     29 N          -2.3286  -19.4832  -43.1635 N.am      9 UNK        -0.5000 
     30 C          -3.0026  -19.2538  -44.2985 C.2       8 UNK         0.5000 
     31 O          -3.5044  -20.1424  -44.9857 O.2       8 UNK        -0.5000 
     32 CA         -3.1061  -17.7869  -44.7511 C.3       8 UNK         0.1400 
     33 CB         -4.2401  -17.0678  -44.0056 C.3       8 UNK        -0.1800 
     34 N          -1.8592  -17.0459  -44.5634 N.am      8 UNK        -0.5000 
     35 C          -0.7099  -17.3009  -45.2088 C.2       7 UNK         0.5000 
     36 O          -0.5584  -18.2079  -46.0249 O.2       7 UNK        -0.5000 
     37 CA          0.4916  -16.4137  -44.8352 C.3       7 UNK         0.1400 
     38 CB          0.3532  -15.0549  -45.5391 C.3       7 UNK        -0.1800 
     39 N           0.6175  -16.1898  -43.3931 N.am      7 UNK        -0.5000 
     40 C           0.6036  -17.1375  -42.4416 C.2       6 UNK         0.5000 
     41 O           0.6141  -18.3437  -42.6832 O.2       6 UNK        -0.5000 
     42 CA          0.5107  -16.6784  -40.9718 C.3       6 UNK         0.1400 
     43 CB          1.8596  -16.8849  -40.2665 C.3       6 UNK        -0.1800 
     44 N           0.0963  -15.2849  -40.7943 N.am      6 UNK        -0.5000 
     45 C          -1.0358  -14.7135  -41.2347 C.2       5 UNK         0.5000 
     46 O          -1.9410  -15.3339  -41.7946 O.2       5 UNK        -0.5000 
     47 CA         -1.1438  -13.1807  -41.0743 C.3       5 UNK         0.1400 
     48 CB         -2.1243  -12.8264  -39.9463 C.3       5 UNK        -0.1800 
     49 N           0.1440  -12.5223  -40.8122 N.am      5 UNK        -0.5000 
     50 C           1.1834  -12.4891  -41.6589 C.2       4 UNK         0.5000 
     51 O           1.1468  -12.9546  -42.7999 O.2       4 UNK        -0.5000 
     52 CA          2.4898  -11.9100  -41.0956 C.3       4 UNK         0.1400 
     53 CB          3.0480  -12.8189  -39.9795 C.3       4 UNK        -0.1800 
     54 N           3.4863  -11.7711  -42.1550 N.am      4 UNK        -0.5000 
     55 C           4.5824  -11.0046  -42.0736 C.2       3 UNK         0.5000 
     56 O           4.8384  -10.2836  -41.1079 O.2       3 UNK        -0.5000 
     57 CA          5.5590  -11.0347  -43.2592 C.3       3 UNK         0.1400 
     58 CB          6.5082  -12.2386  -43.1456 C.3       3 UNK        -0.1800 
     59 N           4.8446  -11.0971  -44.5324 N.am      3 UNK        -0.5000 
     60 C           4.6856  -10.0640  -45.3705 C.2       2 UNK         0.5000 
     61 O           5.1471   -8.9422  -45.1531 O.2       2 UNK        -0.5000 
     62 CA          3.8550  -10.2913  -46.6540 C.3       2 UNK         0.1400 
     63 CB          4.5316   -9.6855  -47.9018 C.3       2 UNK        -0.1800 
     64 N           3.4582  -11.6848  -46.8915 N.am      2 UNK        -0.5000 
     65 C           4.2433  -12.7299  -47.1919 C.2       1 UNK         0.5000 
     66 O           5.4643  -12.6696  -47.3478 O.2       1 UNK        -0.5000 
     67 C          -2.0388  -22.5149  -47.9959 C.2       11 UNK         0.5000 
     68 O          -2.1651  -23.3517  -48.8893 O.2       11 UNK        -0.5000 
     69 N          -2.7625  -22.5358  -46.8671 N.am      12 UNK        -0.5000 
     70 CA         -3.7073  -23.6065  -46.5357 C.3       12 UNK         0.1400 
     71 CB         -4.5126  -23.2261  -45.2857 C.3       12 UNK        -0.1800 
     72 C          -3.0236  -24.9755  -46.3534 C.2       12 UNK         0.5000 
     73 O          -3.6241  -25.9970  -46.6829 O.2       12 UNK        -0.5000 
     74 N          -1.7767  -24.9757  -45.8652 N.am      13 UNK        -0.5000 
     75 CA         -0.9360  -26.1653  -45.7780 C.3       13 UNK         0.1400 
     76 CB          0.1308  -25.9610  -44.6902 C.3       13 UNK        -0.1800 
     77 C          -0.2915  -26.5079  -47.1341 C.2       13 UNK         0.5000 
     78 O          -0.4066  -27.6456  -47.5905 O.2       13 UNK        -0.5000 
     79 N           0.3922  -25.5285  -47.7417 N.am      14 UNK        -0.5000 
     80 CA          1.2460  -25.7226  -48.9145 C.3       14 UNK         0.1400 
     81 CB          2.2195  -24.5398  -49.0355 C.3       14 UNK        -0.1800 
     82 C           0.4775  -25.9166  -50.2321 C.2       14 UNK         0.5000 
     83 O           0.8556  -26.7803  -51.0247 O.2       14 UNK        -0.5000 
     84 N          -0.5642  -25.1058  -50.4570 N.am      15 UNK        -0.5000 
     85 CA         -1.3450  -25.0877  -51.6978 C.3       15 UNK         0.1400 
     86 CB         -1.5730  -23.6260  -52.1229 C.3       15 UNK        -0.1800 
     87 C          -2.6819  -25.8392  -51.5572 C.2       15 UNK         0.5000 
     88 O          -3.4024  -25.9682  -52.5472 O.2       15 UNK        -0.5000 
     89 N          -2.9975  -26.3108  -50.3412 N.am      16 UNK        -0.5000 
     90 CA         -4.1782  -27.0749  -49.9161 C.3       16 UNK         0.1400 
     91 CB         -4.3032  -28.4037  -50.6864 C.3       16 UNK        -0.1800 
     92 C          -5.4939  -26.2743  -49.9566 C.2       16 UNK         0.5000 
     93 O          -6.1902  -26.1976  -48.9445 O.2       16 UNK        -0.5000 
     94 N          -5.8063  -25.6823  -51.1146 N.am      17 UNK        -0.5000 
     95 CA         -6.9919  -24.8546  -51.3471 C.3       17 UNK         0.1400 
     96 CB         -7.5297  -25.1373  -52.7588 C.3       17 UNK        -0.1800 
     97 C          -6.7103  -23.3524  -51.1406 C.2       17 UNK         0.5000 
     98 O          -7.6098  -22.5384  -51.3549 O.2       17 UNK        -0.5000 
     99 N          -5.4804  -23.0045  -50.7292 N.am      18 UNK        -0.5000 
    100 CA        -5.0068  -21.6542  -50.4188 C.3       18 UNK         0.1400 
    101 CB        -5.6869  -21.1403  -49.1273 C.3       18 UNK        -0.1800 
    102 C         -5.1465  -20.7071  -51.6283 C.2       18 UNK         0.5000 
    103 O         -4.5746  -20.9811  -52.6857 O.2       18 UNK        -0.5000 
    104 N         -5.9195  -19.6256  -51.4705 N.am      19 UNK        -0.5000 
    105 CA        -6.1833  -18.6233  -52.5017 C.3       19 UNK         0.1400 
    106 CB        -6.9627  -17.4565  -51.8786 C.3       19 UNK        -0.1800 
    107 C         -6.9252  -19.1782  -53.7324 C.2       19 UNK         0.5000 
    108 O         -6.7468  -18.6434  -54.8257 O.2       19 UNK        -0.5000 
    109 N         -7.7091  -20.2529  -53.5593 N.am      20 UNK        -0.5000 
    110 CA        -8.4020  -20.9308  -54.6572 C.3       20 UNK         0.1400 
    111 CB        -9.5411  -21.7939  -54.0965 C.3       20 UNK        -0.1800 
    112 C         -7.4540  -21.7640  -55.5432 C.2       20 UNK         0.5000 
    113 O         -7.7869  -22.0109  -56.7030 O.2       20 UNK        -0.5000 
    114 N         -6.2921  -22.1624  -55.0041 N.am      21 UNK        -0.5000 
    115 CA        -5.2157  -22.7943  -55.7657 C.3       21 UNK         0.1400 
    116 CB        -4.3907  -23.7180  -54.8550 C.3       21 UNK        -0.1800 
    117 C         -4.3208  -21.7383  -56.4342 C.2       21 UNK         0.5000 
    118 O         -4.0147  -21.8691  -57.6203 O.2       21 UNK        -0.5000 
    119 N         -3.9172  -20.7178  -55.6656 N.am      22 UNK        -0.5000 
    120 CA        -3.0360  -19.6349  -56.1349 C.3       22 UNK         0.1400 
    121 C         -3.7039  -18.6197  -57.1060 C.2       22 UNK         0.5000 
    122 N         -5.0093  -18.3943  -57.0502 N.am      22 UNK        -0.7600 
    123 O         -3.0202  -18.0300  -57.9384 O.2       22 UNK        -0.5000 
    124 C124       -2.3494  -18.9055  -54.9557 C.3       23 UNK        -0.0398 
    125 S125       -1.1457  -19.9880  -54.1137 S.3       23 UNK        -0.2404 
    126 C126        0.0672  -18.7616  -53.5060 C.3       23 UNK        -0.0205 
    127 H127        4.6403  -16.8895  -44.6606 H         1 UNK         0.0600 
    128 H128        5.3701  -15.7226  -43.5515 H         1 UNK         0.0600 
    129 H129        3.6874  -16.2156  -43.3363 H         1 UNK         0.0600 
    130 H130        4.2580  -15.9391  -46.6347 H         1 UNK         0.3000 
    131 H131        2.4607  -13.9115  -47.1374 H         1 UNK         0.0600 
    132 H132        4.6966  -14.9845  -48.9132 H         1 UNK         0.0800 
    133 H133        3.4621  -13.8982  -49.4845 H         1 UNK         0.0800 
    134 H134        1.7276  -14.7811  -50.8793 H         1 UNK         0.0800 
    135 H135        0.7506  -14.5508  -49.4472 H         1 UNK         0.0800 
    136 H136        1.4781  -16.8272  -52.2797 H         1 UNK         0.1150 
    137 H137       -2.2203  -18.9743  -51.8895 H         1 UNK         0.1150 
    138 H138       -1.1012  -16.1017  -48.9335 H         1 UNK         0.1150 
    139 H139       -3.4629  -17.0444  -49.0928 H         1 UNK         0.0800 
    140 H140       -3.8022  -18.3266  -50.2213 H         1 UNK         0.0800 
    141 H141       -0.5333  -19.6228  -49.2119 H         1 UNK         0.0800 
    142 H142       -1.7667  -20.5885  -49.9748 H         1 UNK         0.0800 
    143 H143       -0.1609  -21.9107  -48.7308 H         1 UNK         0.0600 
    144 H144       -0.5404  -20.1181  -46.5190 H         1 UNK         0.3000 
    145 H145        1.5036  -22.2156  -44.3463 H         1 UNK         0.0600 
    146 H146        2.5640  -19.9858  -44.1033 H         1 UNK         0.0600 
    147 H147        2.9463  -20.6872  -45.6687 H         1 UNK         0.0600 
    148 H148        1.7461  -19.4093  -45.5522 H         1 UNK         0.0600 
    149 H149        0.0862  -19.8794  -43.6789 H         1 UNK         0.3000 
    150 H150       -2.9807  -21.3894  -42.6386 H         1 UNK         0.0600 
    151 H151       -1.3932  -21.6888  -40.7478 H         1 UNK         0.0600 
    152 H152       -2.3197  -20.2089  -40.5532 H         1 UNK         0.0600 
    153 H153       -0.6436  -20.1371  -41.0958 H         1 UNK         0.0600 
    154 H154       -1.9050  -18.7017  -42.6859 H         1 UNK         0.3000 
    155 H155       -3.3455  -17.7779  -45.8148 H         1 UNK         0.0600 
    156 H156       -4.0463  -17.0112  -42.9336 H         1 UNK         0.0600 
    157 H157       -5.1886  -17.5890  -44.1420 H         1 UNK         0.0600 
    158 H158       -4.3719  -16.0510  -44.3756 H         1 UNK         0.0600 
    159 H159       -1.8707  -16.3116  -43.8664 H         1 UNK         0.3000 
    160 H160        1.4055  -16.9014  -45.1791 H         1 UNK         0.0600 
    161 H161        1.1508  -14.3727  -45.2524 H         1 UNK         0.0600 
    162 H162       -0.5896  -14.5652  -45.2916 H         1 UNK         0.0600 
    163 H163        0.3881  -15.1736  -46.6228 H         1 UNK         0.0600 
    164 H164        0.6418  -15.2219  -43.0982 H         1 UNK         0.3000 
    165 H165       -0.2358  -17.3083  -40.4841 H         1 UNK         0.0600 
    166 H166        1.7953  -16.6363  -39.2070 H         1 UNK         0.0600 
    167 H167        2.1816  -17.9250  -40.3351 H         1 UNK         0.0600 
    168 H168        2.6432  -16.2698  -40.7107 H         1 UNK         0.0600 
    169 H169        0.7680  -14.6817  -40.3451 H         1 UNK         0.3000 
    170 H170       -1.5395  -12.7848  -42.0118 H         1 UNK         0.0600 
    171 H171       -3.1032  -13.2741  -40.1239 H         1 UNK         0.0600 
    172 H172       -1.7707  -13.1840  -38.9784 H         1 UNK         0.0600 
    173 H173       -2.2708  -11.7485  -39.8743 H         1 UNK         0.0600 
    174 H174        0.2531  -12.1157  -39.8939 H         1 UNK         0.3000 
    175 H175        2.2642  -10.9230  -40.6867 H         1 UNK         0.0600 
    176 H176        3.3002  -13.8089  -40.3614 H         1 UNK         0.0600 
    177 H177        3.9492  -12.3975  -39.5344 H         1 UNK         0.0600 
    178 H178        2.3303  -12.9501  -39.1691 H         1 UNK         0.0600 
    179 H179        3.3181  -12.3447  -42.9780 H         1 UNK         0.3000 
    180 H180        6.1692  -10.1305  -43.2094 H         1 UNK         0.0600 
    181 H181        5.9668  -13.1843  -43.1265 H         1 UNK         0.0600 
    182 H182        7.0980  -12.1825  -42.2300 H         1 UNK         0.0600 
    183 H183        7.2066  -12.2695  -43.9821 H         1 UNK         0.0600 
    184 H184        4.4109  -11.9876  -44.7565 H         1 UNK         0.3000 
    185 H185        2.9232   -9.7463  -46.4968 H         1 UNK         0.0600 
    186 H186        4.6654   -8.6089  -47.7903 H         1 UNK         0.0600 
    187 H187        5.5169  -10.1164  -48.0806 H         1 UNK         0.0600 
    188 H188        3.9276   -9.8437  -48.7952 H         1 UNK         0.0600 
    189 H189        2.4740  -11.8657  -46.7488 H         1 UNK         0.3000 
    190 H190       -2.6521  -21.7916  -46.1879 H         1 UNK         0.3000 
    191 H191       -4.4056  -23.7082  -47.3688 H         1 UNK         0.0600 
    192 H192       -3.8651  -23.0602  -44.4247 H         1 UNK         0.0600 
    193 H193       -5.2185  -24.0140  -45.0203 H         1 UNK         0.0600 
    194 H194       -5.0904  -22.3171  -45.4528 H         1 UNK         0.0600 
    195 H195       -1.3641  -24.0982  -45.5733 H         1 UNK         0.3000 
    196 H196       -1.5532  -27.0145  -45.4766 H         1 UNK         0.0600 
    197 H197        0.7684  -26.8410  -44.5986 H         1 UNK         0.0600 
    198 H198       -0.3305  -25.7899  -43.7173 H         1 UNK         0.0600 
    199 H199        0.7758  -25.1085  -44.9039 H         1 UNK         0.0600 
    200 H200        0.4513  -24.6171  -47.2903 H         1 UNK         0.3000 
    201 H201        1.8417  -26.6229  -48.7484 H         1 UNK         0.0600 
    202 H202        2.8308  -24.4392  -48.1385 H         1 UNK         0.0600 
    203 H203        1.6923  -23.5974  -49.1874 H         1 UNK         0.0600 
    204 H204        2.8986  -24.6758  -49.8782 H         1 UNK         0.0600 
    205 H205       -0.8616  -24.4487  -49.7413 H         1 UNK         0.3000 
    206 H206       -0.7860  -25.5767  -52.4980 H         1 UNK         0.0600 
    207 H207       -0.6448  -23.0548  -52.1018 H         1 UNK         0.0600 
    208 H208       -1.9520  -23.5765  -53.1430 H         1 UNK         0.0600 
    209 H209       -2.2937  -23.1174  -51.4836 H         1 UNK         0.0600 
    210 H210       -2.3395  -26.1080  -49.6019 H         1 UNK         0.3000 
    211 H211       -3.9993  -27.3344  -48.8727 H         1 UNK         0.0600 
    212 H212       -4.5024  -28.2497  -51.7471 H         1 UNK         0.0600 
    213 H213       -5.1206  -29.0060  -50.2882 H         1 UNK         0.0600 
    214 H214       -3.3918  -28.9953  -50.5992 H         1 UNK         0.0600 
    215 H215       -5.1456  -25.7780  -51.8828 H         1 UNK         0.3000 
    216 H216       -7.7729  -25.1335  -50.6370 H         1 UNK         0.0600 
    217 H217       -8.5305  -24.7243  -52.8801 H         1 UNK         0.0600 
    218 H218       -7.6021  -26.2079  -52.9505 H         1 UNK         0.0600 
    219 H219       -6.9002  -24.6982  -53.5302 H         1 UNK         0.0600 
    220 H220       -4.8049  -23.7448  -50.6104 H         1 UNK         0.3000 
    221 H221       -3.9382  -21.7319  -50.2238 H         1 UNK         0.0600 
    222 H222       -6.7722  -21.0932  -49.2201 H         1 UNK         0.0600 
    223 H223       -5.4611  -21.7915  -48.2842 H         1 UNK         0.0600 
    224 H224       -5.3379  -20.1448  -48.8558 H         1 UNK         0.0600 
    225 H225       -6.3849  -19.4940  -50.5843 H         1 UNK         0.3000 
    226 H226       -5.2200  -18.2426  -52.8473 H         1 UNK         0.0600 
    227 H227       -7.9277  -17.7809  -51.4872 H         1 UNK         0.0600 
    228 H228       -6.4036  -17.0000  -51.0616 H         1 UNK         0.0600 
    229 H229       -7.1530  -16.6757  -52.6163 H         1 UNK         0.0600 
    230 H230       -7.7801  -20.6773  -52.6421 H         1 UNK         0.3000 
    231 H231       -8.8533  -20.1693  -55.2971 H         1 UNK         0.0600 
    232 H232      -10.2443  -21.1931  -53.5198 H         1 UNK         0.0600 
    233 H233       -9.1673  -22.5844  -53.4493 H         1 UNK         0.0600 
    234 H234      -10.1031  -22.2692  -54.9015 H         1 UNK         0.0600 
    235 H235       -6.0707  -21.8784  -54.0587 H         1 UNK         0.3000 
    236 H236       -5.6410  -23.4136  -56.5585 H         1 UNK         0.0600 
    237 H237       -3.4652  -24.0298  -55.3408 H         1 UNK         0.0600 
    238 H238       -4.1219  -23.2330  -53.9179 H         1 UNK         0.0600 
    239 H239       -4.9378  -24.6277  -54.6142 H         1 UNK         0.0600 
    240 H240       -4.1694  -20.7080  -54.6835 H         1 UNK         0.3000 
    241 H241       -2.2427  -20.1047  -56.7207 H         1 UNK         0.0600 
    242 H242       -5.4189  -17.7397  -57.6969 H         1 UNK         0.3800 
    243 H243       -5.5845  -18.7724  -56.3029 H         1 UNK         0.3800 
    244 H244       -1.8226  -18.0175  -55.3096 H         1 UNK         0.0800 
    245 H245       -3.0885  -18.5560  -54.2335 H         1 UNK         0.0800 
    246 H246        0.9911  -19.2982  -53.2862 H         1 UNK         0.0800 
    247 H247        0.3080  -18.0610  -54.3067 H         1 UNK         0.0800 
@<TRIPOS>BOND
     1    1    2 1    
     2    1  127 1    
     3    1  128 1    
     4    1  129 1    
     5    2    3 2    
     6    2    4 am   BACKBONE|DICT|INTERRES
     7    4    5 1    
     8    4  130 1    
     9    5    6 1    
    10    5   65 1    
    11    5  131 1    
    12    6    7 1    
    13    6  132 1    
    14    6  133 1    
    15    7    8 1    
    16    8    9 1    
    17    8  134 1    
    18    8  135 1    
    19    9   10 ar   
    20    9   14 ar   
    21   10   11 ar   
    22   10  136 1    
    23   11   12 ar   
    24   11  126 1    
    25   12   13 ar   
    26   12  137 1    
    27   13   14 ar   
    28   13   15 1    
    29   14  138 1    
    30   15   16 1    
    31   15  139 1    
    32   15  140 1    
    33   16   17 1    
    34   17   18 1    
    35   17  141 1    
    36   17  142 1    
    37   18   19 1    
    38   18   67 1    
    39   18  143 1    
    40   19   20 am   BACKBONE|DICT|INTERRES
    41   19  144 1    
    42   20   21 2    
    43   20   22 1    
    44   22   23 1    
    45   22   24 1    
    46   22  145 1    
    47   23  146 1    
    48   23  147 1    
    49   23  148 1    
    50   24   25 am   BACKBONE|DICT|INTERRES
    51   24  149 1    
    52   25   26 2    
    53   25   27 1    
    54   27   28 1    
    55   27   29 1    
    56   27  150 1    
    57   28  151 1    
    58   28  152 1    
    59   28  153 1    
    60   29   30 am   BACKBONE|DICT|INTERRES
    61   29  154 1    
    62   30   31 2    
    63   30   32 1    
    64   32   33 1    
    65   32   34 1    
    66   32  155 1    
    67   33  156 1    
    68   33  157 1    
    69   33  158 1    
    70   34   35 am   BACKBONE|DICT|INTERRES
    71   34  159 1    
    72   35   36 2    
    73   35   37 1    
    74   37   38 1    
    75   37   39 1    
    76   37  160 1    
    77   38  161 1    
    78   38  162 1    
    79   38  163 1    
    80   39   40 am   BACKBONE|DICT|INTERRES
    81   39  164 1    
    82   40   41 2    
    83   40   42 1    
    84   42   43 1    
    85   42   44 1    
    86   42  165 1    
    87   43  166 1    
    88   43  167 1    
    89   43  168 1    
    90   44   45 am   BACKBONE|DICT|INTERRES
    91   44  169 1    
    92   45   46 2    
    93   45   47 1    
    94   47   48 1    
    95   47   49 1    
    96   47  170 1    
    97   48  171 1    
    98   48  172 1    
    99   48  173 1    
   100   49   50 am   BACKBONE|DICT|INTERRES
   101   49  174 1    
   102   50   51 2    
   103   50   52 1    
   104   52   53 1    
   105   52   54 1    
   106   52  175 1    
   107   53  176 1    
   108   53  177 1    
   109   53  178 1    
   110   54   55 am   BACKBONE|DICT|INTERRES
   111   54  179 1    
   112   55   56 2    
   113   55   57 1    
   114   57   58 1    
   115   57   59 1    
   116   57  180 1    
   117   58  181 1    
   118   58  182 1    
   119   58  183 1    
   120   59   60 am   BACKBONE|DICT|INTERRES
   121   59  184 1    
   122   60   61 2    
   123   60   62 1    
   124   62   63 1    
   125   62   64 1    
   126   62  185 1    
   127   63  186 1    
   128   63  187 1    
   129   63  188 1    
   130   64   65 am   BACKBONE|DICT|INTERRES
   131   64  189 1    
   132   65   66 2    
   133   67   68 2    
   134   67   69 am   BACKBONE|DICT|INTERRES
   135   69   70 1    
   136   69  190 1    
   137   70   71 1    
   138   70   72 1    
   139   70  191 1    
   140   71  192 1    
   141   71  193 1    
   142   71  194 1    
   143   72   73 2    
   144   72   74 am   BACKBONE|DICT|INTERRES
   145   74   75 1    
   146   74  195 1    
   147   75   76 1    
   148   75   77 1    
   149   75  196 1    
   150   76  197 1    
   151   76  198 1    
   152   76  199 1    
   153   77   78 2    
   154   77   79 am   BACKBONE|DICT|INTERRES
   155   79   80 1    
   156   79  200 1    
   157   80   81 1    
   158   80   82 1    
   159   80  201 1    
   160   81  202 1    
   161   81  203 1    
   162   81  204 1    
   163   82   83 2    
   164   82   84 am   BACKBONE|DICT|INTERRES
   165   84   85 1    
   166   84  205 1    
   167   85   86 1    
   168   85   87 1    
   169   85  206 1    
   170   86  207 1    
   171   86  208 1    
   172   86  209 1    
   173   87   88 2    
   174   87   89 am   BACKBONE|DICT|INTERRES
   175   89   90 1    
   176   89  210 1    
   177   90   91 1    
   178   90   92 1    
   179   90  211 1    
   180   91  212 1    
   181   91  213 1    
   182   91  214 1    
   183   92   93 2    
   184   92   94 am   BACKBONE|DICT|INTERRES
   185   94   95 1    
   186   94  215 1    
   187   95   96 1    
   188   95   97 1    
   189   95  216 1    
   190   96  217 1    
   191   96  218 1    
   192   96  219 1    
   193   97   98 2    
   194   97   99 am   BACKBONE|DICT|INTERRES
   195   99  100 1    
   196   99  220 1    
   197  100  101 1    
   198  100  102 1    
   199  100  221 1    
   200  101  222 1    
   201  101  223 1    
   202  101  224 1    
   203  102  103 2    
   204  102  104 am   BACKBONE|DICT|INTERRES
   205  104  105 1    
   206  104  225 1    
   207  105  106 1    
   208  105  107 1    
   209  105  226 1    
   210  106  227 1    
   211  106  228 1    
   212  106  229 1    
   213  107  108 2    
   214  107  109 am   BACKBONE|DICT|INTERRES
   215  109  110 1    
   216  109  230 1    
   217  110  111 1    
   218  110  112 1    
   219  110  231 1    
   220  111  232 1    
   221  111  233 1    
   222  111  234 1    
   223  112  113 2    
   224  112  114 am   BACKBONE|DICT|INTERRES
   225  114  115 1    
   226  114  235 1    
   227  115  116 1    
   228  115  117 1    
   229  115  236 1    
   230  116  237 1    
   231  116  238 1    
   232  116  239 1    
   233  117  118 2    
   234  117  119 am   BACKBONE|DICT|INTERRES
   235  119  120 1    
   236  119  240 1    
   237  120  121 1    
   238  120  124 1    
   239  120  241 1    
   240  121  122 am   BACKBONE|DICT|INTERRES
   241  121  123 2    
   242  122  242 1    
   243  122  243 1    
   244  124  125 1    
   245  124  244 1    
   246  124  245 1    
   247  125  126 1    
   248  126  246 1    
   249  126  247 1    
@<TRIPOS>SUBSTRUCTURE
     1 UNK         1 GROUP             0       ****    0 ROOT    
