@<TRIPOS>MOLECULE
3R540
247   249    1
SMALL
USER_CHARGES


@<TRIPOS>ATOM
      1 CA         -3.9508  -14.9026  -49.1968 C.3       0 UNK        -0.1800 
      2 C          -2.4989  -14.4589  -49.0869 C.2       0 UNK         0.5000 
      3 O          -2.2202  -13.2626  -49.1549 O.2       0 UNK        -0.5000 
      4 N          -1.5754  -15.4176  -48.9370 N.am      1 UNK        -0.5000 
      5 CA         -0.1320  -15.1797  -48.8072 C.3       1 UNK         0.1400 
      6 C6          0.6561  -16.4955  -49.0239 C.3       23 UNK        -0.0398 
      7 S7          2.4709  -16.3080  -49.0599 S.3       23 UNK        -0.2404 
      8 C8          2.8643  -16.5766  -50.8208 C.3       23 UNK        -0.0205 
      9 C9          2.7214  -18.0262  -51.2803 C.ar      23 UNK        -0.0193 
     10 C10         2.0771  -18.3166  -52.4894 C.ar      23 UNK        -0.1150 
     11 C11         2.0303  -19.6271  -52.9773 C.ar      23 UNK        -0.0193 
     12 C12         2.6230  -20.6530  -52.2368 C.ar      23 UNK        -0.1150 
     13 C13         3.2594  -20.3830  -51.0222 C.ar      23 UNK        -0.0193 
     14 C14         3.3048  -19.0684  -50.5493 C.ar      23 UNK        -0.1150 
     15 C15         3.9539  -21.5068  -50.2666 C.3       23 UNK        -0.0205 
     16 S16         2.7699  -22.7021  -49.5726 S.3       23 UNK        -0.2404 
     17 C17         2.6278  -22.1558  -47.8369 C.3       23 UNK        -0.0398 
     18 CA          2.0224  -23.2701  -46.9446 C.3       11 UNK         0.1400 
     19 N           2.3041  -23.0642  -45.5249 N.am      11 UNK        -0.5000 
     20 C           2.5597  -24.0511  -44.6547 C.2       10 UNK         0.5000 
     21 O           2.7173  -25.2285  -44.9792 O.2       10 UNK        -0.5000 
     22 CA          2.6339  -23.6704  -43.1620 C.3       10 UNK         0.1400 
     23 CB          4.0832  -23.3604  -42.7580 C.3       10 UNK        -0.1800 
     24 N           1.7841  -22.5356  -42.7956 N.am      10 UNK        -0.5000 
     25 C           0.4486  -22.5029  -42.9060 C.2       9 UNK         0.5000 
     26 O          -0.2301  -23.4398  -43.3260 O.2       9 UNK        -0.5000 
     27 CA         -0.2415  -21.1786  -42.5308 C.3       9 UNK         0.1400 
     28 CB         -0.5426  -21.1492  -41.0256 C.3       9 UNK        -0.1800 
     29 N           0.4952  -19.9631  -42.9032 N.am      9 UNK        -0.5000 
     30 C           1.0341  -19.6772  -44.1000 C.2       8 UNK         0.5000 
     31 O           1.0490  -20.4666  -45.0466 O.2       8 UNK        -0.5000 
     32 CA          1.6636  -18.2819  -44.2821 C.3       8 UNK         0.1400 
     33 CB          1.3934  -17.7290  -45.6897 C.3       8 UNK        -0.1800 
     34 N           1.1744  -17.3148  -43.2990 N.am      8 UNK        -0.5000 
     35 C           1.7870  -16.9928  -42.1529 C.2       7 UNK         0.5000 
     36 O           2.8493  -17.4912  -41.7817 O.2       7 UNK        -0.5000 
     37 CA          1.0836  -15.9508  -41.2625 C.3       7 UNK         0.1400 
     38 CB          1.7055  -14.5613  -41.4620 C.3       7 UNK        -0.1800 
     39 N          -0.3621  -15.8818  -41.5040 N.am      7 UNK        -0.5000 
     40 C          -1.2389  -16.7768  -41.0271 C.2       6 UNK         0.5000 
     41 O          -0.9211  -17.7241  -40.3091 O.2       6 UNK        -0.5000 
     42 CA         -2.7071  -16.5997  -41.4470 C.3       6 UNK         0.1400 
     43 CB         -3.3944  -15.5218  -40.5950 C.3       6 UNK        -0.1800 
     44 N          -2.8348  -16.2700  -42.8685 N.am      6 UNK        -0.5000 
     45 C          -2.7282  -17.1722  -43.8562 C.2       5 UNK         0.5000 
     46 O          -2.4743  -18.3592  -43.6512 O.2       5 UNK        -0.5000 
     47 CA         -2.8904  -16.6980  -45.3157 C.3       5 UNK         0.1400 
     48 CB         -3.9859  -17.4852  -46.0641 C.3       5 UNK        -0.1800 
     49 N          -3.0566  -15.2496  -45.4805 N.am      5 UNK        -0.5000 
     50 C          -4.1311  -14.4987  -45.2010 C.2       4 UNK         0.5000 
     51 O          -5.1794  -14.9476  -44.7356 O.2       4 UNK        -0.5000 
     52 CA         -3.9884  -12.9831  -45.4662 C.3       4 UNK         0.1400 
     53 CB         -5.1532  -12.1656  -44.8710 C.3       4 UNK        -0.1800 
     54 N          -2.7103  -12.4110  -45.0251 N.am      4 UNK        -0.5000 
     55 C          -2.1550  -12.4964  -43.8084 C.2       3 UNK         0.5000 
     56 O          -2.5783  -13.2239  -42.9090 O.2       3 UNK        -0.5000 
     57 CA         -0.8901  -11.6446  -43.5810 C.3       3 UNK         0.1400 
     58 CB         -0.5111  -11.5398  -42.0932 C.3       3 UNK        -0.1800 
     59 N           0.2417  -12.1910  -44.3266 N.am      3 UNK        -0.5000 
     60 C           0.4459  -12.0280  -45.6393 C.2       2 UNK         0.5000 
     61 O          -0.2631  -11.3097  -46.3481 O.2       2 UNK        -0.5000 
     62 CA          1.6094  -12.8115  -46.2861 C.3       2 UNK         0.1400 
     63 CB          2.3861  -13.7252  -45.3093 C.3       2 UNK        -0.1800 
     64 N           1.1495  -13.5837  -47.4446 N.am      2 UNK        -0.5000 
     65 C           0.1884  -14.5189  -47.4478 C.2       1 UNK         0.5000 
     66 O          -0.4249  -14.8767  -46.4394 O.2       1 UNK        -0.5000 
     67 C           0.5027  -23.3908  -47.1474 C.2       11 UNK         0.5000 
     68 O           0.0410  -24.3598  -47.7490 O.2       11 UNK        -0.5000 
     69 N          -0.2487  -22.4100  -46.6285 N.am      12 UNK        -0.5000 
     70 CA         -1.6796  -22.2138  -46.8568 C.3       12 UNK         0.1400 
     71 CB         -2.1214  -20.9139  -46.1735 C.3       12 UNK        -0.1800 
     72 C          -2.5912  -23.3871  -46.4593 C.2       12 UNK         0.5000 
     73 O          -3.6333  -23.5621  -47.0930 O.2       12 UNK        -0.5000 
     74 N          -2.1867  -24.1825  -45.4606 N.am      13 UNK        -0.5000 
     75 CA         -2.8888  -25.4008  -45.0507 C.3       13 UNK         0.1400 
     76 CB         -2.3061  -25.8986  -43.7197 C.3       13 UNK        -0.1800 
     77 C          -2.8431  -26.5227  -46.1087 C.2       13 UNK         0.5000 
     78 O          -3.7722  -27.3288  -46.1680 O.2       13 UNK        -0.5000 
     79 N          -1.7768  -26.5558  -46.9191 N.am      14 UNK        -0.5000 
     80 CA         -1.5750  -27.5300  -47.9919 C.3       14 UNK         0.1400 
     81 CB         -0.1050  -27.9788  -47.9894 C.3       14 UNK        -0.1800 
     82 C          -1.9530  -26.9410  -49.3608 C.2       14 UNK         0.5000 
     83 O          -2.5648  -27.6323  -50.1752 O.2       14 UNK        -0.5000 
     84 N          -1.5868  -25.6730  -49.5870 N.am      15 UNK        -0.5000 
     85 CA         -1.7720  -24.9449  -50.8428 C.3       15 UNK         0.1400 
     86 CB         -0.7015  -23.8452  -50.9263 C.3       15 UNK        -0.1800 
     87 C          -3.1875  -24.3609  -51.0310 C.2       15 UNK         0.5000 
     88 O          -3.4441  -23.7660  -52.0765 O.2       15 UNK        -0.5000 
     89 N          -4.0681  -24.5325  -50.0326 N.am      16 UNK        -0.5000 
     90 CA         -5.4692  -24.0987  -49.9862 C.3       16 UNK         0.1400 
     91 CB         -6.3051  -24.7947  -51.0814 C.3       16 UNK        -0.1800 
     92 C          -5.5908  -22.5637  -50.0134 C.2       16 UNK         0.5000 
     93 O          -6.0513  -21.9880  -50.9990 O.2       16 UNK        -0.5000 
     94 N          -5.1325  -21.9411  -48.9188 N.am      17 UNK        -0.5000 
     95 CA         -5.0455  -20.4934  -48.6768 C.3       17 UNK         0.1400 
     96 CB         -6.4086  -19.7867  -48.8268 C.3       17 UNK        -0.1800 
     97 C          -3.9041  -19.8013  -49.4521 C.2       17 UNK         0.5000 
     98 O          -3.8482  -18.5712  -49.4909 O.2       17 UNK        -0.5000 
     99 N          -2.9831  -20.6026  -50.0083 N.am      18 UNK        -0.5000 
    100 CA        -1.7678  -20.1995  -50.7173 C.3       18 UNK         0.1400 
    101 CB        -0.7121  -19.6758  -49.7219 C.3       18 UNK        -0.1800 
    102 C         -2.0784  -19.2544  -51.8916 C.2       18 UNK         0.5000 
    103 O         -2.7718  -19.6806  -52.8144 O.2       18 UNK        -0.5000 
    104 N         -1.5850  -18.0074  -51.8533 N.am      19 UNK        -0.5000 
    105 CA        -1.6781  -17.0154  -52.9332 C.3       19 UNK         0.1400 
    106 CB        -0.9472  -15.7309  -52.5189 C.3       19 UNK        -0.1800 
    107 C         -3.1079  -16.6798  -53.4048 C.2       19 UNK         0.5000 
    108 O         -3.2700  -16.1953  -54.5245 O.2       19 UNK        -0.5000 
    109 N         -4.1200  -16.9804  -52.5801 N.am      20 UNK        -0.5000 
    110 CA        -5.5326  -16.9337  -52.9594 C.3       20 UNK         0.1400 
    111 CB        -6.3856  -17.1338  -51.6996 C.3       20 UNK        -0.1800 
    112 C         -5.9138  -17.9673  -54.0451 C.2       20 UNK         0.5000 
    113 O         -6.8906  -17.7458  -54.7621 O.2       20 UNK        -0.5000 
    114 N         -5.1439  -19.0593  -54.1533 N.am      21 UNK        -0.5000 
    115 CA        -5.3032  -20.1215  -55.1419 C.3       21 UNK         0.1400 
    116 CB        -5.4059  -21.4755  -54.4203 C.3       21 UNK        -0.1800 
    117 C         -4.1370  -20.1224  -56.1453 C.2       21 UNK         0.5000 
    118 O         -4.3877  -20.0815  -57.3505 O.2       21 UNK        -0.5000 
    119 N         -2.8920  -20.1707  -55.6478 N.am      22 UNK        -0.5000 
    120 CA        -1.6648  -20.2432  -56.4668 C.3       22 UNK         0.1400 
    121 C         -1.0595  -18.8706  -56.8822 C.2       22 UNK         0.5000 
    122 N         -1.6670  -17.7384  -56.5557 N.am      22 UNK        -0.7600 
    123 O         -0.0240  -18.8277  -57.5408 O.2       22 UNK        -0.5000 
    124 C124       -0.6043  -21.2212  -55.8841 C.3       23 UNK        -0.0398 
    125 S125       -0.1158  -20.9292  -54.1502 S.3       23 UNK        -0.2404 
    126 C126        1.3958  -19.9350  -54.3282 C.3       23 UNK        -0.0205 
    127 H127       -4.0390  -15.9854  -49.2669 H         1 UNK         0.0600 
    128 H128       -4.5175  -14.5705  -48.3279 H         1 UNK         0.0600 
    129 H129       -4.4073  -14.4726  -50.0883 H         1 UNK         0.0600 
    130 H130       -1.8841  -16.3719  -48.8254 H         1 UNK         0.3000 
    131 H131        0.1548  -14.4843  -49.5992 H         1 UNK         0.0600 
    132 H132        0.4066  -17.2197  -48.2494 H         1 UNK         0.0800 
    133 H133        0.3499  -16.9473  -49.9650 H         1 UNK         0.0800 
    134 H134        2.2560  -15.9065  -51.4281 H         1 UNK         0.0800 
    135 H135        3.8989  -16.2740  -50.9866 H         1 UNK         0.0800 
    136 H136        1.6451  -17.5173  -53.0740 H         1 UNK         0.1150 
    137 H137        2.6006  -21.6658  -52.6147 H         1 UNK         0.1150 
    138 H138        3.8220  -18.8496  -49.6257 H         1 UNK         0.1150 
    139 H139        4.6112  -22.0357  -50.9581 H         1 UNK         0.0800 
    140 H140        4.6009  -21.1117  -49.4823 H         1 UNK         0.0800 
    141 H141        2.0561  -21.2268  -47.7864 H         1 UNK         0.0800 
    142 H142        3.6297  -21.9145  -47.4796 H         1 UNK         0.0800 
    143 H143        2.4679  -24.2180  -47.2552 H         1 UNK         0.0600 
    144 H144        2.1267  -22.1328  -45.1648 H         1 UNK         0.3000 
    145 H145        2.2952  -24.5350  -42.5875 H         1 UNK         0.0600 
    146 H146        4.1641  -23.1773  -41.6864 H         1 UNK         0.0600 
    147 H147        4.7421  -24.1972  -42.9937 H         1 UNK         0.0600 
    148 H148        4.4672  -22.4830  -43.2798 H         1 UNK         0.0600 
    149 H149        2.2531  -21.7099  -42.4535 H         1 UNK         0.3000 
    150 H150       -1.1982  -21.1530  -43.0509 H         1 UNK         0.0600 
    151 H151       -1.0485  -22.0618  -40.7070 H         1 UNK         0.0600 
    152 H152       -1.1996  -20.3173  -40.7742 H         1 UNK         0.0600 
    153 H153        0.3678  -21.0525  -40.4329 H         1 UNK         0.0600 
    154 H154        0.5265  -19.2406  -42.1988 H         1 UNK         0.3000 
    155 H155        2.7431  -18.4053  -44.1759 H         1 UNK         0.0600 
    156 H156        1.8510  -16.7494  -45.8247 H         1 UNK         0.0600 
    157 H157        0.3251  -17.6312  -45.8797 H         1 UNK         0.0600 
    158 H158        1.8077  -18.3822  -46.4589 H         1 UNK         0.0600 
    159 H159        0.2867  -16.8806  -43.5021 H         1 UNK         0.3000 
    160 H160        1.2546  -16.2451  -40.2246 H         1 UNK         0.0600 
    161 H161        1.4866  -14.1595  -42.4498 H         1 UNK         0.0600 
    162 H162        2.7906  -14.5969  -41.3548 H         1 UNK         0.0600 
    163 H163        1.3353  -13.8580  -40.7166 H         1 UNK         0.0600 
    164 H164       -0.7081  -15.1202  -42.0696 H         1 UNK         0.3000 
    165 H165       -3.2237  -17.5445  -41.2635 H         1 UNK         0.0600 
    166 H166       -2.8923  -14.5574  -40.6731 H         1 UNK         0.0600 
    167 H167       -4.4333  -15.3841  -40.8951 H         1 UNK         0.0600 
    168 H168       -3.3940  -15.8032  -39.5413 H         1 UNK         0.0600 
    169 H169       -3.0159  -15.2990  -43.0982 H         1 UNK         0.3000 
    170 H170       -1.9467  -16.9375  -45.8049 H         1 UNK         0.0600 
    171 H171       -3.7522  -18.5476  -46.0883 H         1 UNK         0.0600 
    172 H172       -4.9616  -17.3854  -45.5893 H         1 UNK         0.0600 
    173 H173       -4.0783  -17.1529  -47.0972 H         1 UNK         0.0600 
    174 H174       -2.2153  -14.7841  -45.8137 H         1 UNK         0.3000 
    175 H175       -4.0194  -12.8604  -46.5495 H         1 UNK         0.0600 
    176 H176       -5.0540  -11.1066  -45.1092 H         1 UNK         0.0600 
    177 H177       -6.1121  -12.4971  -45.2713 H         1 UNK         0.0600 
    178 H178       -5.1985  -12.2621  -43.7855 H         1 UNK         0.0600 
    179 H179       -2.2116  -11.8613  -45.7167 H         1 UNK         0.3000 
    180 H180       -1.0999  -10.6338  -43.9376 H         1 UNK         0.0600 
    181 H181       -0.3417  -12.5184  -41.6465 H         1 UNK         0.0600 
    182 H182       -1.3085  -11.0592  -41.5251 H         1 UNK         0.0600 
    183 H183        0.3911  -10.9440  -41.9541 H         1 UNK         0.0600 
    184 H184        0.8543  -12.8127  -43.8226 H         1 UNK         0.3000 
    185 H185        2.3063  -12.0636  -46.6665 H         1 UNK         0.0600 
    186 H186        3.1978  -14.2397  -45.8240 H         1 UNK         0.0600 
    187 H187        2.8384  -13.1493  -44.5011 H         1 UNK         0.0600 
    188 H188        1.7488  -14.4895  -44.8638 H         1 UNK         0.0600 
    189 H189        1.5868  -13.3424  -48.3224 H         1 UNK         0.3000 
    190 H190        0.2164  -21.6758  -46.0987 H         1 UNK         0.3000 
    191 H191       -1.8130  -22.0882  -47.9316 H         1 UNK         0.0600 
    192 H192       -1.7308  -20.0402  -46.6956 H         1 UNK         0.0600 
    193 H193       -3.2054  -20.8270  -46.1411 H         1 UNK         0.0600 
    194 H194       -1.7755  -20.8638  -45.1446 H         1 UNK         0.0600 
    195 H195       -1.3426  -23.9476  -44.9474 H         1 UNK         0.3000 
    196 H196       -3.9383  -25.1470  -44.8874 H         1 UNK         0.0600 
    197 H197       -2.8125  -26.8041  -43.3830 H         1 UNK         0.0600 
    198 H198       -2.4232  -25.1511  -42.9350 H         1 UNK         0.0600 
    199 H199       -1.2432  -26.1280  -43.8079 H         1 UNK         0.0600 
    200 H200       -1.0808  -25.8230  -46.8399 H         1 UNK         0.3000 
    201 H201       -2.1945  -28.4134  -47.8240 H         1 UNK         0.0600 
    202 H202        0.1601  -28.4483  -47.0420 H         1 UNK         0.0600 
    203 H203        0.5754  -27.1409  -48.1482 H         1 UNK         0.0600 
    204 H204        0.0821  -28.7088  -48.7780 H         1 UNK         0.0600 
    205 H205       -1.0460  -25.1897  -48.8716 H         1 UNK         0.3000 
    206 H206       -1.6037  -25.6359  -51.6714 H         1 UNK         0.0600 
    207 H207        0.3010  -24.2687  -50.8638 H         1 UNK         0.0600 
    208 H208       -0.7614  -23.3048  -51.8719 H         1 UNK         0.0600 
    209 H209       -0.8048  -23.1220  -50.1176 H         1 UNK         0.0600 
    210 H210       -3.7307  -24.9908  -49.1974 H         1 UNK         0.3000 
    211 H211       -5.8615  -24.4290  -49.0229 H         1 UNK         0.0600 
    212 H212       -6.2217  -25.8791  -51.0102 H         1 UNK         0.0600 
    213 H213       -5.9966  -24.5003  -52.0849 H         1 UNK         0.0600 
    214 H214       -7.3610  -24.5418  -50.9806 H         1 UNK         0.0600 
    215 H215       -4.7380  -22.5269  -48.1847 H         1 UNK         0.3000 
    216 H216       -4.7760  -20.3929  -47.6278 H         1 UNK         0.0600 
    217 H217       -7.1591  -20.2457  -48.1835 H         1 UNK         0.0600 
    218 H218       -6.7825  -19.8206  -49.8487 H         1 UNK         0.0600 
    219 H219       -6.3393  -18.7362  -48.5411 H         1 UNK         0.0600 
    220 H220       -3.1757  -21.5927  -49.9965 H         1 UNK         0.3000 
    221 H221       -1.3608  -21.0968  -51.1801 H         1 UNK         0.0600 
    222 H222       -1.0863  -18.8365  -49.1374 H         1 UNK         0.0600 
    223 H223       -0.4181  -20.4566  -49.0215 H         1 UNK         0.0600 
    224 H224        0.1987  -19.3671  -50.2357 H         1 UNK         0.0600 
    225 H225       -1.0454  -17.7409  -51.0472 H         1 UNK         0.3000 
    226 H226       -1.1502  -17.4403  -53.7888 H         1 UNK         0.0600 
    227 H227        0.0744  -15.9324  -52.2059 H         1 UNK         0.0600 
    228 H228       -0.8945  -15.0295  -53.3526 H         1 UNK         0.0600 
    229 H229       -1.4593  -15.2229  -51.7039 H         1 UNK         0.0600 
    230 H230       -3.9042  -17.3960  -51.6834 H         1 UNK         0.3000 
    231 H231       -5.7432  -15.9406  -53.3616 H         1 UNK         0.0600 
    232 H232       -6.1815  -16.3645  -50.9548 H         1 UNK         0.0600 
    233 H233       -6.1877  -18.1026  -51.2436 H         1 UNK         0.0600 
    234 H234       -7.4501  -17.0889  -51.9329 H         1 UNK         0.0600 
    235 H235       -4.3422  -19.1592  -53.5342 H         1 UNK         0.3000 
    236 H236       -6.2248  -19.9783  -55.7096 H         1 UNK         0.0600 
    237 H237       -6.2873  -21.5110  -53.7800 H         1 UNK         0.0600 
    238 H238       -5.4887  -22.2964  -55.1335 H         1 UNK         0.0600 
    239 H239       -4.5355  -21.6711  -53.7922 H         1 UNK         0.0600 
    240 H240       -2.7565  -20.1655  -54.6397 H         1 UNK         0.3000 
    241 H241       -1.9463  -20.6849  -57.4245 H         1 UNK         0.0600 
    242 H242       -1.2644  -16.8643  -56.8536 H         1 UNK         0.3800 
    243 H243       -2.5268  -17.7302  -56.0280 H         1 UNK         0.3800 
    244 H244       -1.0124  -22.2318  -55.9229 H         1 UNK         0.0800 
    245 H245        0.2875  -21.2553  -56.5122 H         1 UNK         0.0800 
    246 H246        2.1146  -20.4744  -54.9466 H         1 UNK         0.0800 
    247 H247        1.1591  -19.0120  -54.8590 H         1 UNK         0.0800 
@<TRIPOS>BOND
     1    1    2 1    
     2    1  127 1    
     3    1  128 1    
     4    1  129 1    
     5    2    3 2    
     6    2    4 am   BACKBONE|DICT|INTERRES
     7    4    5 1    
     8    4  130 1    
     9    5    6 1    
    10    5   65 1    
    11    5  131 1    
    12    6    7 1    
    13    6  132 1    
    14    6  133 1    
    15    7    8 1    
    16    8    9 1    
    17    8  134 1    
    18    8  135 1    
    19    9   10 ar   
    20    9   14 ar   
    21   10   11 ar   
    22   10  136 1    
    23   11   12 ar   
    24   11  126 1    
    25   12   13 ar   
    26   12  137 1    
    27   13   14 ar   
    28   13   15 1    
    29   14  138 1    
    30   15   16 1    
    31   15  139 1    
    32   15  140 1    
    33   16   17 1    
    34   17   18 1    
    35   17  141 1    
    36   17  142 1    
    37   18   19 1    
    38   18   67 1    
    39   18  143 1    
    40   19   20 am   BACKBONE|DICT|INTERRES
    41   19  144 1    
    42   20   21 2    
    43   20   22 1    
    44   22   23 1    
    45   22   24 1    
    46   22  145 1    
    47   23  146 1    
    48   23  147 1    
    49   23  148 1    
    50   24   25 am   BACKBONE|DICT|INTERRES
    51   24  149 1    
    52   25   26 2    
    53   25   27 1    
    54   27   28 1    
    55   27   29 1    
    56   27  150 1    
    57   28  151 1    
    58   28  152 1    
    59   28  153 1    
    60   29   30 am   BACKBONE|DICT|INTERRES
    61   29  154 1    
    62   30   31 2    
    63   30   32 1    
    64   32   33 1    
    65   32   34 1    
    66   32  155 1    
    67   33  156 1    
    68   33  157 1    
    69   33  158 1    
    70   34   35 am   BACKBONE|DICT|INTERRES
    71   34  159 1    
    72   35   36 2    
    73   35   37 1    
    74   37   38 1    
    75   37   39 1    
    76   37  160 1    
    77   38  161 1    
    78   38  162 1    
    79   38  163 1    
    80   39   40 am   BACKBONE|DICT|INTERRES
    81   39  164 1    
    82   40   41 2    
    83   40   42 1    
    84   42   43 1    
    85   42   44 1    
    86   42  165 1    
    87   43  166 1    
    88   43  167 1    
    89   43  168 1    
    90   44   45 am   BACKBONE|DICT|INTERRES
    91   44  169 1    
    92   45   46 2    
    93   45   47 1    
    94   47   48 1    
    95   47   49 1    
    96   47  170 1    
    97   48  171 1    
    98   48  172 1    
    99   48  173 1    
   100   49   50 am   BACKBONE|DICT|INTERRES
   101   49  174 1    
   102   50   51 2    
   103   50   52 1    
   104   52   53 1    
   105   52   54 1    
   106   52  175 1    
   107   53  176 1    
   108   53  177 1    
   109   53  178 1    
   110   54   55 am   BACKBONE|DICT|INTERRES
   111   54  179 1    
   112   55   56 2    
   113   55   57 1    
   114   57   58 1    
   115   57   59 1    
   116   57  180 1    
   117   58  181 1    
   118   58  182 1    
   119   58  183 1    
   120   59   60 am   BACKBONE|DICT|INTERRES
   121   59  184 1    
   122   60   61 2    
   123   60   62 1    
   124   62   63 1    
   125   62   64 1    
   126   62  185 1    
   127   63  186 1    
   128   63  187 1    
   129   63  188 1    
   130   64   65 am   BACKBONE|DICT|INTERRES
   131   64  189 1    
   132   65   66 2    
   133   67   68 2    
   134   67   69 am   BACKBONE|DICT|INTERRES
   135   69   70 1    
   136   69  190 1    
   137   70   71 1    
   138   70   72 1    
   139   70  191 1    
   140   71  192 1    
   141   71  193 1    
   142   71  194 1    
   143   72   73 2    
   144   72   74 am   BACKBONE|DICT|INTERRES
   145   74   75 1    
   146   74  195 1    
   147   75   76 1    
   148   75   77 1    
   149   75  196 1    
   150   76  197 1    
   151   76  198 1    
   152   76  199 1    
   153   77   78 2    
   154   77   79 am   BACKBONE|DICT|INTERRES
   155   79   80 1    
   156   79  200 1    
   157   80   81 1    
   158   80   82 1    
   159   80  201 1    
   160   81  202 1    
   161   81  203 1    
   162   81  204 1    
   163   82   83 2    
   164   82   84 am   BACKBONE|DICT|INTERRES
   165   84   85 1    
   166   84  205 1    
   167   85   86 1    
   168   85   87 1    
   169   85  206 1    
   170   86  207 1    
   171   86  208 1    
   172   86  209 1    
   173   87   88 2    
   174   87   89 am   BACKBONE|DICT|INTERRES
   175   89   90 1    
   176   89  210 1    
   177   90   91 1    
   178   90   92 1    
   179   90  211 1    
   180   91  212 1    
   181   91  213 1    
   182   91  214 1    
   183   92   93 2    
   184   92   94 am   BACKBONE|DICT|INTERRES
   185   94   95 1    
   186   94  215 1    
   187   95   96 1    
   188   95   97 1    
   189   95  216 1    
   190   96  217 1    
   191   96  218 1    
   192   96  219 1    
   193   97   98 2    
   194   97   99 am   BACKBONE|DICT|INTERRES
   195   99  100 1    
   196   99  220 1    
   197  100  101 1    
   198  100  102 1    
   199  100  221 1    
   200  101  222 1    
   201  101  223 1    
   202  101  224 1    
   203  102  103 2    
   204  102  104 am   BACKBONE|DICT|INTERRES
   205  104  105 1    
   206  104  225 1    
   207  105  106 1    
   208  105  107 1    
   209  105  226 1    
   210  106  227 1    
   211  106  228 1    
   212  106  229 1    
   213  107  108 2    
   214  107  109 am   BACKBONE|DICT|INTERRES
   215  109  110 1    
   216  109  230 1    
   217  110  111 1    
   218  110  112 1    
   219  110  231 1    
   220  111  232 1    
   221  111  233 1    
   222  111  234 1    
   223  112  113 2    
   224  112  114 am   BACKBONE|DICT|INTERRES
   225  114  115 1    
   226  114  235 1    
   227  115  116 1    
   228  115  117 1    
   229  115  236 1    
   230  116  237 1    
   231  116  238 1    
   232  116  239 1    
   233  117  118 2    
   234  117  119 am   BACKBONE|DICT|INTERRES
   235  119  120 1    
   236  119  240 1    
   237  120  121 1    
   238  120  124 1    
   239  120  241 1    
   240  121  122 am   BACKBONE|DICT|INTERRES
   241  121  123 2    
   242  122  242 1    
   243  122  243 1    
   244  124  125 1    
   245  124  244 1    
   246  124  245 1    
   247  125  126 1    
   248  126  246 1    
   249  126  247 1    
@<TRIPOS>SUBSTRUCTURE
     1 UNK         1 GROUP             0       ****    0 ROOT    
