@<TRIPOS>MOLECULE
3R540
247   249    1
SMALL
USER_CHARGES


@<TRIPOS>ATOM
      1 CA         -3.8548  -13.5048  -48.5498 C.3       0 UNK        -0.1800 
      2 C          -2.4346  -13.1024  -48.9215 C.2       0 UNK         0.5000 
      3 O          -2.2363  -12.0691  -49.5596 O.2       0 UNK        -0.5000 
      4 N          -1.4518  -13.9252  -48.5341 N.am      1 UNK        -0.5000 
      5 CA         -0.0220  -13.7420  -48.8151 C.3       1 UNK         0.1400 
      6 C6          0.8021  -14.9913  -48.4223 C.3       23 UNK        -0.0398 
      7 S7          0.3297  -16.4755  -49.3696 S.3       23 UNK        -0.2404 
      8 C8          1.7508  -16.5980  -50.4985 C.3       23 UNK        -0.0205 
      9 C9          1.7505  -17.9165  -51.2506 C.ar      23 UNK        -0.0193 
     10 C10         1.4069  -17.9721  -52.6026 C.ar      23 UNK        -0.1150 
     11 C11         1.4460  -19.1860  -53.2947 C.ar      23 UNK        -0.0193 
     12 C12         1.8125  -20.3537  -52.6146 C.ar      23 UNK        -0.1150 
     13 C13         2.1629  -20.3135  -51.2588 C.ar      23 UNK        -0.0193 
     14 C14         2.1353  -19.0838  -50.5903 C.ar      23 UNK        -0.1150 
     15 C15         2.6367  -21.5925  -50.5644 C.3       23 UNK        -0.0205 
     16 S16         2.4145  -21.6154  -48.7478 S.3       23 UNK        -0.2404 
     17 C17         0.6073  -21.7892  -48.6006 C.3       23 UNK        -0.0398 
     18 CA          0.2350  -22.9069  -47.6017 C.3       11 UNK         0.1400 
     19 N           0.3928  -22.4739  -46.2090 N.am      11 UNK        -0.5000 
     20 C           0.3661  -23.3030  -45.1568 C.2       10 UNK         0.5000 
     21 O           0.1770  -24.5151  -45.2490 O.2       10 UNK        -0.5000 
     22 CA          0.5393  -22.6737  -43.7641 C.3       10 UNK         0.1400 
     23 CB          1.9875  -22.2102  -43.5458 C.3       10 UNK        -0.1800 
     24 N          -0.3789  -21.5601  -43.5328 N.am      10 UNK        -0.5000 
     25 C          -1.7159  -21.6641  -43.5291 C.2       9 UNK         0.5000 
     26 O          -2.3234  -22.7231  -43.6842 O.2       9 UNK        -0.5000 
     27 CA         -2.5121  -20.3548  -43.3854 C.3       9 UNK         0.1400 
     28 CB         -2.5696  -19.9031  -41.9186 C.3       9 UNK        -0.1800 
     29 N          -1.9773  -19.2728  -44.2117 N.am      9 UNK        -0.5000 
     30 C          -1.8499  -19.3214  -45.5445 C.2       8 UNK         0.5000 
     31 O          -2.1781  -20.2871  -46.2282 O.2       8 UNK        -0.5000 
     32 CA         -1.1919  -18.1117  -46.2218 C.3       8 UNK         0.1400 
     33 CB         -2.1768  -16.9389  -46.3426 C.3       8 UNK        -0.1800 
     34 N           0.0072  -17.6860  -45.5076 N.am      8 UNK        -0.5000 
     35 C           1.1412  -18.3988  -45.4564 C.2       7 UNK         0.5000 
     36 O           1.3055  -19.4751  -46.0322 O.2       7 UNK        -0.5000 
     37 CA          2.2611  -17.8229  -44.5724 C.3       7 UNK         0.1400 
     38 CB          3.0330  -16.7284  -45.3260 C.3       7 UNK        -0.1800 
     39 N           1.7546  -17.2803  -43.3089 N.am      7 UNK        -0.5000 
     40 C           1.1863  -18.0182  -42.3444 C.2       6 UNK         0.5000 
     41 O           1.0474  -19.2395  -42.4087 O.2       6 UNK        -0.5000 
     42 CA          0.6448  -17.2599  -41.1185 C.3       6 UNK         0.1400 
     43 CB          1.7727  -16.9826  -40.1136 C.3       6 UNK        -0.1800 
     44 N          -0.0353  -16.0010  -41.4362 N.am      6 UNK        -0.5000 
     45 C          -1.0864  -15.8574  -42.2528 C.2       5 UNK         0.5000 
     46 O          -1.5478  -16.7809  -42.9217 O.2       5 UNK        -0.5000 
     47 CA         -1.7413  -14.4653  -42.3714 C.3       5 UNK         0.1400 
     48 CB         -3.0700  -14.4242  -41.5944 C.3       5 UNK        -0.1800 
     49 N          -0.9002  -13.3103  -42.0240 N.am      5 UNK        -0.5000 
     50 C          -0.3714  -12.9652  -40.8384 C.2       4 UNK         0.5000 
     51 O          -0.4398  -13.6659  -39.8289 O.2       4 UNK        -0.5000 
     52 CA          0.3869  -11.6233  -40.7653 C.3       4 UNK         0.1400 
     53 CB          1.9034  -11.8682  -40.8078 C.3       4 UNK        -0.1800 
     54 N           0.0311  -10.6929  -41.8378 N.am      4 UNK        -0.5000 
     55 C          -1.1533  -10.0782  -41.9706 C.2       3 UNK         0.5000 
     56 O          -2.0562  -10.1480  -41.1363 O.2       3 UNK        -0.5000 
     57 CA         -1.3775   -9.2723  -43.2678 C.3       3 UNK         0.1400 
     58 CB         -1.1966   -7.7694  -43.0045 C.3       3 UNK        -0.1800 
     59 N          -0.5022   -9.6702  -44.3778 N.am      3 UNK        -0.5000 
     60 C          -0.5087  -10.8699  -44.9733 C.2       2 UNK         0.5000 
     61 O          -1.2524  -11.7990  -44.6447 O.2       2 UNK        -0.5000 
     62 CA          0.5365  -11.0881  -46.0727 C.3       2 UNK         0.1400 
     63 CB          1.9104  -11.4046  -45.4493 C.3       2 UNK        -0.1800 
     64 N           0.0981  -12.1967  -46.9113 N.am      2 UNK        -0.5000 
     65 C           0.5723  -12.4963  -48.1252 C.2       1 UNK         0.5000 
     66 O           1.4479  -11.8460  -48.6978 O.2       1 UNK        -0.5000 
     67 C          -1.1666  -23.4786  -47.8960 C.2       11 UNK         0.5000 
     68 O          -1.2697  -24.4579  -48.6378 O.2       11 UNK        -0.5000 
     69 N          -2.2147  -22.8934  -47.3036 N.am      12 UNK        -0.5000 
     70 CA         -3.5896  -23.3803  -47.4068 C.3       12 UNK         0.1400 
     71 CB         -4.5554  -22.3270  -46.8458 C.3       12 UNK        -0.1800 
     72 C          -3.7924  -24.7348  -46.7035 C.2       12 UNK         0.5000 
     73 O          -4.5290  -25.5750  -47.2181 O.2       12 UNK        -0.5000 
     74 N          -3.1317  -24.9351  -45.5558 N.am      13 UNK        -0.5000 
     75 CA         -3.1815  -26.1823  -44.7964 C.3       13 UNK         0.1400 
     76 CB         -2.7201  -25.9277  -43.3527 C.3       13 UNK        -0.1800 
     77 C          -2.3474  -27.3012  -45.4434 C.2       13 UNK         0.5000 
     78 O          -2.8474  -28.4158  -45.6004 O.2       13 UNK        -0.5000 
     79 N          -1.0858  -26.9977  -45.7754 N.am      14 UNK        -0.5000 
     80 CA         -0.1003  -27.9877  -46.2065 C.3       14 UNK         0.1400 
     81 CB          1.3140  -27.4566  -45.9239 C.3       14 UNK        -0.1800 
     82 C          -0.2322  -28.3843  -47.6846 C.2       14 UNK         0.5000 
     83 O          -0.1190  -29.5703  -47.9981 O.2       14 UNK        -0.5000 
     84 N          -0.4271  -27.3939  -48.5644 N.am      15 UNK        -0.5000 
     85 CA         -0.3406  -27.5666  -50.0174 C.3       15 UNK         0.1400 
     86 CB          0.7380  -26.6066  -50.5504 C.3       15 UNK        -0.1800 
     87 C          -1.6751  -27.3250  -50.7417 C.2       15 UNK         0.5000 
     88 O          -1.7506  -27.5928  -51.9415 O.2       15 UNK        -0.5000 
     89 N          -2.6834  -26.7962  -50.0294 N.am      16 UNK        -0.5000 
     90 CA         -3.9484  -26.2706  -50.5648 C.3       16 UNK         0.1400 
     91 CB         -4.8172  -27.3983  -51.1607 C.3       16 UNK        -0.1800 
     92 C          -3.7228  -25.0903  -51.5370 C.2       16 UNK         0.5000 
     93 O          -4.4560  -24.9398  -52.5160 O.2       16 UNK        -0.5000 
     94 N          -2.6847  -24.2955  -51.2497 N.am      17 UNK        -0.5000 
     95 CA         -2.2153  -23.1757  -52.0550 C.3       17 UNK         0.1400 
     96 CB         -0.7032  -23.3676  -52.2982 C.3       17 UNK        -0.1800 
     97 C          -2.5965  -21.8516  -51.3648 C.2       17 UNK         0.5000 
     98 O          -3.7552  -21.6980  -50.9777 O.2       17 UNK        -0.5000 
     99 N          -1.6236  -20.9365  -51.2322 N.am      18 UNK        -0.5000 
    100 CA        -1.7214  -19.5428  -50.7781 C.3       18 UNK         0.1400 
    101 CB        -2.5529  -19.3892  -49.4928 C.3       18 UNK        -0.1800 
    102 C         -2.2417  -18.6183  -51.8884 C.2       18 UNK         0.5000 
    103 O         -2.9669  -19.0655  -52.7774 O.2       18 UNK        -0.5000 
    104 N         -1.8709  -17.3332  -51.8123 N.am      19 UNK        -0.5000 
    105 CA        -2.0930  -16.3055  -52.8400 C.3       19 UNK         0.1400 
    106 CB        -1.5140  -14.9744  -52.3387 C.3       19 UNK        -0.1800 
    107 C         -3.5546  -16.1146  -53.2951 C.2       19 UNK         0.5000 
    108 O         -3.7871  -15.6468  -54.4102 O.2       19 UNK        -0.5000 
    109 N         -4.5080  -16.4888  -52.4344 N.am      20 UNK        -0.5000 
    110 CA        -5.9409  -16.4686  -52.7122 C.3       20 UNK         0.1400 
    111 CB        -6.6934  -16.5088  -51.3724 C.3       20 UNK        -0.1800 
    112 C         -6.4214  -17.6128  -53.6313 C.2       20 UNK         0.5000 
    113 O         -7.5190  -17.4954  -54.1791 O.2       20 UNK        -0.5000 
    114 N         -5.6409  -18.6970  -53.7677 N.am      21 UNK        -0.5000 
    115 CA        -6.0638  -19.9245  -54.4514 C.3       21 UNK         0.1400 
    116 CB        -6.5276  -20.9449  -53.3985 C.3       21 UNK        -0.1800 
    117 C         -4.9989  -20.5468  -55.3732 C.2       21 UNK         0.5000 
    118 O         -5.3717  -21.3307  -56.2475 O.2       21 UNK        -0.5000 
    119 N         -3.7119  -20.2243  -55.1838 N.am      22 UNK        -0.5000 
    120 CA        -2.5896  -20.8060  -55.9441 C.3       22 UNK         0.1400 
    121 C         -2.4975  -20.4020  -57.4480 C.2       22 UNK         0.5000 
    122 N         -3.2297  -19.3976  -57.9142 N.am      22 UNK        -0.7600 
    123 O         -1.7564  -21.0220  -58.2061 O.2       22 UNK        -0.5000 
    124 C124       -1.2374  -20.6368  -55.2004 C.3       23 UNK        -0.0398 
    125 S125       -0.5836  -18.9320  -55.1917 S.3       23 UNK        -0.2404 
    126 C126        1.1712  -19.2069  -54.7929 C.3       23 UNK        -0.0205 
    127 H127       -3.8779  -14.4320  -47.9765 H         1 UNK         0.0600 
    128 H128       -4.3215  -12.7232  -47.9505 H         1 UNK         0.0600 
    129 H129       -4.4513  -13.6481  -49.4510 H         1 UNK         0.0600 
    130 H130       -1.6892  -14.7697  -48.0371 H         1 UNK         0.3000 
    131 H131        0.0836  -13.5898  -49.8915 H         1 UNK         0.0600 
    132 H132        0.6747  -15.2155  -47.3620 H         1 UNK         0.0800 
    133 H133        1.8695  -14.8065  -48.5576 H         1 UNK         0.0800 
    134 H134        1.7406  -15.7551  -51.1909 H         1 UNK         0.0800 
    135 H135        2.6794  -16.5210  -49.9309 H         1 UNK         0.0800 
    136 H136        1.1297  -17.0677  -53.1259 H         1 UNK         0.1150 
    137 H137        1.8657  -21.2898  -53.1527 H         1 UNK         0.1150 
    138 H138        2.4226  -19.0182  -49.5508 H         1 UNK         0.1150 
    139 H139        2.1427  -22.4648  -50.9943 H         1 UNK         0.0800 
    140 H140        3.7000  -21.7116  -50.7753 H         1 UNK         0.0800 
    141 H141        0.2101  -22.0061  -49.5894 H         1 UNK         0.0800 
    142 H142        0.1751  -20.8323  -48.3025 H         1 UNK         0.0800 
    143 H143        0.9245  -23.7401  -47.7572 H         1 UNK         0.0600 
    144 H144        0.5639  -21.4854  -46.0578 H         1 UNK         0.3000 
    145 H145        0.3167  -23.4450  -43.0239 H         1 UNK         0.0600 
    146 H146        2.1389  -21.8644  -42.5231 H         1 UNK         0.0600 
    147 H147        2.6902  -23.0259  -43.7207 H         1 UNK         0.0600 
    148 H148        2.2566  -21.3935  -44.2164 H         1 UNK         0.0600 
    149 H149        0.0428  -20.6527  -43.3586 H         1 UNK         0.3000 
    150 H150       -3.5323  -20.5494  -43.7220 H         1 UNK         0.0600 
    151 H151       -3.0060  -20.6790  -41.2885 H         1 UNK         0.0600 
    152 H152       -3.1811  -19.0077  -41.8053 H         1 UNK         0.0600 
    153 H153       -1.5770  -19.6814  -41.5269 H         1 UNK         0.0600 
    154 H154       -1.7039  -18.4200  -43.7279 H         1 UNK         0.3000 
    155 H155       -0.8902  -18.4121  -47.2268 H         1 UNK         0.0600 
    156 H156       -1.7109  -16.0879  -46.8337 H         1 UNK         0.0600 
    157 H157       -3.0487  -17.2223  -46.9332 H         1 UNK         0.0600 
    158 H158       -2.5379  -16.6052  -45.3698 H         1 UNK         0.0600 
    159 H159       -0.0725  -16.8605  -44.9333 H         1 UNK         0.3000 
    160 H160        2.9535  -18.6354  -44.3416 H         1 UNK         0.0600 
    161 H161        3.8898  -16.3822  -44.7478 H         1 UNK         0.0600 
    162 H162        2.4038  -15.8644  -45.5429 H         1 UNK         0.0600 
    163 H163        3.4138  -17.1037  -46.2770 H         1 UNK         0.0600 
    164 H164        1.8242  -16.2827  -43.1733 H         1 UNK         0.3000 
    165 H165       -0.0878  -17.9075  -40.6334 H         1 UNK         0.0600 
    166 H166        1.3827  -16.5432  -39.1953 H         1 UNK         0.0600 
    167 H167        2.2877  -17.9042  -39.8388 H         1 UNK         0.0600 
    168 H168        2.5172  -16.2982  -40.5224 H         1 UNK         0.0600 
    169 H169        0.2083  -15.1971  -40.8684 H         1 UNK         0.3000 
    170 H170       -1.9801  -14.3388  -43.4285 H         1 UNK         0.0600 
    171 H171       -3.7440  -15.2129  -41.9315 H         1 UNK         0.0600 
    172 H172       -2.9193  -14.5611  -40.5232 H         1 UNK         0.0600 
    173 H173       -3.5829  -13.4737  -41.7427 H         1 UNK         0.0600 
    174 H174       -0.7759  -12.6580  -42.7900 H         1 UNK         0.3000 
    175 H175        0.1386  -11.1565  -39.8099 H         1 UNK         0.0600 
    176 H176        2.2121  -12.3226  -41.7503 H         1 UNK         0.0600 
    177 H177        2.4570  -10.9370  -40.6862 H         1 UNK         0.0600 
    178 H178        2.2151  -12.5363  -40.0037 H         1 UNK         0.0600 
    179 H179        0.7191  -10.5555  -42.5627 H         1 UNK         0.3000 
    180 H180       -2.4099   -9.4436  -43.5797 H         1 UNK         0.0600 
    181 H181       -0.1734   -7.5329  -42.7098 H         1 UNK         0.0600 
    182 H182       -1.8554   -7.4301  -42.2039 H         1 UNK         0.0600 
    183 H183       -1.4365   -7.1813  -43.8905 H         1 UNK         0.0600 
    184 H184        0.1506   -8.9699  -44.7002 H         1 UNK         0.3000 
    185 H185        0.6006  -10.1824  -46.6795 H         1 UNK         0.0600 
    186 H186        2.2466  -10.5942  -44.8015 H         1 UNK         0.0600 
    187 H187        1.8782  -12.3147  -44.8486 H         1 UNK         0.0600 
    188 H188        2.6753  -11.5382  -46.2142 H         1 UNK         0.0600 
    189 H189       -0.6600  -12.7389  -46.5156 H         1 UNK         0.3000 
    190 H190       -2.0742  -22.0497  -46.7510 H         1 UNK         0.3000 
    191 H191       -3.8203  -23.5158  -48.4656 H         1 UNK         0.0600 
    192 H192       -4.3502  -22.1125  -45.7962 H         1 UNK         0.0600 
    193 H193       -5.5897  -22.6651  -46.9186 H         1 UNK         0.0600 
    194 H194       -4.4792  -21.3916  -47.4007 H         1 UNK         0.0600 
    195 H195       -2.5791  -24.1815  -45.1613 H         1 UNK         0.3000 
    196 H196       -4.2189  -26.5214  -44.7562 H         1 UNK         0.0600 
    197 H197       -2.7402  -26.8473  -42.7666 H         1 UNK         0.0600 
    198 H198       -3.3717  -25.2103  -42.8537 H         1 UNK         0.0600 
    199 H199       -1.7031  -25.5352  -43.3160 H         1 UNK         0.0600 
    200 H200       -0.7369  -26.0564  -45.6019 H         1 UNK         0.3000 
    201 H201       -0.2355  -28.8917  -45.6083 H         1 UNK         0.0600 
    202 H202        1.4427  -27.2203  -44.8675 H         1 UNK         0.0600 
    203 H203        1.5286  -26.5535  -46.4967 H         1 UNK         0.0600 
    204 H204        2.0697  -28.1982  -46.1860 H         1 UNK         0.0600 
    205 H205       -0.5374  -26.4435  -48.2312 H         1 UNK         0.3000 
    206 H206       -0.0320  -28.5826  -50.2711 H         1 UNK         0.0600 
    207 H207        1.7087  -26.8196  -50.1026 H         1 UNK         0.0600 
    208 H208        0.8528  -26.7015  -51.6309 H         1 UNK         0.0600 
    209 H209        0.4944  -25.5659  -50.3375 H         1 UNK         0.0600 
    210 H210       -2.5134  -26.6079  -49.0516 H         1 UNK         0.3000 
    211 H211       -4.4981  -25.8546  -49.7230 H         1 UNK         0.0600 
    212 H212       -4.3819  -27.8136  -52.0697 H         1 UNK         0.0600 
    213 H213       -5.8111  -27.0294  -51.4162 H         1 UNK         0.0600 
    214 H214       -4.9480  -28.2123  -50.4478 H         1 UNK         0.0600 
    215 H215       -2.1731  -24.4696  -50.3901 H         1 UNK         0.3000 
    216 H216       -2.7110  -23.1709  -53.0279 H         1 UNK         0.0600 
    217 H217       -0.2816  -22.5802  -52.9210 H         1 UNK         0.0600 
    218 H218       -0.5170  -24.3084  -52.8172 H         1 UNK         0.0600 
    219 H219       -0.1424  -23.4011  -51.3654 H         1 UNK         0.0600 
    220 H220       -0.7223  -21.1756  -51.6180 H         1 UNK         0.3000 
    221 H221       -0.7006  -19.2409  -50.5475 H         1 UNK         0.0600 
    222 H222       -3.6220  -19.4988  -49.6760 H         1 UNK         0.0600 
    223 H223       -2.2633  -20.1332  -48.7539 H         1 UNK         0.0600 
    224 H224       -2.4060  -18.4033  -49.0536 H         1 UNK         0.0600 
    225 H225       -1.2804  -17.0529  -51.0402 H         1 UNK         0.3000 
    226 H226       -1.5263  -16.6038  -53.7224 H         1 UNK         0.0600 
    227 H227       -0.4454  -15.0555  -52.1432 H         1 UNK         0.0600 
    228 H228       -1.6464  -14.1832  -53.0777 H         1 UNK         0.0600 
    229 H229       -2.0014  -14.6500  -51.4198 H         1 UNK         0.0600 
    230 H230       -4.2216  -16.8759  -51.5479 H         1 UNK         0.3000 
    231 H231       -6.1836  -15.5268  -53.2090 H         1 UNK         0.0600 
    232 H232       -6.4852  -17.4275  -50.8222 H         1 UNK         0.0600 
    233 H233       -6.4165  -15.6664  -50.7381 H         1 UNK         0.0600 
    234 H234       -7.7719  -16.4562  -51.5269 H         1 UNK         0.0600 
    235 H235       -4.7370  -18.7228  -53.3030 H         1 UNK         0.3000 
    236 H236       -6.9140  -19.7108  -55.1023 H         1 UNK         0.0600 
    237 H237       -6.8561  -21.8741  -53.8658 H         1 UNK         0.0600 
    238 H238       -5.7247  -21.1926  -52.7043 H         1 UNK         0.0600 
    239 H239       -7.3657  -20.5598  -52.8176 H         1 UNK         0.0600 
    240 H240       -3.4518  -19.6188  -54.4090 H         1 UNK         0.3000 
    241 H241       -2.7793  -21.8811  -55.9639 H         1 UNK         0.0600 
    242 H242       -3.1693  -19.1458  -58.8881 H         1 UNK         0.3800 
    243 H243       -3.8358  -18.8821  -57.2967 H         1 UNK         0.3800 
    244 H244       -0.4928  -21.2991  -55.6446 H         1 UNK         0.0800 
    245 H245       -1.3456  -20.9583  -54.1664 H         1 UNK         0.0800 
    246 H246        1.5203  -20.1372  -55.2429 H         1 UNK         0.0800 
    247 H247        1.7553  -18.4143  -55.2627 H         1 UNK         0.0800 
@<TRIPOS>BOND
     1    1    2 1    
     2    1  127 1    
     3    1  128 1    
     4    1  129 1    
     5    2    3 2    
     6    2    4 am   BACKBONE|DICT|INTERRES
     7    4    5 1    
     8    4  130 1    
     9    5    6 1    
    10    5   65 1    
    11    5  131 1    
    12    6    7 1    
    13    6  132 1    
    14    6  133 1    
    15    7    8 1    
    16    8    9 1    
    17    8  134 1    
    18    8  135 1    
    19    9   10 ar   
    20    9   14 ar   
    21   10   11 ar   
    22   10  136 1    
    23   11   12 ar   
    24   11  126 1    
    25   12   13 ar   
    26   12  137 1    
    27   13   14 ar   
    28   13   15 1    
    29   14  138 1    
    30   15   16 1    
    31   15  139 1    
    32   15  140 1    
    33   16   17 1    
    34   17   18 1    
    35   17  141 1    
    36   17  142 1    
    37   18   19 1    
    38   18   67 1    
    39   18  143 1    
    40   19   20 am   BACKBONE|DICT|INTERRES
    41   19  144 1    
    42   20   21 2    
    43   20   22 1    
    44   22   23 1    
    45   22   24 1    
    46   22  145 1    
    47   23  146 1    
    48   23  147 1    
    49   23  148 1    
    50   24   25 am   BACKBONE|DICT|INTERRES
    51   24  149 1    
    52   25   26 2    
    53   25   27 1    
    54   27   28 1    
    55   27   29 1    
    56   27  150 1    
    57   28  151 1    
    58   28  152 1    
    59   28  153 1    
    60   29   30 am   BACKBONE|DICT|INTERRES
    61   29  154 1    
    62   30   31 2    
    63   30   32 1    
    64   32   33 1    
    65   32   34 1    
    66   32  155 1    
    67   33  156 1    
    68   33  157 1    
    69   33  158 1    
    70   34   35 am   BACKBONE|DICT|INTERRES
    71   34  159 1    
    72   35   36 2    
    73   35   37 1    
    74   37   38 1    
    75   37   39 1    
    76   37  160 1    
    77   38  161 1    
    78   38  162 1    
    79   38  163 1    
    80   39   40 am   BACKBONE|DICT|INTERRES
    81   39  164 1    
    82   40   41 2    
    83   40   42 1    
    84   42   43 1    
    85   42   44 1    
    86   42  165 1    
    87   43  166 1    
    88   43  167 1    
    89   43  168 1    
    90   44   45 am   BACKBONE|DICT|INTERRES
    91   44  169 1    
    92   45   46 2    
    93   45   47 1    
    94   47   48 1    
    95   47   49 1    
    96   47  170 1    
    97   48  171 1    
    98   48  172 1    
    99   48  173 1    
   100   49   50 am   BACKBONE|DICT|INTERRES
   101   49  174 1    
   102   50   51 2    
   103   50   52 1    
   104   52   53 1    
   105   52   54 1    
   106   52  175 1    
   107   53  176 1    
   108   53  177 1    
   109   53  178 1    
   110   54   55 am   BACKBONE|DICT|INTERRES
   111   54  179 1    
   112   55   56 2    
   113   55   57 1    
   114   57   58 1    
   115   57   59 1    
   116   57  180 1    
   117   58  181 1    
   118   58  182 1    
   119   58  183 1    
   120   59   60 am   BACKBONE|DICT|INTERRES
   121   59  184 1    
   122   60   61 2    
   123   60   62 1    
   124   62   63 1    
   125   62   64 1    
   126   62  185 1    
   127   63  186 1    
   128   63  187 1    
   129   63  188 1    
   130   64   65 am   BACKBONE|DICT|INTERRES
   131   64  189 1    
   132   65   66 2    
   133   67   68 2    
   134   67   69 am   BACKBONE|DICT|INTERRES
   135   69   70 1    
   136   69  190 1    
   137   70   71 1    
   138   70   72 1    
   139   70  191 1    
   140   71  192 1    
   141   71  193 1    
   142   71  194 1    
   143   72   73 2    
   144   72   74 am   BACKBONE|DICT|INTERRES
   145   74   75 1    
   146   74  195 1    
   147   75   76 1    
   148   75   77 1    
   149   75  196 1    
   150   76  197 1    
   151   76  198 1    
   152   76  199 1    
   153   77   78 2    
   154   77   79 am   BACKBONE|DICT|INTERRES
   155   79   80 1    
   156   79  200 1    
   157   80   81 1    
   158   80   82 1    
   159   80  201 1    
   160   81  202 1    
   161   81  203 1    
   162   81  204 1    
   163   82   83 2    
   164   82   84 am   BACKBONE|DICT|INTERRES
   165   84   85 1    
   166   84  205 1    
   167   85   86 1    
   168   85   87 1    
   169   85  206 1    
   170   86  207 1    
   171   86  208 1    
   172   86  209 1    
   173   87   88 2    
   174   87   89 am   BACKBONE|DICT|INTERRES
   175   89   90 1    
   176   89  210 1    
   177   90   91 1    
   178   90   92 1    
   179   90  211 1    
   180   91  212 1    
   181   91  213 1    
   182   91  214 1    
   183   92   93 2    
   184   92   94 am   BACKBONE|DICT|INTERRES
   185   94   95 1    
   186   94  215 1    
   187   95   96 1    
   188   95   97 1    
   189   95  216 1    
   190   96  217 1    
   191   96  218 1    
   192   96  219 1    
   193   97   98 2    
   194   97   99 am   BACKBONE|DICT|INTERRES
   195   99  100 1    
   196   99  220 1    
   197  100  101 1    
   198  100  102 1    
   199  100  221 1    
   200  101  222 1    
   201  101  223 1    
   202  101  224 1    
   203  102  103 2    
   204  102  104 am   BACKBONE|DICT|INTERRES
   205  104  105 1    
   206  104  225 1    
   207  105  106 1    
   208  105  107 1    
   209  105  226 1    
   210  106  227 1    
   211  106  228 1    
   212  106  229 1    
   213  107  108 2    
   214  107  109 am   BACKBONE|DICT|INTERRES
   215  109  110 1    
   216  109  230 1    
   217  110  111 1    
   218  110  112 1    
   219  110  231 1    
   220  111  232 1    
   221  111  233 1    
   222  111  234 1    
   223  112  113 2    
   224  112  114 am   BACKBONE|DICT|INTERRES
   225  114  115 1    
   226  114  235 1    
   227  115  116 1    
   228  115  117 1    
   229  115  236 1    
   230  116  237 1    
   231  116  238 1    
   232  116  239 1    
   233  117  118 2    
   234  117  119 am   BACKBONE|DICT|INTERRES
   235  119  120 1    
   236  119  240 1    
   237  120  121 1    
   238  120  124 1    
   239  120  241 1    
   240  121  122 am   BACKBONE|DICT|INTERRES
   241  121  123 2    
   242  122  242 1    
   243  122  243 1    
   244  124  125 1    
   245  124  244 1    
   246  124  245 1    
   247  125  126 1    
   248  126  246 1    
   249  126  247 1    
@<TRIPOS>SUBSTRUCTURE
     1 UNK         1 GROUP             0       ****    0 ROOT    
