@<TRIPOS>MOLECULE
3R540
247   249    1
SMALL
USER_CHARGES


@<TRIPOS>ATOM
      1 CA         -3.3705  -16.9780  -43.3924 C.3       0 UNK        -0.1800 
      2 C          -3.5594  -16.3370  -44.7594 C.2       0 UNK         0.5000 
      3 O          -4.3774  -15.4285  -44.8960 O.2       0 UNK        -0.5000 
      4 N          -2.8138  -16.8135  -45.7676 N.am      1 UNK        -0.5000 
      5 CA         -2.8785  -16.3357  -47.1549 C.3       1 UNK         0.1400 
      6 C6         -2.1382  -17.2906  -48.1255 C.3       23 UNK        -0.0398 
      7 S7         -2.5394  -16.9860  -49.8837 S.3       23 UNK        -0.2404 
      8 C8         -1.0683  -16.0963  -50.4991 C.3       23 UNK        -0.0205 
      9 C9          0.1590  -16.9933  -50.5531 C.ar      23 UNK        -0.0193 
     10 C10         0.3140  -17.9174  -51.5910 C.ar      23 UNK        -0.1150 
     11 C11         1.3986  -18.7999  -51.5977 C.ar      23 UNK        -0.0193 
     12 C12         2.3569  -18.7192  -50.5846 C.ar      23 UNK        -0.1150 
     13 C13         2.2129  -17.7986  -49.5432 C.ar      23 UNK        -0.0193 
     14 C14         1.1219  -16.9260  -49.5427 C.ar      23 UNK        -0.1150 
     15 C15         3.1673  -17.8268  -48.3576 C.3       23 UNK        -0.0205 
     16 S16         3.1167  -19.4190  -47.4583 S.3       23 UNK        -0.2404 
     17 C17         1.3274  -19.7828  -47.3788 C.3       23 UNK        -0.0398 
     18 CA          1.0363  -21.2418  -46.9695 C.3       11 UNK         0.1400 
     19 N           1.3711  -21.5171  -45.5712 N.am      11 UNK        -0.5000 
     20 C           1.3796  -22.7380  -45.0175 C.2       10 UNK         0.5000 
     21 O           1.2395  -23.7805  -45.6561 O.2       10 UNK        -0.5000 
     22 CA          1.5058  -22.8018  -43.4836 C.3       10 UNK         0.1400 
     23 CB          2.9774  -22.8411  -43.0444 C.3       10 UNK        -0.1800 
     24 N           0.8184  -21.6843  -42.8321 N.am      10 UNK        -0.5000 
     25 C          -0.5133  -21.5229  -42.8256 C.2       9 UNK         0.5000 
     26 O          -1.3005  -22.3408  -43.2999 O.2       9 UNK        -0.5000 
     27 CA         -1.0520  -20.2031  -42.2483 C.3       9 UNK         0.1400 
     28 CB         -1.2407  -20.3052  -40.7281 C.3       9 UNK        -0.1800 
     29 N          -0.1744  -19.0768  -42.5679 N.am      9 UNK        -0.5000 
     30 C          -0.0960  -18.5069  -43.7798 C.2       8 UNK         0.5000 
     31 O          -0.8210  -18.8123  -44.7286 O.2       8 UNK        -0.5000 
     32 CA          0.9744  -17.4193  -43.9863 C.3       8 UNK         0.1400 
     33 CB          0.3556  -16.0305  -43.7981 C.3       8 UNK        -0.1800 
     34 N           2.1287  -17.5630  -43.1019 N.am      8 UNK        -0.5000 
     35 C           2.9848  -18.5951  -43.1452 C.2       7 UNK         0.5000 
     36 O           2.8930  -19.5086  -43.9639 O.2       7 UNK        -0.5000 
     37 CA          4.0876  -18.6556  -42.0685 C.3       7 UNK         0.1400 
     38 CB          5.4047  -18.0947  -42.6236 C.3       7 UNK        -0.1800 
     39 N           3.7484  -17.9431  -40.8342 N.am      7 UNK        -0.5000 
     40 C           2.6941  -18.2065  -40.0481 C.2       6 UNK         0.5000 
     41 O           1.9187  -19.1424  -40.2444 O.2       6 UNK        -0.5000 
     42 CA          2.4209  -17.2214  -38.8922 C.3       6 UNK         0.1400 
     43 CB          3.0007  -17.7652  -37.5781 C.3       6 UNK        -0.1800 
     44 N           2.9330  -15.8624  -39.1189 N.am      6 UNK        -0.5000 
     45 C           2.5906  -15.0663  -40.1414 C.2       5 UNK         0.5000 
     46 O           1.8136  -15.4031  -41.0390 O.2       5 UNK        -0.5000 
     47 CA          3.2673  -13.6900  -40.2005 C.3       5 UNK         0.1400 
     48 CB          4.7692  -13.8322  -40.5187 C.3       5 UNK        -0.1800 
     49 N           2.6112  -12.9008  -41.2373 N.am      5 UNK        -0.5000 
     50 C           2.6884  -11.5757  -41.3954 C.2       4 UNK         0.5000 
     51 O           3.3223  -10.8338  -40.6436 O.2       4 UNK        -0.5000 
     52 CA          1.9462  -10.9730  -42.6033 C.3       4 UNK         0.1400 
     53 CB          2.9178  -10.7672  -43.7762 C.3       4 UNK        -0.1800 
     54 N           0.8246  -11.7922  -43.0673 N.am      4 UNK        -0.5000 
     55 C          -0.3903  -11.8197  -42.5030 C.2       3 UNK         0.5000 
     56 O          -0.6690  -11.1964  -41.4776 O.2       3 UNK        -0.5000 
     57 CA         -1.4733  -12.6926  -43.1817 C.3       3 UNK         0.1400 
     58 CB         -2.8498  -11.9981  -43.2091 C.3       3 UNK        -0.1800 
     59 N          -1.1221  -13.1916  -44.5200 N.am      3 UNK        -0.5000 
     60 C          -0.8857  -12.4891  -45.6398 C.2       2 UNK         0.5000 
     61 O          -0.9241  -11.2612  -45.7087 O.2       2 UNK        -0.5000 
     62 CA         -0.5097  -13.3074  -46.8901 C.3       2 UNK         0.1400 
     63 CB          1.0168  -13.4593  -46.9895 C.3       2 UNK        -0.1800 
     64 N          -1.1235  -14.6385  -46.8979 N.am      2 UNK        -0.5000 
     65 C          -2.3887  -14.8754  -47.2740 C.2       1 UNK         0.5000 
     66 O          -3.1554  -14.0020  -47.6821 O.2       1 UNK        -0.5000 
     67 C          -0.4320  -21.5969  -47.2802 C.2       11 UNK         0.5000 
     68 O          -0.6854  -22.2900  -48.2634 O.2       11 UNK        -0.5000 
     69 N          -1.3700  -21.1409  -46.4341 N.am      12 UNK        -0.5000 
     70 CA         -2.8066  -21.4064  -46.5706 C.3       12 UNK         0.1400 
     71 CB         -3.5855  -20.6387  -45.4937 C.3       12 UNK        -0.1800 
     72 C          -3.1607  -22.9060  -46.5369 C.2       12 UNK         0.5000 
     73 O          -4.0397  -23.3443  -47.2819 O.2       12 UNK        -0.5000 
     74 N          -2.4252  -23.6700  -45.7171 N.am      13 UNK        -0.5000 
     75 CA         -2.5268  -25.1230  -45.5664 C.3       13 UNK         0.1400 
     76 CB         -1.6475  -25.5682  -44.3872 C.3       13 UNK        -0.1800 
     77 C          -2.1990  -25.9408  -46.8355 C.2       13 UNK         0.5000 
     78 O          -2.4956  -27.1362  -46.8573 O.2       13 UNK        -0.5000 
     79 N          -1.6387  -25.3078  -47.8797 N.am      14 UNK        -0.5000 
     80 CA         -1.4719  -25.9039  -49.2100 C.3       14 UNK         0.1400 
     81 CB         -0.4474  -25.0925  -50.0170 C.3       14 UNK        -0.1800 
     82 C          -2.8055  -26.0868  -49.9750 C.2       14 UNK         0.5000 
     83 O          -2.8271  -26.8217  -50.9630 O.2       14 UNK        -0.5000 
     84 N          -3.8934  -25.4805  -49.4695 N.am      15 UNK        -0.5000 
     85 CA         -5.2951  -25.7218  -49.8233 C.3       15 UNK         0.1400 
     86 CB         -5.7058  -27.1625  -49.4510 C.3       15 UNK        -0.1800 
     87 C          -5.6444  -25.3464  -51.2764 C.2       15 UNK         0.5000 
     88 O          -6.1633  -26.1737  -52.0284 O.2       15 UNK        -0.5000 
     89 N          -5.3731  -24.0808  -51.6184 N.am      16 UNK        -0.5000 
     90 CA         -5.6325  -23.4231  -52.9017 C.3       16 UNK         0.1400 
     91 CB         -7.1381  -23.3988  -53.2400 C.3       16 UNK        -0.1800 
     92 C          -4.7537  -24.0021  -54.0243 C.2       16 UNK         0.5000 
     93 O          -5.2584  -24.4298  -55.0643 O.2       16 UNK        -0.5000 
     94 N          -3.4388  -24.0195  -53.7731 N.am      17 UNK        -0.5000 
     95 CA         -2.4194  -24.5015  -54.7054 C.3       17 UNK         0.1400 
     96 CB         -1.1388  -24.8287  -53.9209 C.3       17 UNK        -0.1800 
     97 C          -2.1350  -23.5379  -55.8791 C.2       17 UNK         0.5000 
     98 O          -1.4653  -23.9442  -56.8301 O.2       17 UNK        -0.5000 
     99 N          -2.6423  -22.3003  -55.8114 N.am      18 UNK        -0.5000 
    100 CA        -2.5974  -21.3024  -56.8773 C.3       18 UNK         0.1400 
    101 CB        -1.7143  -20.1267  -56.4236 C.3       18 UNK        -0.1800 
    102 C         -4.0280  -20.8387  -57.2064 C.2       18 UNK         0.5000 
    103 O         -4.9854  -21.2428  -56.5410 O.2       18 UNK        -0.5000 
    104 N         -4.1547  -19.9996  -58.2417 N.am      19 UNK        -0.5000 
    105 CA        -5.4156  -19.4221  -58.7085 C.3       19 UNK         0.1400 
    106 CB        -5.1790  -18.7413  -60.0677 C.3       19 UNK        -0.1800 
    107 C         -6.0109  -18.4453  -57.6744 C.2       19 UNK         0.5000 
    108 O         -5.6118  -17.2799  -57.6343 O.2       19 UNK        -0.5000 
    109 N         -6.9323  -18.9592  -56.8463 N.am      20 UNK        -0.5000 
    110 CA        -7.6352  -18.2733  -55.7543 C.3       20 UNK         0.1400 
    111 CB        -8.5765  -17.1841  -56.3111 C.3       20 UNK        -0.1800 
    112 C         -6.6920  -17.7482  -54.6484 C.2       20 UNK         0.5000 
    113 O         -6.9643  -16.7085  -54.0447 O.2       20 UNK        -0.5000 
    114 N         -5.6013  -18.4798  -54.3975 N.am      21 UNK        -0.5000 
    115 CA        -4.5690  -18.1664  -53.4156 C.3       21 UNK         0.1400 
    116 CB        -3.6252  -17.0847  -53.9767 C.3       21 UNK        -0.1800 
    117 C         -3.8002  -19.4501  -53.0788 C.2       21 UNK         0.5000 
    118 O         -3.9813  -20.4703  -53.7483 O.2       21 UNK        -0.5000 
    119 N         -2.9249  -19.3718  -52.0704 N.am      22 UNK        -0.5000 
    120 CA        -2.0641  -20.4774  -51.6228 C.3       22 UNK         0.1400 
    121 C         -2.8795  -21.6152  -50.9399 C.2       22 UNK         0.5000 
    122 N         -3.8288  -21.2741  -50.0752 N.am      22 UNK        -0.7600 
    123 O         -2.7069  -22.7960  -51.2232 O.2       22 UNK        -0.5000 
    124 C124       -1.1024  -20.9485  -52.7548 C.3       23 UNK        -0.0398 
    125 S125        0.5761  -21.3742  -52.1841 S.3       23 UNK        -0.2404 
    126 C126        1.5144  -19.8818  -52.6596 C.3       23 UNK        -0.0205 
    127 H127       -3.1331  -18.0367  -43.4843 H         1 UNK         0.0600 
    128 H128       -4.2836  -16.8940  -42.8030 H         1 UNK         0.0600 
    129 H129       -2.5668  -16.4842  -42.8472 H         1 UNK         0.0600 
    130 H130       -2.1641  -17.5698  -45.5773 H         1 UNK         0.3000 
    131 H131       -3.9342  -16.3429  -47.4362 H         1 UNK         0.0600 
    132 H132       -2.4384  -18.3183  -47.9157 H         1 UNK         0.0800 
    133 H133       -1.0623  -17.2695  -47.9607 H         1 UNK         0.0800 
    134 H134       -0.8802  -15.2190  -49.8787 H         1 UNK         0.0800 
    135 H135       -1.2799  -15.7166  -51.4996 H         1 UNK         0.0800 
    136 H136       -0.4324  -17.9783  -52.3697 H         1 UNK         0.1150 
    137 H137        3.1829  -19.4164  -50.5691 H         1 UNK         0.1150 
    138 H138        0.9969  -16.2253  -48.7303 H         1 UNK         0.1150 
    139 H139        4.1842  -17.6464  -48.7082 H         1 UNK         0.0800 
    140 H140        2.9361  -17.0237  -47.6561 H         1 UNK         0.0800 
    141 H141        0.8869  -19.6062  -48.3597 H         1 UNK         0.0800 
    142 H142        0.8497  -19.0755  -46.7038 H         1 UNK         0.0800 
    143 H143        1.6555  -21.8940  -47.5897 H         1 UNK         0.0600 
    144 H144        1.6094  -20.7208  -44.9902 H         1 UNK         0.3000 
    145 H145        1.0313  -23.7275  -43.1506 H         1 UNK         0.0600 
    146 H146        3.0644  -22.9046  -41.9597 H         1 UNK         0.0600 
    147 H147        3.4815  -23.7132  -43.4625 H         1 UNK         0.0600 
    148 H148        3.5270  -21.9603  -43.3747 H         1 UNK         0.0600 
    149 H149        1.3984  -20.9545  -42.4444 H         1 UNK         0.3000 
    150 H150       -2.0310  -20.0178  -42.6928 H         1 UNK         0.0600 
    151 H151       -1.9630  -21.0837  -40.4798 H         1 UNK         0.0600 
    152 H152       -1.6149  -19.3694  -40.3127 H         1 UNK         0.0600 
    153 H153       -0.3094  -20.5516  -40.2181 H         1 UNK         0.0600 
    154 H154        0.4718  -18.7878  -41.8433 H         1 UNK         0.3000 
    155 H155        1.3333  -17.4944  -45.0142 H         1 UNK         0.0600 
    156 H156       -0.0559  -15.9058  -42.7959 H         1 UNK         0.0600 
    157 H157       -0.4583  -15.8802  -44.5027 H         1 UNK         0.0600 
    158 H158        1.0911  -15.2428  -43.9616 H         1 UNK         0.0600 
    159 H159        2.2306  -16.8606  -42.3765 H         1 UNK         0.3000 
    160 H160        4.2387  -19.7070  -41.8155 H         1 UNK         0.0600 
    161 H161        5.3194  -17.0348  -42.8672 H         1 UNK         0.0600 
    162 H162        5.6993  -18.6184  -43.5342 H         1 UNK         0.0600 
    163 H163        6.2174  -18.2111  -41.9063 H         1 UNK         0.0600 
    164 H164        4.3281  -17.1523  -40.5966 H         1 UNK         0.3000 
    165 H165        1.3369  -17.1488  -38.7833 H         1 UNK         0.0600 
    166 H166        2.7287  -17.1312  -36.7340 H         1 UNK         0.0600 
    167 H167        2.6195  -18.7653  -37.3666 H         1 UNK         0.0600 
    168 H168        4.0889  -17.8294  -37.6147 H         1 UNK         0.0600 
    169 H169        3.5861  -15.5148  -38.4314 H         1 UNK         0.3000 
    170 H170        3.1337  -13.1988  -39.2347 H         1 UNK         0.0600 
    171 H171        5.2835  -14.4198  -39.7576 H         1 UNK         0.0600 
    172 H172        4.9299  -14.3237  -41.4791 H         1 UNK         0.0600 
    173 H173        5.2625  -12.8610  -40.5560 H         1 UNK         0.0600 
    174 H174        2.0234  -13.4459  -41.8552 H         1 UNK         0.3000 
    175 H175        1.5655   -9.9944  -42.3026 H         1 UNK         0.0600 
    176 H176        3.3304  -11.7134  -44.1288 H         1 UNK         0.0600 
    177 H177        2.4225  -10.2822  -44.6178 H         1 UNK         0.0600 
    178 H178        3.7553  -10.1325  -43.4836 H         1 UNK         0.0600 
    179 H179        0.9688  -12.3214  -43.9131 H         1 UNK         0.3000 
    180 H180       -1.5702  -13.5782  -42.5520 H         1 UNK         0.0600 
    181 H181       -3.6045  -12.6399  -43.6645 H         1 UNK         0.0600 
    182 H182       -2.8209  -11.0636  -43.7700 H         1 UNK         0.0600 
    183 H183       -3.1927  -11.7629  -42.2009 H         1 UNK         0.0600 
    184 H184       -1.0689  -14.1950  -44.5960 H         1 UNK         0.3000 
    185 H185       -0.8503  -12.7503  -47.7658 H         1 UNK         0.0600 
    186 H186        1.3035  -13.9434  -47.9230 H         1 UNK         0.0600 
    187 H187        1.5085  -12.4856  -46.9700 H         1 UNK         0.0600 
    188 H188        1.4237  -14.0480  -46.1669 H         1 UNK         0.0600 
    189 H189       -0.5484  -15.4081  -46.5943 H         1 UNK         0.3000 
    190 H190       -1.0929  -20.5393  -45.6660 H         1 UNK         0.3000 
    191 H191       -3.1130  -21.0165  -47.5403 H         1 UNK         0.0600 
    192 H192       -4.6597  -20.7873  -45.6106 H         1 UNK         0.0600 
    193 H193       -3.3995  -19.5683  -45.5597 H         1 UNK         0.0600 
    194 H194       -3.3184  -20.9675  -44.4901 H         1 UNK         0.0600 
    195 H195       -1.7633  -23.2044  -45.1053 H         1 UNK         0.3000 
    196 H196       -3.5648  -25.3459  -45.3121 H         1 UNK         0.0600 
    197 H197       -0.5932  -25.3664  -44.5736 H         1 UNK         0.0600 
    198 H198       -1.9303  -25.0565  -43.4672 H         1 UNK         0.0600 
    199 H199       -1.7479  -26.6388  -44.2046 H         1 UNK         0.0600 
    200 H200       -1.4124  -24.3231  -47.7983 H         1 UNK         0.3000 
    201 H201       -1.0537  -26.9034  -49.0745 H         1 UNK         0.0600 
    202 H202       -0.7843  -24.0733  -50.1944 H         1 UNK         0.0600 
    203 H203       -0.2629  -25.5502  -50.9888 H         1 UNK         0.0600 
    204 H204        0.5090  -25.0381  -49.4970 H         1 UNK         0.0600 
    205 H205       -3.7534  -24.8515  -48.6860 H         1 UNK         0.3000 
    206 H206       -5.8799  -25.0518  -49.1912 H         1 UNK         0.0600 
    207 H207       -5.4898  -27.3750  -48.4038 H         1 UNK         0.0600 
    208 H208       -6.7758  -27.3136  -49.5987 H         1 UNK         0.0600 
    209 H209       -5.1848  -27.9041  -50.0573 H         1 UNK         0.0600 
    210 H210       -4.8189  -23.5368  -50.9716 H         1 UNK         0.3000 
    211 H211       -5.3246  -22.3873  -52.7694 H         1 UNK         0.0600 
    212 H212       -7.3217  -22.7947  -54.1294 H         1 UNK         0.0600 
    213 H213       -7.7179  -22.9633  -52.4264 H         1 UNK         0.0600 
    214 H214       -7.5316  -24.3958  -53.4384 H         1 UNK         0.0600 
    215 H215       -3.1121  -23.6652  -52.8770 H         1 UNK         0.3000 
    216 H216       -2.7796  -25.4331  -55.1468 H         1 UNK         0.0600 
    217 H217       -0.7458  -23.9601  -53.3942 H         1 UNK         0.0600 
    218 H218       -0.3532  -25.1945  -54.5830 H         1 UNK         0.0600 
    219 H219       -1.3267  -25.6081  -53.1825 H         1 UNK         0.0600 
    220 H220       -3.2435  -22.0527  -55.0325 H         1 UNK         0.3000 
    221 H221       -2.1749  -21.7311  -57.7881 H         1 UNK         0.0600 
    222 H222       -2.1533  -19.5937  -55.5816 H         1 UNK         0.0600 
    223 H223       -1.5724  -19.4044  -57.2279 H         1 UNK         0.0600 
    224 H224       -0.7247  -20.4712  -56.1226 H         1 UNK         0.0600 
    225 H225       -3.3232  -19.6954  -58.7265 H         1 UNK         0.3000 
    226 H226       -6.1276  -20.2351  -58.8667 H         1 UNK         0.0600 
    227 H227       -4.4288  -17.9523  -60.0015 H         1 UNK         0.0600 
    228 H228       -4.8437  -19.4602  -60.8154 H         1 UNK         0.0600 
    229 H229       -6.0985  -18.2894  -60.4419 H         1 UNK         0.0600 
    230 H230       -7.1217  -19.9499  -56.9231 H         1 UNK         0.3000 
    231 H231       -8.2594  -19.0294  -55.2763 H         1 UNK         0.0600 
    232 H232       -8.0215  -16.3552  -56.7513 H         1 UNK         0.0600 
    233 H233       -9.2082  -16.7720  -55.5233 H         1 UNK         0.0600 
    234 H234       -9.2388  -17.5887  -57.0764 H         1 UNK         0.0600 
    235 H235       -5.4548  -19.3544  -54.8901 H         1 UNK         0.3000 
    236 H236       -5.0391  -17.8063  -52.4982 H         1 UNK         0.0600 
    237 H237       -4.1624  -16.1594  -54.1845 H         1 UNK         0.0600 
    238 H238       -2.8319  -16.8409  -53.2696 H         1 UNK         0.0600 
    239 H239       -3.1525  -17.4085  -54.9046 H         1 UNK         0.0600 
    240 H240       -2.8426  -18.5092  -51.5475 H         1 UNK         0.3000 
    241 H241       -1.4536  -20.0582  -50.8223 H         1 UNK         0.0600 
    242 H242       -4.3415  -21.9827  -49.5783 H         1 UNK         0.3800 
    243 H243       -4.0216  -20.3034  -49.8906 H         1 UNK         0.3800 
    244 H244       -1.0001  -20.1688  -53.5084 H         1 UNK         0.0800 
    245 H245       -1.5189  -21.7948  -53.2970 H         1 UNK         0.0800 
    246 H246        2.5615  -20.1591  -52.7898 H         1 UNK         0.0800 
    247 H247        1.1836  -19.5063  -53.6289 H         1 UNK         0.0800 
@<TRIPOS>BOND
     1    1    2 1    
     2    1  127 1    
     3    1  128 1    
     4    1  129 1    
     5    2    3 2    
     6    2    4 am   BACKBONE|DICT|INTERRES
     7    4    5 1    
     8    4  130 1    
     9    5    6 1    
    10    5   65 1    
    11    5  131 1    
    12    6    7 1    
    13    6  132 1    
    14    6  133 1    
    15    7    8 1    
    16    8    9 1    
    17    8  134 1    
    18    8  135 1    
    19    9   10 ar   
    20    9   14 ar   
    21   10   11 ar   
    22   10  136 1    
    23   11   12 ar   
    24   11  126 1    
    25   12   13 ar   
    26   12  137 1    
    27   13   14 ar   
    28   13   15 1    
    29   14  138 1    
    30   15   16 1    
    31   15  139 1    
    32   15  140 1    
    33   16   17 1    
    34   17   18 1    
    35   17  141 1    
    36   17  142 1    
    37   18   19 1    
    38   18   67 1    
    39   18  143 1    
    40   19   20 am   BACKBONE|DICT|INTERRES
    41   19  144 1    
    42   20   21 2    
    43   20   22 1    
    44   22   23 1    
    45   22   24 1    
    46   22  145 1    
    47   23  146 1    
    48   23  147 1    
    49   23  148 1    
    50   24   25 am   BACKBONE|DICT|INTERRES
    51   24  149 1    
    52   25   26 2    
    53   25   27 1    
    54   27   28 1    
    55   27   29 1    
    56   27  150 1    
    57   28  151 1    
    58   28  152 1    
    59   28  153 1    
    60   29   30 am   BACKBONE|DICT|INTERRES
    61   29  154 1    
    62   30   31 2    
    63   30   32 1    
    64   32   33 1    
    65   32   34 1    
    66   32  155 1    
    67   33  156 1    
    68   33  157 1    
    69   33  158 1    
    70   34   35 am   BACKBONE|DICT|INTERRES
    71   34  159 1    
    72   35   36 2    
    73   35   37 1    
    74   37   38 1    
    75   37   39 1    
    76   37  160 1    
    77   38  161 1    
    78   38  162 1    
    79   38  163 1    
    80   39   40 am   BACKBONE|DICT|INTERRES
    81   39  164 1    
    82   40   41 2    
    83   40   42 1    
    84   42   43 1    
    85   42   44 1    
    86   42  165 1    
    87   43  166 1    
    88   43  167 1    
    89   43  168 1    
    90   44   45 am   BACKBONE|DICT|INTERRES
    91   44  169 1    
    92   45   46 2    
    93   45   47 1    
    94   47   48 1    
    95   47   49 1    
    96   47  170 1    
    97   48  171 1    
    98   48  172 1    
    99   48  173 1    
   100   49   50 am   BACKBONE|DICT|INTERRES
   101   49  174 1    
   102   50   51 2    
   103   50   52 1    
   104   52   53 1    
   105   52   54 1    
   106   52  175 1    
   107   53  176 1    
   108   53  177 1    
   109   53  178 1    
   110   54   55 am   BACKBONE|DICT|INTERRES
   111   54  179 1    
   112   55   56 2    
   113   55   57 1    
   114   57   58 1    
   115   57   59 1    
   116   57  180 1    
   117   58  181 1    
   118   58  182 1    
   119   58  183 1    
   120   59   60 am   BACKBONE|DICT|INTERRES
   121   59  184 1    
   122   60   61 2    
   123   60   62 1    
   124   62   63 1    
   125   62   64 1    
   126   62  185 1    
   127   63  186 1    
   128   63  187 1    
   129   63  188 1    
   130   64   65 am   BACKBONE|DICT|INTERRES
   131   64  189 1    
   132   65   66 2    
   133   67   68 2    
   134   67   69 am   BACKBONE|DICT|INTERRES
   135   69   70 1    
   136   69  190 1    
   137   70   71 1    
   138   70   72 1    
   139   70  191 1    
   140   71  192 1    
   141   71  193 1    
   142   71  194 1    
   143   72   73 2    
   144   72   74 am   BACKBONE|DICT|INTERRES
   145   74   75 1    
   146   74  195 1    
   147   75   76 1    
   148   75   77 1    
   149   75  196 1    
   150   76  197 1    
   151   76  198 1    
   152   76  199 1    
   153   77   78 2    
   154   77   79 am   BACKBONE|DICT|INTERRES
   155   79   80 1    
   156   79  200 1    
   157   80   81 1    
   158   80   82 1    
   159   80  201 1    
   160   81  202 1    
   161   81  203 1    
   162   81  204 1    
   163   82   83 2    
   164   82   84 am   BACKBONE|DICT|INTERRES
   165   84   85 1    
   166   84  205 1    
   167   85   86 1    
   168   85   87 1    
   169   85  206 1    
   170   86  207 1    
   171   86  208 1    
   172   86  209 1    
   173   87   88 2    
   174   87   89 am   BACKBONE|DICT|INTERRES
   175   89   90 1    
   176   89  210 1    
   177   90   91 1    
   178   90   92 1    
   179   90  211 1    
   180   91  212 1    
   181   91  213 1    
   182   91  214 1    
   183   92   93 2    
   184   92   94 am   BACKBONE|DICT|INTERRES
   185   94   95 1    
   186   94  215 1    
   187   95   96 1    
   188   95   97 1    
   189   95  216 1    
   190   96  217 1    
   191   96  218 1    
   192   96  219 1    
   193   97   98 2    
   194   97   99 am   BACKBONE|DICT|INTERRES
   195   99  100 1    
   196   99  220 1    
   197  100  101 1    
   198  100  102 1    
   199  100  221 1    
   200  101  222 1    
   201  101  223 1    
   202  101  224 1    
   203  102  103 2    
   204  102  104 am   BACKBONE|DICT|INTERRES
   205  104  105 1    
   206  104  225 1    
   207  105  106 1    
   208  105  107 1    
   209  105  226 1    
   210  106  227 1    
   211  106  228 1    
   212  106  229 1    
   213  107  108 2    
   214  107  109 am   BACKBONE|DICT|INTERRES
   215  109  110 1    
   216  109  230 1    
   217  110  111 1    
   218  110  112 1    
   219  110  231 1    
   220  111  232 1    
   221  111  233 1    
   222  111  234 1    
   223  112  113 2    
   224  112  114 am   BACKBONE|DICT|INTERRES
   225  114  115 1    
   226  114  235 1    
   227  115  116 1    
   228  115  117 1    
   229  115  236 1    
   230  116  237 1    
   231  116  238 1    
   232  116  239 1    
   233  117  118 2    
   234  117  119 am   BACKBONE|DICT|INTERRES
   235  119  120 1    
   236  119  240 1    
   237  120  121 1    
   238  120  124 1    
   239  120  241 1    
   240  121  122 am   BACKBONE|DICT|INTERRES
   241  121  123 2    
   242  122  242 1    
   243  122  243 1    
   244  124  125 1    
   245  124  244 1    
   246  124  245 1    
   247  125  126 1    
   248  126  246 1    
   249  126  247 1    
@<TRIPOS>SUBSTRUCTURE
     1 UNK         1 GROUP             0       ****    0 ROOT    
