@<TRIPOS>MOLECULE
3R540
247   249    1
SMALL
USER_CHARGES


@<TRIPOS>ATOM
      1 CA         -5.5193  -13.5343  -47.8103 C.3       0 UNK        -0.1800 
      2 C          -4.2283  -13.8414  -48.5549 C.2       0 UNK         0.5000 
      3 O          -3.3196  -13.0125  -48.5670 O.2       0 UNK        -0.5000 
      4 N          -4.1413  -15.0346  -49.1598 N.am      1 UNK        -0.5000 
      5 CA         -2.9988  -15.5327  -49.9417 C.3       1 UNK         0.1400 
      6 C6         -3.3627  -16.8886  -50.6059 C.3       23 UNK        -0.0398 
      7 S7         -2.0438  -17.6510  -51.6159 S.3       23 UNK        -0.2404 
      8 C8         -1.5721  -19.0689  -50.5755 C.3       23 UNK        -0.0205 
      9 C9         -0.0735  -19.3083  -50.6091 C.ar      23 UNK        -0.0193 
     10 C10         0.4871  -20.1193  -51.5960 C.ar      23 UNK        -0.1150 
     11 C11         1.8672  -20.3349  -51.6402 C.ar      23 UNK        -0.0193 
     12 C12         2.6863  -19.7464  -50.6706 C.ar      23 UNK        -0.1150 
     13 C13         2.1353  -18.9398  -49.6691 C.ar      23 UNK        -0.0193 
     14 C14         0.7542  -18.7246  -49.6475 C.ar      23 UNK        -0.1150 
     15 C15         3.0343  -18.2739  -48.6347 C.3       23 UNK        -0.0205 
     16 S16         3.4616  -19.3855  -47.2539 S.3       23 UNK        -0.2404 
     17 C17         1.8712  -19.5207  -46.3724 C.3       23 UNK        -0.0398 
     18 CA          1.1776  -20.8752  -46.6379 C.3       11 UNK         0.1400 
     19 N           1.9338  -22.0143  -46.1115 N.am      11 UNK        -0.5000 
     20 C           1.7031  -23.2952  -46.4290 C.2       10 UNK         0.5000 
     21 O           0.8353  -23.6591  -47.2206 O.2       10 UNK        -0.5000 
     22 CA          2.5579  -24.3499  -45.7035 C.3       10 UNK         0.1400 
     23 CB          3.9403  -24.4743  -46.3616 C.3       10 UNK        -0.1800 
     24 N           2.7209  -24.0503  -44.2807 N.am      10 UNK        -0.5000 
     25 C           1.7215  -24.0576  -43.3871 C.2       9 UNK         0.5000 
     26 O           0.5644  -24.3806  -43.6577 O.2       9 UNK        -0.5000 
     27 CA          2.0644  -23.5710  -41.9644 C.3       9 UNK         0.1400 
     28 CB          2.5741  -24.7369  -41.1044 C.3       9 UNK        -0.1800 
     29 N           3.0421  -22.4752  -41.9282 N.am      9 UNK        -0.5000 
     30 C           2.8726  -21.2874  -42.5244 C.2       8 UNK         0.5000 
     31 O           1.8959  -21.0156  -43.2233 O.2       8 UNK        -0.5000 
     32 CA          4.0083  -20.2591  -42.3716 C.3       8 UNK         0.1400 
     33 CB          5.1024  -20.5224  -43.4183 C.3       8 UNK        -0.1800 
     34 N           3.5155  -18.8922  -42.5467 N.am      8 UNK        -0.5000 
     35 C           2.7343  -18.2442  -41.6726 C.2       7 UNK         0.5000 
     36 O           2.4722  -18.6781  -40.5476 O.2       7 UNK        -0.5000 
     37 CA          2.1675  -16.8717  -42.1056 C.3       7 UNK         0.1400 
     38 CB          2.3410  -16.5539  -43.6066 C.3       7 UNK        -0.1800 
     39 N           0.7675  -16.6983  -41.7060 N.am      7 UNK        -0.5000 
     40 C          -0.2732  -17.4846  -42.0248 C.2       6 UNK         0.5000 
     41 O          -0.1989  -18.4455  -42.7877 O.2       6 UNK        -0.5000 
     42 CA         -1.6369  -17.1440  -41.3902 C.3       6 UNK         0.1400 
     43 CB         -1.9023  -18.0485  -40.1768 C.3       6 UNK        -0.1800 
     44 N          -1.7389  -15.7442  -40.9724 N.am      6 UNK        -0.5000 
     45 C          -1.9586  -14.7263  -41.8139 C.2       5 UNK         0.5000 
     46 O          -2.2015  -14.8743  -43.0121 O.2       5 UNK        -0.5000 
     47 CA         -1.8673  -13.2933  -41.2509 C.3       5 UNK         0.1400 
     48 CB         -1.6526  -13.2079  -39.7222 C.3       5 UNK        -0.1800 
     49 N          -0.8388  -12.5430  -41.9756 N.am      5 UNK        -0.5000 
     50 C           0.4668  -12.8363  -42.0560 C.2       4 UNK         0.5000 
     51 O           1.0159  -13.7129  -41.3853 O.2       4 UNK        -0.5000 
     52 CA          1.2707  -12.0388  -43.1017 C.3       4 UNK         0.1400 
     53 CB          2.7736  -12.3711  -43.0772 C.3       4 UNK        -0.1800 
     54 N           0.7612  -12.2814  -44.4523 N.am      4 UNK        -0.5000 
     55 C          -0.3082  -11.7035  -45.0099 C.2       3 UNK         0.5000 
     56 O          -1.0160  -10.8845  -44.4213 O.2       3 UNK        -0.5000 
     57 CA         -0.6525  -12.1024  -46.4587 C.3       3 UNK         0.1400 
     58 CB          0.4162  -11.6023  -47.4496 C.3       3 UNK        -0.1800 
     59 N          -0.9349  -13.5292  -46.6584 N.am      3 UNK        -0.5000 
     60 C          -0.1201  -14.5846  -46.5082 C.2       2 UNK         0.5000 
     61 O           1.0476  -14.5028  -46.1267 O.2       2 UNK        -0.5000 
     62 CA         -0.6882  -15.9715  -46.8765 C.3       2 UNK         0.1400 
     63 CB         -1.1336  -16.7437  -45.6295 C.3       2 UNK        -0.1800 
     64 N          -1.8034  -15.9292  -47.8242 N.am      2 UNK        -0.5000 
     65 C          -1.6887  -15.5917  -49.1164 C.2       1 UNK         0.5000 
     66 O          -0.6169  -15.2988  -49.6474 O.2       1 UNK        -0.5000 
     67 C          -0.2646  -20.8624  -46.1022 C.2       11 UNK         0.5000 
     68 O          -1.1792  -20.5745  -46.8703 O.2       11 UNK        -0.5000 
     69 N          -0.4512  -21.2123  -44.8216 N.am      12 UNK        -0.5000 
     70 CA         -1.7584  -21.3651  -44.1820 C.3       12 UNK         0.1400 
     71 CB         -1.5779  -21.6429  -42.6808 C.3       12 UNK        -0.1800 
     72 C          -2.5977  -22.4742  -44.8409 C.2       12 UNK         0.5000 
     73 O          -3.7673  -22.2488  -45.1534 O.2       12 UNK        -0.5000 
     74 N          -1.9711  -23.6352  -45.0822 N.am      13 UNK        -0.5000 
     75 CA         -2.5682  -24.7662  -45.7925 C.3       13 UNK         0.1400 
     76 CB         -1.6290  -25.9787  -45.7126 C.3       13 UNK        -0.1800 
     77 C          -2.9080  -24.4294  -47.2553 C.2       13 UNK         0.5000 
     78 O          -4.0000  -24.7585  -47.7173 O.2       13 UNK        -0.5000 
     79 N          -1.9873  -23.7447  -47.9459 N.am      14 UNK        -0.5000 
     80 CA         -2.1670  -23.2711  -49.3164 C.3       14 UNK         0.1400 
     81 CB         -0.8276  -22.7522  -49.8507 C.3       14 UNK        -0.1800 
     82 C          -3.2705  -22.2042  -49.4428 C.2       14 UNK         0.5000 
     83 O          -4.0263  -22.2320  -50.4132 O.2       14 UNK        -0.5000 
     84 N          -3.3727  -21.3016  -48.4574 N.am      15 UNK        -0.5000 
     85 CA         -4.4341  -20.3003  -48.3574 C.3       15 UNK         0.1400 
     86 CB         -4.0880  -19.2657  -47.2750 C.3       15 UNK        -0.1800 
     87 C          -5.8107  -20.9330  -48.0962 C.2       15 UNK         0.5000 
     88 O          -6.7871  -20.5174  -48.7191 O.2       15 UNK        -0.5000 
     89 N          -5.8611  -21.9578  -47.2324 N.am      16 UNK        -0.5000 
     90 CA         -7.0593  -22.7610  -46.9693 C.3       16 UNK         0.1400 
     91 CB         -6.8064  -23.6899  -45.7724 C.3       16 UNK        -0.1800 
     92 C          -7.5229  -23.5622  -48.2029 C.2       16 UNK         0.5000 
     93 O          -8.7264  -23.6851  -48.4322 O.2       16 UNK        -0.5000 
     94 N          -6.5607  -24.0501  -48.9979 N.am      17 UNK        -0.5000 
     95 CA         -6.7812  -24.7001  -50.2925 C.3       17 UNK         0.1400 
     96 CB         -5.5310  -25.5193  -50.6516 C.3       17 UNK        -0.1800 
     97 C          -7.1247  -23.7136  -51.4312 C.2       17 UNK         0.5000 
     98 O          -7.5090  -24.1619  -52.5121 O.2       17 UNK        -0.5000 
     99 N          -6.9744  -22.4048  -51.1768 N.am      18 UNK        -0.5000 
    100 CA        -7.1779  -21.2764  -52.0893 C.3       18 UNK         0.1400 
    101 CB        -8.6619  -21.1537  -52.4926 C.3       18 UNK        -0.1800 
    102 C         -6.2173  -21.2946  -53.2965 C.2       18 UNK         0.5000 
    103 O         -6.6150  -20.9531  -54.4127 O.2       18 UNK        -0.5000 
    104 N         -4.9542  -21.6713  -53.0548 N.am      19 UNK        -0.5000 
    105 CA        -3.8813  -21.7697  -54.0483 C.3       19 UNK         0.1400 
    106 CB        -2.8079  -22.7357  -53.5202 C.3       19 UNK        -0.1800 
    107 C         -3.2956  -20.3935  -54.4376 C.2       19 UNK         0.5000 
    108 O         -2.0790  -20.1994  -54.4022 O.2       19 UNK        -0.5000 
    109 N         -4.1746  -19.4618  -54.8302 N.am      20 UNK        -0.5000 
    110 CA        -3.8580  -18.0853  -55.2265 C.3       20 UNK         0.1400 
    111 CB        -5.1699  -17.3162  -55.4400 C.3       20 UNK        -0.1800 
    112 C         -2.9545  -17.9780  -56.4719 C.2       20 UNK         0.5000 
    113 O         -2.2708  -16.9671  -56.6408 O.2       20 UNK        -0.5000 
    114 N         -2.9224  -19.0404  -57.2908 N.am      21 UNK        -0.5000 
    115 CA        -2.0335  -19.2200  -58.4436 C.3       21 UNK         0.1400 
    116 CB        -2.4009  -20.5354  -59.1475 C.3       21 UNK        -0.1800 
    117 C         -0.5288  -19.1963  -58.0938 C.2       21 UNK         0.5000 
    118 O          0.2924  -18.9676  -58.9828 O.2       21 UNK        -0.5000 
    119 N         -0.1961  -19.4040  -56.8123 N.am      22 UNK        -0.5000 
    120 CA         1.1370  -19.1831  -56.2335 C.3       22 UNK         0.1400 
    121 C          1.6018  -17.6921  -56.2498 C.2       22 UNK         0.5000 
    122 N          0.7086  -16.7140  -56.3648 N.am      22 UNK        -0.7600 
    123 O          2.7957  -17.4154  -56.1780 O.2       22 UNK        -0.5000 
    124 C124        1.1913  -19.7724  -54.8022 C.3       23 UNK        -0.0398 
    125 S125        2.8632  -20.2333  -54.2331 S.3       23 UNK        -0.2404 
    126 C126        2.4674  -21.2007  -52.7390 C.3       23 UNK        -0.0205 
    127 H127       -5.9899  -12.6444  -48.2283 H         1 UNK         0.0600 
    128 H128       -5.3090  -13.3469  -46.7573 H         1 UNK         0.0600 
    129 H129       -6.2313  -14.3575  -47.8738 H         1 UNK         0.0600 
    130 H130       -4.9359  -15.6557  -49.1075 H         1 UNK         0.3000 
    131 H131       -2.8266  -14.8104  -50.7425 H         1 UNK         0.0600 
    132 H132       -4.2195  -16.7434  -51.2654 H         1 UNK         0.0800 
    133 H133       -3.6996  -17.5967  -49.8496 H         1 UNK         0.0800 
    134 H134       -1.8795  -18.9147  -49.5412 H         1 UNK         0.0800 
    135 H135       -2.1038  -19.9525  -50.9296 H         1 UNK         0.0800 
    136 H136       -0.1546  -20.5703  -52.3403 H         1 UNK         0.1150 
    137 H137        3.7547  -19.9086  -50.6998 H         1 UNK         0.1150 
    138 H138        0.3172  -18.0965  -48.8878 H         1 UNK         0.1150 
    139 H139        3.9575  -17.9504  -49.1177 H         1 UNK         0.0800 
    140 H140        2.5677  -17.3673  -48.2458 H         1 UNK         0.0800 
    141 H141        1.2297  -18.6886  -46.6654 H         1 UNK         0.0800 
    142 H142        2.0569  -19.3925  -45.3059 H         1 UNK         0.0800 
    143 H143        1.1086  -21.0042  -47.7199 H         1 UNK         0.0600 
    144 H144        2.6220  -21.8036  -45.4050 H         1 UNK         0.3000 
    145 H145        2.0482  -25.3117  -45.7927 H         1 UNK         0.0600 
    146 H146        4.5253  -25.2711  -45.9021 H         1 UNK         0.0600 
    147 H147        3.8464  -24.7113  -47.4223 H         1 UNK         0.0600 
    148 H148        4.5115  -23.5484  -46.2817 H         1 UNK         0.0600 
    149 H149        3.6406  -23.7734  -43.9716 H         1 UNK         0.3000 
    150 H150        1.1405  -23.1986  -41.5175 H         1 UNK         0.0600 
    151 H151        3.5203  -25.1302  -41.4782 H         1 UNK         0.0600 
    152 H152        1.8569  -25.5589  -41.0966 H         1 UNK         0.0600 
    153 H153        2.7230  -24.4285  -40.0694 H         1 UNK         0.0600 
    154 H154        3.8784  -22.6374  -41.3857 H         1 UNK         0.3000 
    155 H155        4.4392  -20.3532  -41.3727 H         1 UNK         0.0600 
    156 H156        4.7165  -20.4409  -44.4354 H         1 UNK         0.0600 
    157 H157        5.5227  -21.5226  -43.3060 H         1 UNK         0.0600 
    158 H158        5.9248  -19.8142  -43.3152 H         1 UNK         0.0600 
    159 H159        3.6638  -18.4767  -43.4536 H         1 UNK         0.3000 
    160 H160        2.7320  -16.1238  -41.5471 H         1 UNK         0.0600 
    161 H161        1.8579  -17.2967  -44.2399 H         1 UNK         0.0600 
    162 H162        3.3933  -16.5033  -43.8876 H         1 UNK         0.0600 
    163 H163        1.9028  -15.5854  -43.8445 H         1 UNK         0.0600 
    164 H164        0.5939  -15.8939  -41.1175 H         1 UNK         0.3000 
    165 H165       -2.4070  -17.3473  -42.1378 H         1 UNK         0.0600 
    166 H166       -2.8893  -17.8623  -39.7532 H         1 UNK         0.0600 
    167 H167       -1.8644  -19.1013  -40.4602 H         1 UNK         0.0600 
    168 H168       -1.1624  -17.8944  -39.3903 H         1 UNK         0.0600 
    169 H169       -1.5445  -15.5410  -40.0027 H         1 UNK         0.3000 
    170 H170       -2.8202  -12.8135  -41.4784 H         1 UNK         0.0600 
    171 H171       -2.4713  -13.6873  -39.1843 H         1 UNK         0.0600 
    172 H172       -0.7229  -13.6783  -39.4014 H         1 UNK         0.0600 
    173 H173       -1.6227  -12.1688  -39.3943 H         1 UNK         0.0600 
    174 H174       -1.1845  -11.8430  -42.6239 H         1 UNK         0.3000 
    175 H175        1.1597  -10.9793  -42.8621 H         1 UNK         0.0600 
    176 H176        2.9606  -13.4161  -43.3266 H         1 UNK         0.0600 
    177 H177        3.3240  -11.7547  -43.7880 H         1 UNK         0.0600 
    178 H178        3.1992  -12.1864  -42.0901 H         1 UNK         0.0600 
    179 H179        1.2093  -13.0229  -44.9850 H         1 UNK         0.3000 
    180 H180       -1.5824  -11.5880  -46.7069 H         1 UNK         0.0600 
    181 H181        1.3833  -12.0789  -47.2879 H         1 UNK         0.0600 
    182 H182        0.5633  -10.5260  -47.3527 H         1 UNK         0.0600 
    183 H183        0.1160  -11.7980  -48.4792 H         1 UNK         0.0600 
    184 H184       -1.8619  -13.7152  -47.0188 H         1 UNK         0.3000 
    185 H185        0.1334  -16.5233  -47.3332 H         1 UNK         0.0600 
    186 H186       -0.3677  -16.7060  -44.8568 H         1 UNK         0.0600 
    187 H187       -2.0477  -16.3302  -45.2042 H         1 UNK         0.0600 
    188 H188       -1.3151  -17.7945  -45.8563 H         1 UNK         0.0600 
    189 H189       -2.7215  -16.1270  -47.4550 H         1 UNK         0.3000 
    190 H190        0.3668  -21.3410  -44.2303 H         1 UNK         0.3000 
    191 H191       -2.2928  -20.4195  -44.2941 H         1 UNK         0.0600 
    192 H192       -0.9663  -20.8784  -42.2035 H         1 UNK         0.0600 
    193 H193       -2.5415  -21.6551  -42.1706 H         1 UNK         0.0600 
    194 H194       -1.1005  -22.6055  -42.5008 H         1 UNK         0.0600 
    195 H195       -1.0155  -23.7524  -44.7598 H         1 UNK         0.3000 
    196 H196       -3.5006  -25.0241  -45.2862 H         1 UNK         0.0600 
    197 H197       -2.0586  -26.8406  -46.2246 H         1 UNK         0.0600 
    198 H198       -1.4506  -26.2701  -44.6773 H         1 UNK         0.0600 
    199 H199       -0.6617  -25.7711  -46.1711 H         1 UNK         0.0600 
    200 H200       -1.0868  -23.5548  -47.5154 H         1 UNK         0.3000 
    201 H201       -2.4631  -24.1256  -49.9279 H         1 UNK         0.0600 
    202 H202       -0.9139  -22.4416  -50.8895 H         1 UNK         0.0600 
    203 H203       -0.0598  -23.5247  -49.8119 H         1 UNK         0.0600 
    204 H204       -0.4712  -21.8971  -49.2772 H         1 UNK         0.0600 
    205 H205       -2.6607  -21.2810  -47.7307 H         1 UNK         0.3000 
    206 H206       -4.4914  -19.7822  -49.3163 H         1 UNK         0.0600 
    207 H207       -3.1533  -18.7531  -47.4997 H         1 UNK         0.0600 
    208 H208       -4.8655  -18.5049  -47.1974 H         1 UNK         0.0600 
    209 H209       -3.9828  -19.7298  -46.2940 H         1 UNK         0.0600 
    210 H210       -5.0218  -22.2065  -46.7172 H         1 UNK         0.3000 
    211 H211       -7.8656  -22.0758  -46.6997 H         1 UNK         0.0600 
    212 H212       -5.9984  -24.3940  -45.9700 H         1 UNK         0.0600 
    213 H213       -7.6978  -24.2715  -45.5348 H         1 UNK         0.0600 
    214 H214       -6.5418  -23.1204  -44.8812 H         1 UNK         0.0600 
    215 H215       -5.5967  -23.9760  -48.6887 H         1 UNK         0.3000 
    216 H216       -7.6221  -25.3894  -50.1937 H         1 UNK         0.0600 
    217 H217       -5.6794  -26.0763  -51.5774 H         1 UNK         0.0600 
    218 H218       -5.2950  -26.2432  -49.8714 H         1 UNK         0.0600 
    219 H219       -4.6591  -24.8803  -50.7908 H         1 UNK         0.0600 
    220 H220       -6.6386  -22.1503  -50.2572 H         1 UNK         0.3000 
    221 H221       -6.9212  -20.3818  -51.5206 H         1 UNK         0.0600 
    222 H222       -8.9828  -21.9848  -53.1210 H         1 UNK         0.0600 
    223 H223       -9.3069  -21.1277  -51.6143 H         1 UNK         0.0600 
    224 H224       -8.8399  -20.2345  -53.0518 H         1 UNK         0.0600 
    225 H225       -4.6951  -21.9054  -52.0978 H         1 UNK         0.3000 
    226 H226       -4.2957  -22.2075  -54.9586 H         1 UNK         0.0600 
    227 H227       -3.2372  -23.7031  -53.2590 H         1 UNK         0.0600 
    228 H228       -2.0339  -22.9123  -54.2681 H         1 UNK         0.0600 
    229 H229       -2.3223  -22.3333  -52.6332 H         1 UNK         0.0600 
    230 H230       -5.1548  -19.7277  -54.8394 H         1 UNK         0.3000 
    231 H231       -3.3195  -17.6198  -54.3992 H         1 UNK         0.0600 
    232 H232       -5.7684  -17.7575  -56.2380 H         1 UNK         0.0600 
    233 H233       -4.9756  -16.2772  -55.7096 H         1 UNK         0.0600 
    234 H234       -5.7737  -17.3078  -54.5323 H         1 UNK         0.0600 
    235 H235       -3.5221  -19.8196  -57.0643 H         1 UNK         0.3000 
    236 H236       -2.2179  -18.3951  -59.1346 H         1 UNK         0.0600 
    237 H237       -3.4403  -20.5311  -59.4766 H         1 UNK         0.0600 
    238 H238       -1.7828  -20.6919  -60.0326 H         1 UNK         0.0600 
    239 H239       -2.2584  -21.3951  -58.4914 H         1 UNK         0.0600 
    240 H240       -0.9359  -19.5972  -56.1473 H         1 UNK         0.3000 
    241 H241        1.8402  -19.7382  -56.8571 H         1 UNK         0.0600 
    242 H242       -0.2841  -16.9082  -56.4450 H         1 UNK         0.3800 
    243 H243        1.0275  -15.7585  -56.3831 H         1 UNK         0.3800 
    244 H244        0.7401  -19.0775  -54.0922 H         1 UNK         0.0800 
    245 H245        0.5886  -20.6808  -54.7569 H         1 UNK         0.0800 
    246 H246        1.7838  -22.0115  -52.9960 H         1 UNK         0.0800 
    247 H247        3.3794  -21.6775  -52.3770 H         1 UNK         0.0800 
@<TRIPOS>BOND
     1    1    2 1    
     2    1  127 1    
     3    1  128 1    
     4    1  129 1    
     5    2    3 2    
     6    2    4 am   BACKBONE|DICT|INTERRES
     7    4    5 1    
     8    4  130 1    
     9    5    6 1    
    10    5   65 1    
    11    5  131 1    
    12    6    7 1    
    13    6  132 1    
    14    6  133 1    
    15    7    8 1    
    16    8    9 1    
    17    8  134 1    
    18    8  135 1    
    19    9   10 ar   
    20    9   14 ar   
    21   10   11 ar   
    22   10  136 1    
    23   11   12 ar   
    24   11  126 1    
    25   12   13 ar   
    26   12  137 1    
    27   13   14 ar   
    28   13   15 1    
    29   14  138 1    
    30   15   16 1    
    31   15  139 1    
    32   15  140 1    
    33   16   17 1    
    34   17   18 1    
    35   17  141 1    
    36   17  142 1    
    37   18   19 1    
    38   18   67 1    
    39   18  143 1    
    40   19   20 am   BACKBONE|DICT|INTERRES
    41   19  144 1    
    42   20   21 2    
    43   20   22 1    
    44   22   23 1    
    45   22   24 1    
    46   22  145 1    
    47   23  146 1    
    48   23  147 1    
    49   23  148 1    
    50   24   25 am   BACKBONE|DICT|INTERRES
    51   24  149 1    
    52   25   26 2    
    53   25   27 1    
    54   27   28 1    
    55   27   29 1    
    56   27  150 1    
    57   28  151 1    
    58   28  152 1    
    59   28  153 1    
    60   29   30 am   BACKBONE|DICT|INTERRES
    61   29  154 1    
    62   30   31 2    
    63   30   32 1    
    64   32   33 1    
    65   32   34 1    
    66   32  155 1    
    67   33  156 1    
    68   33  157 1    
    69   33  158 1    
    70   34   35 am   BACKBONE|DICT|INTERRES
    71   34  159 1    
    72   35   36 2    
    73   35   37 1    
    74   37   38 1    
    75   37   39 1    
    76   37  160 1    
    77   38  161 1    
    78   38  162 1    
    79   38  163 1    
    80   39   40 am   BACKBONE|DICT|INTERRES
    81   39  164 1    
    82   40   41 2    
    83   40   42 1    
    84   42   43 1    
    85   42   44 1    
    86   42  165 1    
    87   43  166 1    
    88   43  167 1    
    89   43  168 1    
    90   44   45 am   BACKBONE|DICT|INTERRES
    91   44  169 1    
    92   45   46 2    
    93   45   47 1    
    94   47   48 1    
    95   47   49 1    
    96   47  170 1    
    97   48  171 1    
    98   48  172 1    
    99   48  173 1    
   100   49   50 am   BACKBONE|DICT|INTERRES
   101   49  174 1    
   102   50   51 2    
   103   50   52 1    
   104   52   53 1    
   105   52   54 1    
   106   52  175 1    
   107   53  176 1    
   108   53  177 1    
   109   53  178 1    
   110   54   55 am   BACKBONE|DICT|INTERRES
   111   54  179 1    
   112   55   56 2    
   113   55   57 1    
   114   57   58 1    
   115   57   59 1    
   116   57  180 1    
   117   58  181 1    
   118   58  182 1    
   119   58  183 1    
   120   59   60 am   BACKBONE|DICT|INTERRES
   121   59  184 1    
   122   60   61 2    
   123   60   62 1    
   124   62   63 1    
   125   62   64 1    
   126   62  185 1    
   127   63  186 1    
   128   63  187 1    
   129   63  188 1    
   130   64   65 am   BACKBONE|DICT|INTERRES
   131   64  189 1    
   132   65   66 2    
   133   67   68 2    
   134   67   69 am   BACKBONE|DICT|INTERRES
   135   69   70 1    
   136   69  190 1    
   137   70   71 1    
   138   70   72 1    
   139   70  191 1    
   140   71  192 1    
   141   71  193 1    
   142   71  194 1    
   143   72   73 2    
   144   72   74 am   BACKBONE|DICT|INTERRES
   145   74   75 1    
   146   74  195 1    
   147   75   76 1    
   148   75   77 1    
   149   75  196 1    
   150   76  197 1    
   151   76  198 1    
   152   76  199 1    
   153   77   78 2    
   154   77   79 am   BACKBONE|DICT|INTERRES
   155   79   80 1    
   156   79  200 1    
   157   80   81 1    
   158   80   82 1    
   159   80  201 1    
   160   81  202 1    
   161   81  203 1    
   162   81  204 1    
   163   82   83 2    
   164   82   84 am   BACKBONE|DICT|INTERRES
   165   84   85 1    
   166   84  205 1    
   167   85   86 1    
   168   85   87 1    
   169   85  206 1    
   170   86  207 1    
   171   86  208 1    
   172   86  209 1    
   173   87   88 2    
   174   87   89 am   BACKBONE|DICT|INTERRES
   175   89   90 1    
   176   89  210 1    
   177   90   91 1    
   178   90   92 1    
   179   90  211 1    
   180   91  212 1    
   181   91  213 1    
   182   91  214 1    
   183   92   93 2    
   184   92   94 am   BACKBONE|DICT|INTERRES
   185   94   95 1    
   186   94  215 1    
   187   95   96 1    
   188   95   97 1    
   189   95  216 1    
   190   96  217 1    
   191   96  218 1    
   192   96  219 1    
   193   97   98 2    
   194   97   99 am   BACKBONE|DICT|INTERRES
   195   99  100 1    
   196   99  220 1    
   197  100  101 1    
   198  100  102 1    
   199  100  221 1    
   200  101  222 1    
   201  101  223 1    
   202  101  224 1    
   203  102  103 2    
   204  102  104 am   BACKBONE|DICT|INTERRES
   205  104  105 1    
   206  104  225 1    
   207  105  106 1    
   208  105  107 1    
   209  105  226 1    
   210  106  227 1    
   211  106  228 1    
   212  106  229 1    
   213  107  108 2    
   214  107  109 am   BACKBONE|DICT|INTERRES
   215  109  110 1    
   216  109  230 1    
   217  110  111 1    
   218  110  112 1    
   219  110  231 1    
   220  111  232 1    
   221  111  233 1    
   222  111  234 1    
   223  112  113 2    
   224  112  114 am   BACKBONE|DICT|INTERRES
   225  114  115 1    
   226  114  235 1    
   227  115  116 1    
   228  115  117 1    
   229  115  236 1    
   230  116  237 1    
   231  116  238 1    
   232  116  239 1    
   233  117  118 2    
   234  117  119 am   BACKBONE|DICT|INTERRES
   235  119  120 1    
   236  119  240 1    
   237  120  121 1    
   238  120  124 1    
   239  120  241 1    
   240  121  122 am   BACKBONE|DICT|INTERRES
   241  121  123 2    
   242  122  242 1    
   243  122  243 1    
   244  124  125 1    
   245  124  244 1    
   246  124  245 1    
   247  125  126 1    
   248  126  246 1    
   249  126  247 1    
@<TRIPOS>SUBSTRUCTURE
     1 UNK         1 GROUP             0       ****    0 ROOT    
