@<TRIPOS>MOLECULE
3R540
247   249    1
SMALL
USER_CHARGES


@<TRIPOS>ATOM
      1 CA          3.4695  -10.6953  -52.3420 C.3       0 UNK        -0.1800 
      2 C           3.2120  -11.8000  -51.3270 C.2       0 UNK         0.5000 
      3 O           2.2751  -12.5758  -51.5049 O.2       0 UNK        -0.5000 
      4 N           4.0248  -11.8412  -50.2614 N.am      1 UNK        -0.5000 
      5 CA          4.0978  -12.7973  -49.1398 C.3       1 UNK         0.1400 
      6 C6          4.7264  -14.1715  -49.5083 C.3       23 UNK        -0.0398 
      7 S7          3.6557  -15.3359  -50.4226 S.3       23 UNK        -0.2404 
      8 C8          3.1001  -16.4231  -49.0737 C.3       23 UNK        -0.0205 
      9 C9          1.9287  -17.2852  -49.5097 C.ar      23 UNK        -0.0193 
     10 C10         0.6582  -16.7205  -49.6325 C.ar      23 UNK        -0.1150 
     11 C11        -0.4356  -17.5038  -50.0076 C.ar      23 UNK        -0.0193 
     12 C12        -0.2528  -18.8696  -50.2463 C.ar      23 UNK        -0.1150 
     13 C13         1.0147  -19.4518  -50.1229 C.ar      23 UNK        -0.0193 
     14 C14         2.1046  -18.6452  -49.7719 C.ar      23 UNK        -0.1150 
     15 C15         1.1849  -20.9494  -50.3760 C.3       23 UNK        -0.0205 
     16 S16         2.3911  -21.7771  -49.2762 S.3       23 UNK        -0.2404 
     17 C17         1.7231  -21.3837  -47.6216 C.3       23 UNK        -0.0398 
     18 CA          0.9581  -22.5448  -46.9463 C.3       11 UNK         0.1400 
     19 N           0.6315  -22.2204  -45.5572 N.am      11 UNK        -0.5000 
     20 C           0.0897  -23.0616  -44.6669 C.2       10 UNK         0.5000 
     21 O          -0.1426  -24.2476  -44.8970 O.2       10 UNK        -0.5000 
     22 CA         -0.3101  -22.4613  -43.3067 C.3       10 UNK         0.1400 
     23 CB          0.9075  -22.3433  -42.3784 C.3       10 UNK        -0.1800 
     24 N          -0.9638  -21.1573  -43.4401 N.am      10 UNK        -0.5000 
     25 C          -2.1332  -20.9642  -44.0689 C.2       9 UNK         0.5000 
     26 O          -2.8043  -21.8734  -44.5558 O.2       9 UNK        -0.5000 
     27 CA         -2.6195  -19.5126  -44.2176 C.3       9 UNK         0.1400 
     28 CB         -3.2927  -19.0331  -42.9234 C.3       9 UNK        -0.1800 
     29 N          -1.5490  -18.5896  -44.5957 N.am      9 UNK        -0.5000 
     30 C          -0.8607  -18.6559  -45.7453 C.2       8 UNK         0.5000 
     31 O          -1.0742  -19.4964  -46.6180 O.2       8 UNK        -0.5000 
     32 CA          0.3094  -17.6687  -45.9141 C.3       8 UNK         0.1400 
     33 CB         -0.1832  -16.2482  -46.2217 C.3       8 UNK        -0.1800 
     34 N           1.1645  -17.6190  -44.7318 N.am      8 UNK        -0.5000 
     35 C           1.8572  -18.6500  -44.2330 C.2       7 UNK         0.5000 
     36 O           1.8895  -19.7689  -44.7432 O.2       7 UNK        -0.5000 
     37 CA          2.6018  -18.3939  -42.9133 C.3       7 UNK         0.1400 
     38 CB          3.9494  -17.7022  -43.1697 C.3       7 UNK        -0.1800 
     39 N           1.8033  -17.5889  -41.9889 N.am      7 UNK        -0.5000 
     40 C           0.7009  -18.0259  -41.3647 C.2       6 UNK         0.5000 
     41 O           0.2539  -19.1672  -41.4817 O.2       6 UNK        -0.5000 
     42 CA         -0.0454  -16.9997  -40.4925 C.3       6 UNK         0.1400 
     43 CB          0.6485  -16.8318  -39.1324 C.3       6 UNK        -0.1800 
     44 N          -0.1716  -15.6928  -41.1412 N.am      6 UNK        -0.5000 
     45 C          -0.9100  -15.4696  -42.2368 C.2       5 UNK         0.5000 
     46 O          -1.5643  -16.3405  -42.8068 O.2       5 UNK        -0.5000 
     47 CA         -0.8954  -14.0452  -42.8176 C.3       5 UNK         0.1400 
     48 CB         -1.9301  -13.1617  -42.1055 C.3       5 UNK        -0.1800 
     49 N           0.4061  -13.3743  -42.7943 N.am      5 UNK        -0.5000 
     50 C           1.5519  -13.8495  -43.3003 C.2       4 UNK         0.5000 
     51 O           1.7021  -15.0049  -43.6989 O.2       4 UNK        -0.5000 
     52 CA          2.6926  -12.8253  -43.4390 C.3       4 UNK         0.1400 
     53 CB          4.0408  -13.4816  -43.7872 C.3       4 UNK        -0.1800 
     54 N           2.3372  -11.8676  -44.4857 N.am      4 UNK        -0.5000 
     55 C           1.5591  -10.7893  -44.3048 C.2       3 UNK         0.5000 
     56 O           1.1718  -10.4148  -43.1968 O.2       3 UNK        -0.5000 
     57 CA          1.0910  -10.0283  -45.5629 C.3       3 UNK         0.1400 
     58 CB          2.0404   -8.8605  -45.8695 C.3       3 UNK        -0.1800 
     59 N           0.9835  -10.8792  -46.7491 N.am      3 UNK        -0.5000 
     60 C           0.1444  -11.9159  -46.8906 C.2       2 UNK         0.5000 
     61 O          -0.7318  -12.2001  -46.0740 O.2       2 UNK        -0.5000 
     62 CA          0.3340  -12.8072  -48.1363 C.3       2 UNK         0.1400 
     63 CB         -0.7727  -12.5480  -49.1696 C.3       2 UNK        -0.1800 
     64 N           1.6396  -12.6838  -48.7959 N.am      2 UNK        -0.5000 
     65 C           2.8374  -12.9319  -48.2506 C.2       1 UNK         0.5000 
     66 O           2.9816  -13.2323  -47.0657 O.2       1 UNK        -0.5000 
     67 C          -0.2985  -22.9562  -47.7404 C.2       11 UNK         0.5000 
     68 O          -0.2886  -24.0066  -48.3808 O.2       11 UNK        -0.5000 
     69 N          -1.3678  -22.1515  -47.6564 N.am      12 UNK        -0.5000 
     70 CA         -2.6540  -22.4219  -48.2995 C.3       12 UNK         0.1400 
     71 CB         -3.5884  -21.2180  -48.1187 C.3       12 UNK        -0.1800 
     72 C          -3.3160  -23.7201  -47.8015 C.2       12 UNK         0.5000 
     73 O          -3.8486  -24.4743  -48.6163 O.2       12 UNK        -0.5000 
     74 N          -3.2332  -23.9803  -46.4891 N.am      13 UNK        -0.5000 
     75 CA         -3.6926  -25.2165  -45.8568 C.3       13 UNK         0.1400 
     76 CB         -3.6542  -25.0677  -44.3286 C.3       13 UNK        -0.1800 
     77 C          -2.8867  -26.4463  -46.3120 C.2       13 UNK         0.5000 
     78 O          -3.4876  -27.4613  -46.6643 O.2       13 UNK        -0.5000 
     79 N          -1.5511  -26.3257  -46.3448 N.am      14 UNK        -0.5000 
     80 CA         -0.6305  -27.3604  -46.8282 C.3       14 UNK         0.1400 
     81 CB          0.8178  -26.9384  -46.5388 C.3       14 UNK        -0.1800 
     82 C          -0.8161  -27.6803  -48.3240 C.2       14 UNK         0.5000 
     83 O          -0.7176  -28.8432  -48.7166 O.2       14 UNK        -0.5000 
     84 N          -1.1284  -26.6496  -49.1196 N.am      15 UNK        -0.5000 
     85 CA         -1.4870  -26.7463  -50.5344 C.3       15 UNK         0.1400 
     86 CB         -1.3081  -25.3632  -51.1843 C.3       15 UNK        -0.1800 
     87 C          -2.9184  -27.2696  -50.7766 C.2       15 UNK         0.5000 
     88 O          -3.2946  -27.4401  -51.9351 O.2       15 UNK        -0.5000 
     89 N          -3.7080  -27.4779  -49.7110 N.am      16 UNK        -0.5000 
     90 CA         -5.1114  -27.9086  -49.7206 C.3       16 UNK         0.1400 
     91 CB         -5.2266  -29.3724  -50.1940 C.3       16 UNK        -0.1800 
     92 C          -6.0237  -26.9423  -50.5071 C.2       16 UNK         0.5000 
     93 O          -6.9128  -27.3804  -51.2390 O.2       16 UNK        -0.5000 
     94 N          -5.7531  -25.6380  -50.3534 N.am      17 UNK        -0.5000 
     95 CA         -6.3973  -24.4953  -51.0061 C.3       17 UNK         0.1400 
     96 CB         -7.8992  -24.4252  -50.6601 C.3       17 UNK        -0.1800 
     97 C          -6.1325  -24.3844  -52.5239 C.2       17 UNK         0.5000 
     98 O          -6.7753  -23.5641  -53.1806 O.2       17 UNK        -0.5000 
     99 N          -5.1746  -25.1579  -53.0632 N.am      18 UNK        -0.5000 
    100 CA        -4.7451  -25.0669  -54.4643 C.3       18 UNK         0.1400 
    101 CB        -3.9048  -26.2963  -54.8372 C.3       18 UNK        -0.1800 
    102 C         -3.9624  -23.7732  -54.7593 C.2       18 UNK         0.5000 
    103 O         -4.0096  -23.2750  -55.8848 O.2       18 UNK        -0.5000 
    104 N         -3.2972  -23.2221  -53.7340 N.am      19 UNK        -0.5000 
    105 CA        -2.6201  -21.9241  -53.7496 C.3       19 UNK         0.1400 
    106 CB        -1.5184  -21.9277  -52.6741 C.3       19 UNK        -0.1800 
    107 C         -3.6301  -20.7703  -53.5643 C.2       19 UNK         0.5000 
    108 O         -3.5018  -19.9710  -52.6353 O.2       19 UNK        -0.5000 
    109 N         -4.6470  -20.7347  -54.4334 N.am      20 UNK        -0.5000 
    110 CA        -5.7253  -19.7521  -54.4383 C.3       20 UNK         0.1400 
    111 CB        -6.8381  -20.2421  -55.3785 C.3       20 UNK        -0.1800 
    112 C         -5.2002  -18.3674  -54.8814 C.2       20 UNK         0.5000 
    113 O         -4.6611  -18.2707  -55.9848 O.2       20 UNK        -0.5000 
    114 N         -5.3385  -17.3010  -54.0857 N.am      21 UNK        -0.5000 
    115 CA        -5.8237  -17.2435  -52.7104 C.3       21 UNK         0.1400 
    116 CB        -7.3599  -17.1490  -52.6936 C.3       21 UNK        -0.1800 
    117 C         -5.1831  -16.0259  -52.0324 C.2       21 UNK         0.5000 
    118 O         -4.7816  -15.0815  -52.7185 O.2       21 UNK        -0.5000 
    119 N         -5.0936  -16.0759  -50.7003 N.am      22 UNK        -0.5000 
    120 CA        -4.4336  -15.0544  -49.8704 C.3       22 UNK         0.1400 
    121 C         -5.3034  -13.7988  -49.5661 C.2       22 UNK         0.5000 
    122 N         -6.5744  -13.7575  -49.9469 N.am      22 UNK        -0.7600 
    123 O         -4.8121  -12.8385  -48.9800 O.2       22 UNK        -0.5000 
    124 C124       -3.8584  -15.6615  -48.5609 C.3       23 UNK        -0.0398 
    125 S125       -2.8825  -17.2007  -48.7427 S.3       23 UNK        -0.2404 
    126 C126       -1.8039  -16.8606  -50.1699 C.3       23 UNK        -0.0205 
    127 H127        4.3181  -10.0719  -52.0595 H         1 UNK         0.0600 
    128 H128        2.5917  -10.0552  -52.4303 H         1 UNK         0.0600 
    129 H129        3.6769  -11.1279  -53.3207 H         1 UNK         0.0600 
    130 H130        4.7316  -11.1206  -50.2096 H         1 UNK         0.3000 
    131 H131        4.8246  -12.3228  -48.4782 H         1 UNK         0.0600 
    132 H132        5.0828  -14.6643  -48.6020 H         1 UNK         0.0800 
    133 H133        5.6213  -14.0073  -50.1097 H         1 UNK         0.0800 
    134 H134        2.7966  -15.8306  -48.2099 H         1 UNK         0.0800 
    135 H135        3.9352  -17.0425  -48.7430 H         1 UNK         0.0800 
    136 H136        0.5265  -15.6651  -49.4413 H         1 UNK         0.1150 
    137 H137       -1.1031  -19.4766  -50.5256 H         1 UNK         0.1150 
    138 H138        3.0907  -19.0783  -49.6842 H         1 UNK         0.1150 
    139 H139        0.2256  -21.4584  -50.2748 H         1 UNK         0.0800 
    140 H140        1.5008  -21.0919  -51.4099 H         1 UNK         0.0800 
    141 H141        1.1015  -20.4903  -47.6661 H         1 UNK         0.0800 
    142 H142        2.5771  -21.1091  -47.0015 H         1 UNK         0.0800 
    143 H143        1.6226  -23.4109  -46.9196 H         1 UNK         0.0600 
    144 H144        0.8327  -21.2685  -45.2622 H         1 UNK         0.3000 
    145 H145       -1.0238  -23.1440  -42.8412 H         1 UNK         0.0600 
    146 H146        0.6148  -21.9946  -41.3879 H         1 UNK         0.0600 
    147 H147        1.6499  -21.6484  -42.7709 H         1 UNK         0.0600 
    148 H148        1.3966  -23.3099  -42.2517 H         1 UNK         0.0600 
    149 H149       -0.4872  -20.3623  -43.0284 H         1 UNK         0.3000 
    150 H150       -3.3663  -19.4946  -45.0140 H         1 UNK         0.0600 
    151 H151       -4.0900  -19.7133  -42.6210 H         1 UNK         0.0600 
    152 H152       -3.7398  -18.0477  -43.0549 H         1 UNK         0.0600 
    153 H153       -2.5814  -18.9709  -42.0989 H         1 UNK         0.0600 
    154 H154       -1.3412  -17.8456  -43.9346 H         1 UNK         0.3000 
    155 H155        0.9200  -18.0096  -46.7524 H         1 UNK         0.0600 
    156 H156       -0.8541  -15.8749  -45.4492 H         1 UNK         0.0600 
    157 H157       -0.7222  -16.2145  -47.1656 H         1 UNK         0.0600 
    158 H158        0.6550  -15.5558  -46.2998 H         1 UNK         0.0600 
    159 H159        1.2386  -16.7190  -44.2629 H         1 UNK         0.3000 
    160 H160        2.7987  -19.3605  -42.4449 H         1 UNK         0.0600 
    161 H161        3.8218  -16.7264  -43.6394 H         1 UNK         0.0600 
    162 H162        4.5749  -18.3037  -43.8306 H         1 UNK         0.0600 
    163 H163        4.5019  -17.5580  -42.2412 H         1 UNK         0.0600 
    164 H164        2.0547  -16.6146  -41.9039 H         1 UNK         0.3000 
    165 H165       -1.0510  -17.3871  -40.3140 H         1 UNK         0.0600 
    166 H166        0.0781  -16.1724  -38.4780 H         1 UNK         0.0600 
    167 H167        0.7435  -17.7914  -38.6223 H         1 UNK         0.0600 
    168 H168        1.6510  -16.4154  -39.2380 H         1 UNK         0.0600 
    169 H169        0.3457  -14.9241  -40.7409 H         1 UNK         0.3000 
    170 H170       -1.1893  -14.1213  -43.8660 H         1 UNK         0.0600 
    171 H171       -2.9185  -13.6232  -42.1245 H         1 UNK         0.0600 
    172 H172       -1.6651  -12.9934  -41.0610 H         1 UNK         0.0600 
    173 H173       -2.0180  -12.1896  -42.5913 H         1 UNK         0.0600 
    174 H174        0.3929  -12.3964  -42.5326 H         1 UNK         0.3000 
    175 H175        2.8079  -12.3097  -42.4834 H         1 UNK         0.0600 
    176 H176        3.9936  -14.0384  -44.7236 H         1 UNK         0.0600 
    177 H177        4.8291  -12.7349  -43.8823 H         1 UNK         0.0600 
    178 H178        4.3454  -14.1800  -43.0070 H         1 UNK         0.0600 
    179 H179        2.5579  -12.1584  -45.4334 H         1 UNK         0.3000 
    180 H180        0.1002   -9.6209  -45.3520 H         1 UNK         0.0600 
    181 H181        1.6790   -8.2677  -46.7100 H         1 UNK         0.0600 
    182 H182        3.0446   -9.2112  -46.1115 H         1 UNK         0.0600 
    183 H183        2.1241   -8.1903  -45.0130 H         1 UNK         0.0600 
    184 H184        1.6622  -10.7243  -47.4795 H         1 UNK         0.3000 
    185 H185        0.2410  -13.8397  -47.8009 H         1 UNK         0.0600 
    186 H186       -0.7139  -11.5366  -49.5735 H         1 UNK         0.0600 
    187 H187       -0.7051  -13.2470  -50.0036 H         1 UNK         0.0600 
    188 H188       -1.7619  -12.6689  -48.7257 H         1 UNK         0.0600 
    189 H189        1.6307  -12.5060  -49.7978 H         1 UNK         0.3000 
    190 H190       -1.2914  -21.2774  -47.1397 H         1 UNK         0.3000 
    191 H191       -2.4658  -22.5418  -49.3674 H         1 UNK         0.0600 
    192 H192       -3.1545  -20.3175  -48.5540 H         1 UNK         0.0600 
    193 H193       -3.7870  -21.0171  -47.0657 H         1 UNK         0.0600 
    194 H194       -4.5469  -21.3882  -48.6104 H         1 UNK         0.0600 
    195 H195       -2.8314  -23.2770  -45.8749 H         1 UNK         0.3000 
    196 H196       -4.7318  -25.3739  -46.1530 H         1 UNK         0.0600 
    197 H197       -4.2934  -24.2491  -43.9974 H         1 UNK         0.0600 
    198 H198       -2.6453  -24.8698  -43.9666 H         1 UNK         0.0600 
    199 H199       -4.0077  -25.9756  -43.8384 H         1 UNK         0.0600 
    200 H200       -1.1259  -25.4675  -46.0031 H         1 UNK         0.3000 
    201 H201       -0.8359  -28.2747  -46.2679 H         1 UNK         0.0600 
    202 H202        0.9799  -26.7948  -45.4704 H         1 UNK         0.0600 
    203 H203        1.0742  -26.0066  -47.0437 H         1 UNK         0.0600 
    204 H204        1.5223  -27.7000  -46.8753 H         1 UNK         0.0600 
    205 H205       -1.1027  -25.7122  -48.7260 H         1 UNK         0.3000 
    206 H206       -0.8003  -27.4426  -51.0194 H         1 UNK         0.0600 
    207 H207       -1.9859  -24.6271  -50.7518 H         1 UNK         0.0600 
    208 H208       -0.2901  -24.9949  -51.0551 H         1 UNK         0.0600 
    209 H209       -1.5027  -25.4017  -52.2567 H         1 UNK         0.0600 
    210 H210       -3.3248  -27.2915  -48.7921 H         1 UNK         0.3000 
    211 H211       -5.4503  -27.8694  -48.6846 H         1 UNK         0.0600 
    212 H212       -4.9531  -29.4823  -51.2438 H         1 UNK         0.0600 
    213 H213       -6.2470  -29.7404  -50.0816 H         1 UNK         0.0600 
    214 H214       -4.5803  -30.0265  -49.6087 H         1 UNK         0.0600 
    215 H215       -4.9934  -25.3842  -49.7225 H         1 UNK         0.3000 
    216 H216       -5.9269  -23.6143  -50.5671 H         1 UNK         0.0600 
    217 H217       -8.3340  -23.4821  -50.9934 H         1 UNK         0.0600 
    218 H218       -8.0596  -24.4910  -49.5840 H         1 UNK         0.0600 
    219 H219       -8.4643  -25.2274  -51.1349 H         1 UNK         0.0600 
    220 H220       -4.7035  -25.8446  -52.4861 H         1 UNK         0.3000 
    221 H221       -5.6379  -25.0663  -55.0931 H         1 UNK         0.0600 
    222 H222       -2.9548  -26.3129  -54.3024 H         1 UNK         0.0600 
    223 H223       -4.4348  -27.2223  -54.6133 H         1 UNK         0.0600 
    224 H224       -3.6768  -26.3010  -55.9038 H         1 UNK         0.0600 
    225 H225       -3.3505  -23.6864  -52.8406 H         1 UNK         0.3000 
    226 H226       -2.1386  -21.7832  -54.7195 H         1 UNK         0.0600 
    227 H227       -0.8017  -22.7312  -52.8439 H         1 UNK         0.0600 
    228 H228       -0.9610  -20.9903  -52.6852 H         1 UNK         0.0600 
    229 H229       -1.9321  -22.0527  -51.6734 H         1 UNK         0.0600 
    230 H230       -4.6616  -21.4306  -55.1698 H         1 UNK         0.3000 
    231 H231       -6.1475  -19.7261  -53.4357 H         1 UNK         0.0600 
    232 H232       -7.6725  -19.5399  -55.3930 H         1 UNK         0.0600 
    233 H233       -7.2301  -21.2067  -55.0543 H         1 UNK         0.0600 
    234 H234       -6.4830  -20.3531  -56.4039 H         1 UNK         0.0600 
    235 H235       -4.9623  -16.4130  -54.3939 H         1 UNK         0.3000 
    236 H236       -5.4916  -18.1227  -52.1566 H         1 UNK         0.0600 
    237 H237       -7.7102  -16.2582  -53.2167 H         1 UNK         0.0600 
    238 H238       -7.8246  -18.0138  -53.1661 H         1 UNK         0.0600 
    239 H239       -7.7380  -17.0994  -51.6719 H         1 UNK         0.0600 
    240 H240       -5.4466  -16.8825  -50.2061 H         1 UNK         0.3000 
    241 H241       -3.5933  -14.6608  -50.4431 H         1 UNK         0.0600 
    242 H242       -7.1254  -12.9370  -49.7485 H         1 UNK         0.3800 
    243 H243       -6.9895  -14.5347  -50.4345 H         1 UNK         0.3800 
    244 H244       -4.6699  -15.8794  -47.8643 H         1 UNK         0.0800 
    245 H245       -3.2233  -14.9297  -48.0582 H         1 UNK         0.0800 
    246 H246       -2.2818  -17.2272  -51.0797 H         1 UNK         0.0800 
    247 H247       -1.6766  -15.7856  -50.2961 H         1 UNK         0.0800 
@<TRIPOS>BOND
     1    1    2 1    
     2    1  127 1    
     3    1  128 1    
     4    1  129 1    
     5    2    3 2    
     6    2    4 am   BACKBONE|DICT|INTERRES
     7    4    5 1    
     8    4  130 1    
     9    5    6 1    
    10    5   65 1    
    11    5  131 1    
    12    6    7 1    
    13    6  132 1    
    14    6  133 1    
    15    7    8 1    
    16    8    9 1    
    17    8  134 1    
    18    8  135 1    
    19    9   10 ar   
    20    9   14 ar   
    21   10   11 ar   
    22   10  136 1    
    23   11   12 ar   
    24   11  126 1    
    25   12   13 ar   
    26   12  137 1    
    27   13   14 ar   
    28   13   15 1    
    29   14  138 1    
    30   15   16 1    
    31   15  139 1    
    32   15  140 1    
    33   16   17 1    
    34   17   18 1    
    35   17  141 1    
    36   17  142 1    
    37   18   19 1    
    38   18   67 1    
    39   18  143 1    
    40   19   20 am   BACKBONE|DICT|INTERRES
    41   19  144 1    
    42   20   21 2    
    43   20   22 1    
    44   22   23 1    
    45   22   24 1    
    46   22  145 1    
    47   23  146 1    
    48   23  147 1    
    49   23  148 1    
    50   24   25 am   BACKBONE|DICT|INTERRES
    51   24  149 1    
    52   25   26 2    
    53   25   27 1    
    54   27   28 1    
    55   27   29 1    
    56   27  150 1    
    57   28  151 1    
    58   28  152 1    
    59   28  153 1    
    60   29   30 am   BACKBONE|DICT|INTERRES
    61   29  154 1    
    62   30   31 2    
    63   30   32 1    
    64   32   33 1    
    65   32   34 1    
    66   32  155 1    
    67   33  156 1    
    68   33  157 1    
    69   33  158 1    
    70   34   35 am   BACKBONE|DICT|INTERRES
    71   34  159 1    
    72   35   36 2    
    73   35   37 1    
    74   37   38 1    
    75   37   39 1    
    76   37  160 1    
    77   38  161 1    
    78   38  162 1    
    79   38  163 1    
    80   39   40 am   BACKBONE|DICT|INTERRES
    81   39  164 1    
    82   40   41 2    
    83   40   42 1    
    84   42   43 1    
    85   42   44 1    
    86   42  165 1    
    87   43  166 1    
    88   43  167 1    
    89   43  168 1    
    90   44   45 am   BACKBONE|DICT|INTERRES
    91   44  169 1    
    92   45   46 2    
    93   45   47 1    
    94   47   48 1    
    95   47   49 1    
    96   47  170 1    
    97   48  171 1    
    98   48  172 1    
    99   48  173 1    
   100   49   50 am   BACKBONE|DICT|INTERRES
   101   49  174 1    
   102   50   51 2    
   103   50   52 1    
   104   52   53 1    
   105   52   54 1    
   106   52  175 1    
   107   53  176 1    
   108   53  177 1    
   109   53  178 1    
   110   54   55 am   BACKBONE|DICT|INTERRES
   111   54  179 1    
   112   55   56 2    
   113   55   57 1    
   114   57   58 1    
   115   57   59 1    
   116   57  180 1    
   117   58  181 1    
   118   58  182 1    
   119   58  183 1    
   120   59   60 am   BACKBONE|DICT|INTERRES
   121   59  184 1    
   122   60   61 2    
   123   60   62 1    
   124   62   63 1    
   125   62   64 1    
   126   62  185 1    
   127   63  186 1    
   128   63  187 1    
   129   63  188 1    
   130   64   65 am   BACKBONE|DICT|INTERRES
   131   64  189 1    
   132   65   66 2    
   133   67   68 2    
   134   67   69 am   BACKBONE|DICT|INTERRES
   135   69   70 1    
   136   69  190 1    
   137   70   71 1    
   138   70   72 1    
   139   70  191 1    
   140   71  192 1    
   141   71  193 1    
   142   71  194 1    
   143   72   73 2    
   144   72   74 am   BACKBONE|DICT|INTERRES
   145   74   75 1    
   146   74  195 1    
   147   75   76 1    
   148   75   77 1    
   149   75  196 1    
   150   76  197 1    
   151   76  198 1    
   152   76  199 1    
   153   77   78 2    
   154   77   79 am   BACKBONE|DICT|INTERRES
   155   79   80 1    
   156   79  200 1    
   157   80   81 1    
   158   80   82 1    
   159   80  201 1    
   160   81  202 1    
   161   81  203 1    
   162   81  204 1    
   163   82   83 2    
   164   82   84 am   BACKBONE|DICT|INTERRES
   165   84   85 1    
   166   84  205 1    
   167   85   86 1    
   168   85   87 1    
   169   85  206 1    
   170   86  207 1    
   171   86  208 1    
   172   86  209 1    
   173   87   88 2    
   174   87   89 am   BACKBONE|DICT|INTERRES
   175   89   90 1    
   176   89  210 1    
   177   90   91 1    
   178   90   92 1    
   179   90  211 1    
   180   91  212 1    
   181   91  213 1    
   182   91  214 1    
   183   92   93 2    
   184   92   94 am   BACKBONE|DICT|INTERRES
   185   94   95 1    
   186   94  215 1    
   187   95   96 1    
   188   95   97 1    
   189   95  216 1    
   190   96  217 1    
   191   96  218 1    
   192   96  219 1    
   193   97   98 2    
   194   97   99 am   BACKBONE|DICT|INTERRES
   195   99  100 1    
   196   99  220 1    
   197  100  101 1    
   198  100  102 1    
   199  100  221 1    
   200  101  222 1    
   201  101  223 1    
   202  101  224 1    
   203  102  103 2    
   204  102  104 am   BACKBONE|DICT|INTERRES
   205  104  105 1    
   206  104  225 1    
   207  105  106 1    
   208  105  107 1    
   209  105  226 1    
   210  106  227 1    
   211  106  228 1    
   212  106  229 1    
   213  107  108 2    
   214  107  109 am   BACKBONE|DICT|INTERRES
   215  109  110 1    
   216  109  230 1    
   217  110  111 1    
   218  110  112 1    
   219  110  231 1    
   220  111  232 1    
   221  111  233 1    
   222  111  234 1    
   223  112  113 2    
   224  112  114 am   BACKBONE|DICT|INTERRES
   225  114  115 1    
   226  114  235 1    
   227  115  116 1    
   228  115  117 1    
   229  115  236 1    
   230  116  237 1    
   231  116  238 1    
   232  116  239 1    
   233  117  118 2    
   234  117  119 am   BACKBONE|DICT|INTERRES
   235  119  120 1    
   236  119  240 1    
   237  120  121 1    
   238  120  124 1    
   239  120  241 1    
   240  121  122 am   BACKBONE|DICT|INTERRES
   241  121  123 2    
   242  122  242 1    
   243  122  243 1    
   244  124  125 1    
   245  124  244 1    
   246  124  245 1    
   247  125  126 1    
   248  126  246 1    
   249  126  247 1    
@<TRIPOS>SUBSTRUCTURE
     1 UNK         1 GROUP             0       ****    0 ROOT    
