@<TRIPOS>MOLECULE
3R540
247   249    1
SMALL
USER_CHARGES


@<TRIPOS>ATOM
      1 CA          5.3295  -17.6377  -51.9336 C.3       0 UNK        -0.1800 
      2 C           4.2480  -18.0697  -50.9543 C.2       0 UNK         0.5000 
      3 O           4.2752  -19.2008  -50.4706 O.2       0 UNK        -0.5000 
      4 N           3.2952  -17.1748  -50.6627 N.am      1 UNK        -0.5000 
      5 CA          2.1559  -17.4299  -49.7704 C.3       1 UNK         0.1400 
      6 C6          0.9991  -16.4200  -49.9786 C.3       23 UNK        -0.0398 
      7 S7          0.4395  -16.3170  -51.7130 S.3       23 UNK        -0.2404 
      8 C8         -0.5209  -14.7692  -51.7020 C.3       23 UNK        -0.0205 
      9 C9         -2.0067  -15.0086  -51.4678 C.ar      23 UNK        -0.0193 
     10 C10        -2.9126  -14.8938  -52.5274 C.ar      23 UNK        -0.1150 
     11 C11        -4.2843  -15.0707  -52.3170 C.ar      23 UNK        -0.0193 
     12 C12        -4.7481  -15.3762  -51.0347 C.ar      23 UNK        -0.1150 
     13 C13        -3.8519  -15.5022  -49.9695 C.ar      23 UNK        -0.0193 
     14 C14        -2.4848  -15.3105  -50.1897 C.ar      23 UNK        -0.1150 
     15 C15        -4.3599  -15.8332  -48.5774 C.3       23 UNK        -0.0205 
     16 S16        -4.5346  -17.6331  -48.3575 S.3       23 UNK        -0.2404 
     17 C17        -3.7573  -17.9143  -46.7282 C.3       23 UNK        -0.0398 
     18 CA         -2.5657  -18.8992  -46.8088 C.3       11 UNK         0.1400 
     19 N          -1.6536  -18.7544  -45.6726 N.am      11 UNK        -0.5000 
     20 C          -0.5109  -19.4379  -45.5061 C.2       10 UNK         0.5000 
     21 O          -0.0844  -20.2780  -46.2976 O.2       10 UNK        -0.5000 
     22 CA          0.2415  -19.1952  -44.1893 C.3       10 UNK         0.1400 
     23 CB          0.9208  -17.8185  -44.1872 C.3       10 UNK        -0.1800 
     24 N          -0.6411  -19.2971  -43.0305 N.am      10 UNK        -0.5000 
     25 C          -1.3293  -20.3898  -42.6732 C.2       9 UNK         0.5000 
     26 O          -1.2814  -21.4617  -43.2722 O.2       9 UNK        -0.5000 
     27 CA         -2.2690  -20.2423  -41.4677 C.3       9 UNK         0.1400 
     28 CB         -1.4892  -20.3803  -40.1517 C.3       9 UNK        -0.1800 
     29 N          -2.9818  -18.9658  -41.4916 N.am      9 UNK        -0.5000 
     30 C          -3.9061  -18.6324  -42.4041 C.2       8 UNK         0.5000 
     31 O          -4.2855  -19.3806  -43.3068 O.2       8 UNK        -0.5000 
     32 CA         -4.4603  -17.1994  -42.3143 C.3       8 UNK         0.1400 
     33 CB         -5.5256  -17.0931  -41.2128 C.3       8 UNK        -0.1800 
     34 N          -3.4083  -16.2083  -42.0751 N.am      8 UNK        -0.5000 
     35 C          -2.4445  -15.9126  -42.9580 C.2       7 UNK         0.5000 
     36 O          -2.3508  -16.4389  -44.0661 O.2       7 UNK        -0.5000 
     37 CA         -1.3882  -14.8815  -42.5223 C.3       7 UNK         0.1400 
     38 CB         -1.8921  -13.4537  -42.7805 C.3       7 UNK        -0.1800 
     39 N          -0.9607  -15.0012  -41.1249 N.am      7 UNK        -0.5000 
     40 C          -0.3982  -16.0902  -40.5860 C.2       6 UNK         0.5000 
     41 O          -0.2936  -17.1714  -41.1671 O.2       6 UNK        -0.5000 
     42 CA          0.1430  -15.9587  -39.1562 C.3       6 UNK         0.1400 
     43 CB         -0.6460  -16.8515  -38.1861 C.3       6 UNK        -0.1800 
     44 N           1.5500  -16.3520  -39.1425 N.am      6 UNK        -0.5000 
     45 C           2.5690  -15.5323  -39.4340 C.2       5 UNK         0.5000 
     46 O           2.4363  -14.3278  -39.6550 O.2       5 UNK        -0.5000 
     47 CA          3.9732  -16.1640  -39.4937 C.3       5 UNK         0.1400 
     48 CB          4.6125  -16.1913  -38.0967 C.3       5 UNK        -0.1800 
     49 N           3.9610  -17.5209  -40.0461 N.am      5 UNK        -0.5000 
     50 C           3.8012  -17.8015  -41.3456 C.2       4 UNK         0.5000 
     51 O           3.6904  -16.9432  -42.2258 O.2       4 UNK        -0.5000 
     52 CA          3.7541  -19.2914  -41.7179 C.3       4 UNK         0.1400 
     53 CB          2.4708  -19.9579  -41.1876 C.3       4 UNK        -0.1800 
     54 N           3.8197  -19.4223  -43.1712 N.am      4 UNK        -0.5000 
     55 C           4.3329  -20.4625  -43.8380 C.2       3 UNK         0.5000 
     56 O           4.7747  -21.4678  -43.2800 O.2       3 UNK        -0.5000 
     57 CA          4.3684  -20.3871  -45.3805 C.3       3 UNK         0.1400 
     58 CB          3.4562  -21.4536  -46.0056 C.3       3 UNK        -0.1800 
     59 N           4.0101  -19.0755  -45.9300 N.am      3 UNK        -0.5000 
     60 C           4.8228  -18.0133  -45.9757 C.2       2 UNK         0.5000 
     61 O           5.9859  -18.0392  -45.5698 O.2       2 UNK        -0.5000 
     62 CA          4.2346  -16.7140  -46.5729 C.3       2 UNK         0.1400 
     63 CB          5.2470  -15.5542  -46.5765 C.3       2 UNK        -0.1800 
     64 N           3.7191  -16.8814  -47.9346 N.am      2 UNK        -0.5000 
     65 C           2.5605  -17.4614  -48.2794 C.2       1 UNK         0.5000 
     66 O           1.8083  -17.9932  -47.4662 O.2       1 UNK        -0.5000 
     67 C          -3.0545  -20.3514  -46.9762 C.2       11 UNK         0.5000 
     68 O          -3.0257  -20.8686  -48.0920 O.2       11 UNK        -0.5000 
     69 N          -3.4482  -20.9895  -45.8645 N.am      12 UNK        -0.5000 
     70 CA         -3.8763  -22.3862  -45.8252 C.3       12 UNK         0.1400 
     71 CB         -4.5040  -22.6902  -44.4564 C.3       12 UNK        -0.1800 
     72 C          -2.7363  -23.3728  -46.1413 C.2       12 UNK         0.5000 
     73 O          -2.9369  -24.2876  -46.9402 O.2       12 UNK        -0.5000 
     74 N          -1.5643  -23.1660  -45.5247 N.am      13 UNK        -0.5000 
     75 CA         -0.3779  -24.0109  -45.6745 C.3       13 UNK         0.1400 
     76 CB          0.6635  -23.6322  -44.6102 C.3       13 UNK        -0.1800 
     77 C           0.2354  -23.9555  -47.0842 C.2       13 UNK         0.5000 
     78 O           0.5948  -25.0002  -47.6286 O.2       13 UNK        -0.5000 
     79 N           0.3261  -22.7489  -47.6591 N.am      14 UNK        -0.5000 
     80 CA          0.8088  -22.5283  -49.0235 C.3       14 UNK         0.1400 
     81 CB          1.2479  -21.0627  -49.1678 C.3       14 UNK        -0.1800 
     82 C          -0.2538  -22.8409  -50.0918 C.2       14 UNK         0.5000 
     83 O           0.0929  -22.9576  -51.2680 O.2       14 UNK        -0.5000 
     84 N          -1.5308  -22.8780  -49.6838 N.am      15 UNK        -0.5000 
     85 CA         -2.7302  -22.8967  -50.5260 C.3       15 UNK         0.1400 
     86 CB         -2.8668  -24.2446  -51.2626 C.3       15 UNK        -0.1800 
     87 C          -2.7727  -21.6810  -51.4753 C.2       15 UNK         0.5000 
     88 O          -3.1351  -21.8301  -52.6417 O.2       15 UNK        -0.5000 
     89 N          -2.3756  -20.5064  -50.9612 N.am      16 UNK        -0.5000 
     90 CA         -2.1396  -19.2512  -51.6904 C.3       16 UNK         0.1400 
     91 CB         -3.4622  -18.6344  -52.1800 C.3       16 UNK        -0.1800 
     92 C          -1.0965  -19.4027  -52.8204 C.2       16 UNK         0.5000 
     93 O          -1.2858  -18.8790  -53.9181 O.2       16 UNK        -0.5000 
     94 N          -0.0188  -20.1429  -52.5196 N.am      17 UNK        -0.5000 
     95 CA          1.0581  -20.5481  -53.4280 C.3       17 UNK         0.1400 
     96 CB          1.8600  -19.3266  -53.9252 C.3       17 UNK        -0.1800 
     97 C           0.5275  -21.4486  -54.5634 C.2       17 UNK         0.5000 
     98 O           0.7715  -21.1790  -55.7410 O.2       17 UNK        -0.5000 
     99 N          -0.1989  -22.5035  -54.1627 N.am      18 UNK        -0.5000 
    100 CA        -0.8578  -23.5064  -55.0062 C.3       18 UNK         0.1400 
    101 CB         0.1880  -24.3771  -55.7337 C.3       18 UNK        -0.1800 
    102 C         -1.9141  -22.8995  -55.9563 C.2       18 UNK         0.5000 
    103 O         -1.9087  -23.1799  -57.1567 O.2       18 UNK        -0.5000 
    104 N         -2.8109  -22.0852  -55.3892 N.am      19 UNK        -0.5000 
    105 CA        -3.9228  -21.4209  -56.0711 C.3       19 UNK         0.1400 
    106 CB        -3.6181  -19.9176  -56.1931 C.3       19 UNK        -0.1800 
    107 C         -5.2539  -21.6887  -55.3407 C.2       19 UNK         0.5000 
    108 O         -6.1582  -20.8534  -55.3893 O.2       19 UNK        -0.5000 
    109 N         -5.3482  -22.8419  -54.6577 N.am      20 UNK        -0.5000 
    110 CA        -6.5109  -23.3451  -53.9109 C.3       20 UNK         0.1400 
    111 CB        -7.6320  -23.7581  -54.8867 C.3       20 UNK        -0.1800 
    112 C         -7.0045  -22.3771  -52.8125 C.2       20 UNK         0.5000 
    113 O         -8.2117  -22.2264  -52.6103 O.2       20 UNK        -0.5000 
    114 N         -6.0508  -21.6956  -52.1592 N.am      21 UNK        -0.5000 
    115 CA        -6.2428  -20.6513  -51.1418 C.3       21 UNK         0.1400 
    116 CB        -6.8659  -21.2420  -49.8607 C.3       21 UNK        -0.1800 
    117 C         -7.0044  -19.4105  -51.6639 C.2       21 UNK         0.5000 
    118 O         -7.5504  -18.6507  -50.8630 O.2       21 UNK        -0.5000 
    119 N         -7.0456  -19.2419  -52.9950 N.am      22 UNK        -0.5000 
    120 CA        -7.8524  -18.2527  -53.7262 C.3       22 UNK         0.1400 
    121 C         -9.3933  -18.4378  -53.5519 C.2       22 UNK         0.5000 
    122 N         -9.8786  -19.6186  -53.1803 N.am      22 UNK        -0.7600 
    123 O        -10.1690  -17.5149  -53.7867 O.2       22 UNK        -0.5000 
    124 C124       -7.3668  -16.7917  -53.5088 C.3       23 UNK        -0.0398 
    125 S125       -5.7031  -16.5182  -54.2090 S.3       23 UNK        -0.2404 
    126 C126       -5.2605  -14.9138  -53.4733 C.3       23 UNK        -0.0205 
    127 H127        5.1838  -16.6118  -52.2725 H         1 UNK         0.0600 
    128 H128        5.3230  -18.2884  -52.8081 H         1 UNK         0.0600 
    129 H129        6.3106  -17.7053  -51.4636 H         1 UNK         0.0600 
    130 H130        3.3080  -16.2686  -51.1090 H         1 UNK         0.3000 
    131 H131        1.7663  -18.4194  -50.0133 H         1 UNK         0.0600 
    132 H132        1.3038  -15.4252  -49.6487 H         1 UNK         0.0800 
    133 H133        0.1419  -16.7025  -49.3651 H         1 UNK         0.0800 
    134 H134       -0.3712  -14.2713  -52.6612 H         1 UNK         0.0800 
    135 H135       -0.1337  -14.0822  -50.9486 H         1 UNK         0.0800 
    136 H136       -2.5508  -14.6589  -53.5185 H         1 UNK         0.1150 
    137 H137       -5.8055  -15.5220  -50.8652 H         1 UNK         0.1150 
    138 H138       -1.7940  -15.3925  -49.3634 H         1 UNK         0.1150 
    139 H139       -3.6848  -15.4032  -47.8372 H         1 UNK         0.0800 
    140 H140       -5.3290  -15.3609  -48.4106 H         1 UNK         0.0800 
    141 H141       -4.5154  -18.2613  -46.0235 H         1 UNK         0.0800 
    142 H142       -3.4151  -16.9594  -46.3339 H         1 UNK         0.0800 
    143 H143       -1.9764  -18.6500  -47.6943 H         1 UNK         0.0600 
    144 H144       -1.9139  -18.0661  -44.9711 H         1 UNK         0.3000 
    145 H145        1.0106  -19.9629  -44.0863 H         1 UNK         0.0600 
    146 H146        1.3524  -17.5898  -43.2153 H         1 UNK         0.0600 
    147 H147        1.7276  -17.7826  -44.9137 H         1 UNK         0.0600 
    148 H148        0.2262  -17.0171  -44.4346 H         1 UNK         0.0600 
    149 H149       -0.7046  -18.4720  -42.4390 H         1 UNK         0.3000 
    150 H150       -3.0079  -21.0452  -41.5145 H         1 UNK         0.0600 
    151 H151       -1.0129  -21.3592  -40.0854 H         1 UNK         0.0600 
    152 H152       -2.1462  -20.2782  -39.2879 H         1 UNK         0.0600 
    153 H153       -0.7021  -19.6311  -40.0683 H         1 UNK         0.0600 
    154 H154       -2.6869  -18.2688  -40.8244 H         1 UNK         0.3000 
    155 H155       -4.9350  -16.9669  -43.2702 H         1 UNK         0.0600 
    156 H156       -5.1068  -17.2842  -40.2240 H         1 UNK         0.0600 
    157 H157       -6.3273  -17.8148  -41.3751 H         1 UNK         0.0600 
    158 H158       -5.9800  -16.1022  -41.1990 H         1 UNK         0.0600 
    159 H159       -3.4116  -15.7349  -41.1837 H         1 UNK         0.3000 
    160 H160       -0.5050  -15.0426  -43.1435 H         1 UNK         0.0600 
    161 H161       -2.7499  -13.2090  -42.1530 H         1 UNK         0.0600 
    162 H162       -2.1995  -13.3297  -43.8200 H         1 UNK         0.0600 
    163 H163       -1.1116  -12.7182  -42.5850 H         1 UNK         0.0600 
    164 H164       -1.0109  -14.1579  -40.5717 H         1 UNK         0.3000 
    165 H165        0.0450  -14.9235  -38.8220 H         1 UNK         0.0600 
    166 H166       -0.2919  -16.7258  -37.1628 H         1 UNK         0.0600 
    167 H167       -1.7069  -16.5984  -38.1962 H         1 UNK         0.0600 
    168 H168       -0.5570  -17.9075  -38.4407 H         1 UNK         0.0600 
    169 H169        1.7394  -17.3363  -39.0294 H         1 UNK         0.3000 
    170 H170        4.5932  -15.5340  -40.1355 H         1 UNK         0.0600 
    171 H171        4.6548  -15.1893  -37.6676 H         1 UNK         0.0600 
    172 H172        4.0492  -16.8203  -37.4063 H         1 UNK         0.0600 
    173 H173        5.6344  -16.5689  -38.1382 H         1 UNK         0.0600 
    174 H174        4.0613  -18.2786  -39.3860 H         1 UNK         0.3000 
    175 H175        4.6267  -19.7750  -41.2738 H         1 UNK         0.0600 
    176 H176        1.5818  -19.4012  -41.4798 H         1 UNK         0.0600 
    177 H177        2.3645  -20.9780  -41.5572 H         1 UNK         0.0600 
    178 H178        2.4757  -20.0086  -40.0986 H         1 UNK         0.0600 
    179 H179        3.5507  -18.5890  -43.6769 H         1 UNK         0.3000 
    180 H180        5.3938  -20.6182  -45.6765 H         1 UNK         0.0600 
    181 H181        2.4038  -21.1971  -45.8936 H         1 UNK         0.0600 
    182 H182        3.6085  -22.4322  -45.5485 H         1 UNK         0.0600 
    183 H183        3.6659  -21.5657  -47.0688 H         1 UNK         0.0600 
    184 H184        3.0802  -18.9754  -46.3270 H         1 UNK         0.3000 
    185 H185        3.4065  -16.4157  -45.9274 H         1 UNK         0.0600 
    186 H186        5.6189  -15.3551  -45.5705 H         1 UNK         0.0600 
    187 H187        6.1079  -15.7727  -47.2095 H         1 UNK         0.0600 
    188 H188        4.7900  -14.6327  -46.9377 H         1 UNK         0.0600 
    189 H189        4.2925  -16.5070  -48.6761 H         1 UNK         0.3000 
    190 H190       -3.4493  -20.4880  -44.9836 H         1 UNK         0.3000 
    191 H191       -4.6486  -22.5186  -46.5860 H         1 UNK         0.0600 
    192 H192       -3.7918  -22.5455  -43.6435 H         1 UNK         0.0600 
    193 H193       -4.8543  -23.7219  -44.4074 H         1 UNK         0.0600 
    194 H194       -5.3619  -22.0452  -44.2652 H         1 UNK         0.0600 
    195 H195       -1.4901  -22.4066  -44.8508 H         1 UNK         0.3000 
    196 H196       -0.6813  -25.0439  -45.4918 H         1 UNK         0.0600 
    197 H197        1.5800  -24.2115  -44.7287 H         1 UNK         0.0600 
    198 H198        0.2847  -23.8241  -43.6063 H         1 UNK         0.0600 
    199 H199        0.9288  -22.5766  -44.6662 H         1 UNK         0.0600 
    200 H200        0.0505  -21.9212  -47.1320 H         1 UNK         0.3000 
    201 H201        1.6742  -23.1686  -49.2062 H         1 UNK         0.0600 
    202 H202        1.9809  -20.7856  -48.4130 H         1 UNK         0.0600 
    203 H203        0.4048  -20.3772  -49.0686 H         1 UNK         0.0600 
    204 H204        1.7105  -20.8868  -50.1396 H         1 UNK         0.0600 
    205 H205       -1.7075  -22.7353  -48.6980 H         1 UNK         0.3000 
    206 H206       -3.5869  -22.7986  -49.8580 H         1 UNK         0.0600 
    207 H207       -3.8090  -24.2990  -51.8091 H         1 UNK         0.0600 
    208 H208       -2.8528  -25.0768  -50.5588 H         1 UNK         0.0600 
    209 H209       -2.0616  -24.4011  -51.9799 H         1 UNK         0.0600 
    210 H210       -2.2039  -20.4851  -49.9617 H         1 UNK         0.3000 
    211 H211       -1.7047  -18.5527  -50.9739 H         1 UNK         0.0600 
    212 H212       -3.2789  -17.7182  -52.7395 H         1 UNK         0.0600 
    213 H213       -4.1034  -18.3632  -51.3430 H         1 UNK         0.0600 
    214 H214       -4.0131  -19.3059  -52.8372 H         1 UNK         0.0600 
    215 H215        0.0026  -20.5827  -51.6122 H         1 UNK         0.3000 
    216 H216        1.7395  -21.1645  -52.8396 H         1 UNK         0.0600 
    217 H217        2.7422  -19.6420  -54.4829 H         1 UNK         0.0600 
    218 H218        2.2026  -18.7159  -53.0907 H         1 UNK         0.0600 
    219 H219        1.2694  -18.6887  -54.5830 H         1 UNK         0.0600 
    220 H220       -0.3035  -22.6397  -53.1609 H         1 UNK         0.3000 
    221 H221       -1.4056  -24.1601  -54.3268 H         1 UNK         0.0600 
    222 H222        0.7602  -23.8025  -56.4627 H         1 UNK         0.0600 
    223 H223        0.8916  -24.8187  -55.0281 H         1 UNK         0.0600 
    224 H224       -0.2916  -25.1976  -56.2687 H         1 UNK         0.0600 
    225 H225       -2.7643  -21.9257  -54.3829 H         1 UNK         0.3000 
    226 H226       -4.0426  -21.8254  -57.0777 H         1 UNK         0.0600 
    227 H227       -3.5968  -19.4337  -55.2168 H         1 UNK         0.0600 
    228 H228       -2.6532  -19.7469  -56.6708 H         1 UNK         0.0600 
    229 H229       -4.3736  -19.4094  -56.7934 H         1 UNK         0.0600 
    230 H230       -4.5348  -23.4404  -54.6546 H         1 UNK         0.3000 
    231 H231       -6.1775  -24.2444  -53.3912 H         1 UNK         0.0600 
    232 H232       -7.2643  -24.4596  -55.6355 H         1 UNK         0.0600 
    233 H233       -8.0492  -22.8971  -55.4101 H         1 UNK         0.0600 
    234 H234       -8.4508  -24.2490  -54.3593 H         1 UNK         0.0600 
    235 H235       -5.0904  -21.8440  -52.4543 H         1 UNK         0.3000 
    236 H236       -5.2512  -20.3005  -50.8655 H         1 UNK         0.0600 
    237 H237       -6.8620  -20.5096  -49.0524 H         1 UNK         0.0600 
    238 H238       -7.8995  -21.5517  -50.0165 H         1 UNK         0.0600 
    239 H239       -6.3025  -22.1074  -49.5114 H         1 UNK         0.0600 
    240 H240       -6.5846  -19.9230  -53.5873 H         1 UNK         0.3000 
    241 H241       -7.6909  -18.4835  -54.7797 H         1 UNK         0.0600 
    242 H242      -10.8747  -19.7342  -53.0811 H         1 UNK         0.3800 
    243 H243       -9.2628  -20.4018  -52.9945 H         1 UNK         0.3800 
    244 H244       -8.0351  -16.0821  -53.9988 H         1 UNK         0.0800 
    245 H245       -7.3713  -16.5342  -52.4497 H         1 UNK         0.0800 
    246 H246       -6.1556  -14.3869  -53.1395 H         1 UNK         0.0800 
    247 H247       -4.8184  -14.2881  -54.2500 H         1 UNK         0.0800 
@<TRIPOS>BOND
     1    1    2 1    
     2    1  127 1    
     3    1  128 1    
     4    1  129 1    
     5    2    3 2    
     6    2    4 am   BACKBONE|DICT|INTERRES
     7    4    5 1    
     8    4  130 1    
     9    5    6 1    
    10    5   65 1    
    11    5  131 1    
    12    6    7 1    
    13    6  132 1    
    14    6  133 1    
    15    7    8 1    
    16    8    9 1    
    17    8  134 1    
    18    8  135 1    
    19    9   10 ar   
    20    9   14 ar   
    21   10   11 ar   
    22   10  136 1    
    23   11   12 ar   
    24   11  126 1    
    25   12   13 ar   
    26   12  137 1    
    27   13   14 ar   
    28   13   15 1    
    29   14  138 1    
    30   15   16 1    
    31   15  139 1    
    32   15  140 1    
    33   16   17 1    
    34   17   18 1    
    35   17  141 1    
    36   17  142 1    
    37   18   19 1    
    38   18   67 1    
    39   18  143 1    
    40   19   20 am   BACKBONE|DICT|INTERRES
    41   19  144 1    
    42   20   21 2    
    43   20   22 1    
    44   22   23 1    
    45   22   24 1    
    46   22  145 1    
    47   23  146 1    
    48   23  147 1    
    49   23  148 1    
    50   24   25 am   BACKBONE|DICT|INTERRES
    51   24  149 1    
    52   25   26 2    
    53   25   27 1    
    54   27   28 1    
    55   27   29 1    
    56   27  150 1    
    57   28  151 1    
    58   28  152 1    
    59   28  153 1    
    60   29   30 am   BACKBONE|DICT|INTERRES
    61   29  154 1    
    62   30   31 2    
    63   30   32 1    
    64   32   33 1    
    65   32   34 1    
    66   32  155 1    
    67   33  156 1    
    68   33  157 1    
    69   33  158 1    
    70   34   35 am   BACKBONE|DICT|INTERRES
    71   34  159 1    
    72   35   36 2    
    73   35   37 1    
    74   37   38 1    
    75   37   39 1    
    76   37  160 1    
    77   38  161 1    
    78   38  162 1    
    79   38  163 1    
    80   39   40 am   BACKBONE|DICT|INTERRES
    81   39  164 1    
    82   40   41 2    
    83   40   42 1    
    84   42   43 1    
    85   42   44 1    
    86   42  165 1    
    87   43  166 1    
    88   43  167 1    
    89   43  168 1    
    90   44   45 am   BACKBONE|DICT|INTERRES
    91   44  169 1    
    92   45   46 2    
    93   45   47 1    
    94   47   48 1    
    95   47   49 1    
    96   47  170 1    
    97   48  171 1    
    98   48  172 1    
    99   48  173 1    
   100   49   50 am   BACKBONE|DICT|INTERRES
   101   49  174 1    
   102   50   51 2    
   103   50   52 1    
   104   52   53 1    
   105   52   54 1    
   106   52  175 1    
   107   53  176 1    
   108   53  177 1    
   109   53  178 1    
   110   54   55 am   BACKBONE|DICT|INTERRES
   111   54  179 1    
   112   55   56 2    
   113   55   57 1    
   114   57   58 1    
   115   57   59 1    
   116   57  180 1    
   117   58  181 1    
   118   58  182 1    
   119   58  183 1    
   120   59   60 am   BACKBONE|DICT|INTERRES
   121   59  184 1    
   122   60   61 2    
   123   60   62 1    
   124   62   63 1    
   125   62   64 1    
   126   62  185 1    
   127   63  186 1    
   128   63  187 1    
   129   63  188 1    
   130   64   65 am   BACKBONE|DICT|INTERRES
   131   64  189 1    
   132   65   66 2    
   133   67   68 2    
   134   67   69 am   BACKBONE|DICT|INTERRES
   135   69   70 1    
   136   69  190 1    
   137   70   71 1    
   138   70   72 1    
   139   70  191 1    
   140   71  192 1    
   141   71  193 1    
   142   71  194 1    
   143   72   73 2    
   144   72   74 am   BACKBONE|DICT|INTERRES
   145   74   75 1    
   146   74  195 1    
   147   75   76 1    
   148   75   77 1    
   149   75  196 1    
   150   76  197 1    
   151   76  198 1    
   152   76  199 1    
   153   77   78 2    
   154   77   79 am   BACKBONE|DICT|INTERRES
   155   79   80 1    
   156   79  200 1    
   157   80   81 1    
   158   80   82 1    
   159   80  201 1    
   160   81  202 1    
   161   81  203 1    
   162   81  204 1    
   163   82   83 2    
   164   82   84 am   BACKBONE|DICT|INTERRES
   165   84   85 1    
   166   84  205 1    
   167   85   86 1    
   168   85   87 1    
   169   85  206 1    
   170   86  207 1    
   171   86  208 1    
   172   86  209 1    
   173   87   88 2    
   174   87   89 am   BACKBONE|DICT|INTERRES
   175   89   90 1    
   176   89  210 1    
   177   90   91 1    
   178   90   92 1    
   179   90  211 1    
   180   91  212 1    
   181   91  213 1    
   182   91  214 1    
   183   92   93 2    
   184   92   94 am   BACKBONE|DICT|INTERRES
   185   94   95 1    
   186   94  215 1    
   187   95   96 1    
   188   95   97 1    
   189   95  216 1    
   190   96  217 1    
   191   96  218 1    
   192   96  219 1    
   193   97   98 2    
   194   97   99 am   BACKBONE|DICT|INTERRES
   195   99  100 1    
   196   99  220 1    
   197  100  101 1    
   198  100  102 1    
   199  100  221 1    
   200  101  222 1    
   201  101  223 1    
   202  101  224 1    
   203  102  103 2    
   204  102  104 am   BACKBONE|DICT|INTERRES
   205  104  105 1    
   206  104  225 1    
   207  105  106 1    
   208  105  107 1    
   209  105  226 1    
   210  106  227 1    
   211  106  228 1    
   212  106  229 1    
   213  107  108 2    
   214  107  109 am   BACKBONE|DICT|INTERRES
   215  109  110 1    
   216  109  230 1    
   217  110  111 1    
   218  110  112 1    
   219  110  231 1    
   220  111  232 1    
   221  111  233 1    
   222  111  234 1    
   223  112  113 2    
   224  112  114 am   BACKBONE|DICT|INTERRES
   225  114  115 1    
   226  114  235 1    
   227  115  116 1    
   228  115  117 1    
   229  115  236 1    
   230  116  237 1    
   231  116  238 1    
   232  116  239 1    
   233  117  118 2    
   234  117  119 am   BACKBONE|DICT|INTERRES
   235  119  120 1    
   236  119  240 1    
   237  120  121 1    
   238  120  124 1    
   239  120  241 1    
   240  121  122 am   BACKBONE|DICT|INTERRES
   241  121  123 2    
   242  122  242 1    
   243  122  243 1    
   244  124  125 1    
   245  124  244 1    
   246  124  245 1    
   247  125  126 1    
   248  126  246 1    
   249  126  247 1    
@<TRIPOS>SUBSTRUCTURE
     1 UNK         1 GROUP             0       ****    0 ROOT    
