@<TRIPOS>MOLECULE
3R540
247   249    1
SMALL
USER_CHARGES


@<TRIPOS>ATOM
      1 CA          1.6950   -9.6302  -49.4015 C.3       0 UNK        -0.1800 
      2 C           2.4769  -10.9066  -49.6780 C.2       0 UNK         0.5000 
      3 O           3.7009  -10.8599  -49.8058 O.2       0 UNK        -0.5000 
      4 N           1.7745  -12.0412  -49.7794 N.am      1 UNK        -0.5000 
      5 CA          2.3496  -13.3754  -49.9755 C.3       1 UNK         0.1400 
      6 C6          1.2593  -14.4257  -50.2910 C.3       23 UNK        -0.0398 
      7 S7          0.4130  -14.1095  -51.8730 S.3       23 UNK        -0.2404 
      8 C8         -0.1482  -15.7868  -52.3012 C.3       23 UNK        -0.0205 
      9 C9         -1.3720  -16.2022  -51.4976 C.ar      23 UNK        -0.0193 
     10 C10        -2.6515  -16.0218  -52.0292 C.ar      23 UNK        -0.1150 
     11 C11        -3.7842  -16.4421  -51.3237 C.ar      23 UNK        -0.0193 
     12 C12        -3.6255  -17.0249  -50.0630 C.ar      23 UNK        -0.1150 
     13 C13        -2.3531  -17.1921  -49.5097 C.ar      23 UNK        -0.0193 
     14 C14        -1.2299  -16.7867  -50.2353 C.ar      23 UNK        -0.1150 
     15 C15        -2.1927  -17.7813  -48.1177 C.3       23 UNK        -0.0205 
     16 S16        -1.5556  -19.4785  -48.1681 S.3       23 UNK        -0.2404 
     17 C17        -1.5063  -19.8299  -46.3782 C.3       23 UNK        -0.0398 
     18 CA         -0.8689  -21.2025  -46.0645 C.3       11 UNK         0.1400 
     19 N          -0.2889  -21.2365  -44.7201 N.am      11 UNK        -0.5000 
     20 C           0.5077  -22.2122  -44.2631 C.2       10 UNK         0.5000 
     21 O           0.8784  -23.1666  -44.9431 O.2       10 UNK        -0.5000 
     22 CA          0.8938  -22.1500  -42.7776 C.3       10 UNK         0.1400 
     23 CB          2.0486  -21.1631  -42.5414 C.3       10 UNK        -0.1800 
     24 N          -0.2603  -21.7995  -41.9483 N.am      10 UNK        -0.5000 
     25 C          -1.3014  -22.6182  -41.7351 C.2       9 UNK         0.5000 
     26 O          -1.3573  -23.7706  -42.1651 O.2       9 UNK        -0.5000 
     27 CA         -2.4927  -22.0476  -40.9408 C.3       9 UNK         0.1400 
     28 CB         -2.2769  -22.2492  -39.4337 C.3       9 UNK        -0.1800 
     29 N          -2.7338  -20.6283  -41.2058 N.am      9 UNK        -0.5000 
     30 C          -3.1486  -20.1227  -42.3772 C.2       8 UNK         0.5000 
     31 O          -3.4197  -20.8077  -43.3610 O.2       8 UNK        -0.5000 
     32 CA         -3.1914  -18.5853  -42.4876 C.3       8 UNK         0.1400 
     33 CB         -4.5329  -18.0398  -41.9777 C.3       8 UNK        -0.1800 
     34 N          -2.0896  -17.9429  -41.7631 N.am      8 UNK        -0.5000 
     35 C          -0.7973  -18.1495  -42.0469 C.2       7 UNK         0.5000 
     36 O          -0.4178  -18.8463  -42.9894 O.2       7 UNK        -0.5000 
     37 CA          0.2225  -17.6000  -41.0438 C.3       7 UNK         0.1400 
     38 CB          0.3820  -18.6221  -39.8946 C.3       7 UNK        -0.1800 
     39 N           1.4932  -17.3478  -41.7247 N.am      7 UNK        -0.5000 
     40 C           2.6062  -16.8655  -41.1538 C.2       6 UNK         0.5000 
     41 O           2.7110  -16.6052  -39.9545 O.2       6 UNK        -0.5000 
     42 CA          3.7972  -16.5752  -42.0838 C.3       6 UNK         0.1400 
     43 CB          4.2943  -17.8422  -42.8006 C.3       6 UNK        -0.1800 
     44 N           3.4682  -15.5336  -43.0550 N.am      6 UNK        -0.5000 
     45 C           3.2480  -14.2464  -42.7453 C.2       5 UNK         0.5000 
     46 O           3.4058  -13.7760  -41.6180 O.2       5 UNK        -0.5000 
     47 CA          2.7536  -13.3233  -43.8754 C.3       5 UNK         0.1400 
     48 CB          3.9377  -12.6560  -44.5911 C.3       5 UNK        -0.1800 
     49 N           1.9214  -14.0144  -44.8587 N.am      5 UNK        -0.5000 
     50 C           0.7153  -14.5449  -44.6111 C.2       4 UNK         0.5000 
     51 O           0.1339  -14.4643  -43.5286 O.2       4 UNK        -0.5000 
     52 CA          0.0650  -15.3226  -45.7685 C.3       4 UNK         0.1400 
     53 CB         -0.6466  -14.3579  -46.7323 C.3       4 UNK        -0.1800 
     54 N           1.0396  -16.1327  -46.5042 N.am      4 UNK        -0.5000 
     55 C           1.6695  -17.2016  -45.9939 C.2       3 UNK         0.5000 
     56 O           1.4772  -17.6290  -44.8582 O.2       3 UNK        -0.5000 
     57 CA          2.7309  -17.8736  -46.8829 C.3       3 UNK         0.1400 
     58 CB          2.0766  -18.8244  -47.8955 C.3       3 UNK        -0.1800 
     59 N           3.5607  -16.8987  -47.5912 N.am      3 UNK        -0.5000 
     60 C           4.4323  -16.0755  -46.9906 C.2       2 UNK         0.5000 
     61 O           4.6567  -16.0828  -45.7811 O.2       2 UNK        -0.5000 
     62 CA          5.1356  -15.0389  -47.8874 C.3       2 UNK         0.1400 
     63 CB          6.4032  -15.6382  -48.5141 C.3       2 UNK        -0.1800 
     64 N           4.2725  -14.5067  -48.9471 N.am      2 UNK        -0.5000 
     65 C           3.1426  -13.8196  -48.7307 C.2       1 UNK         0.5000 
     66 O           2.6898  -13.5891  -47.6075 O.2       1 UNK        -0.5000 
     67 C          -1.8486  -22.3733  -46.3100 C.2       11 UNK         0.5000 
     68 O          -1.8530  -22.9391  -47.4050 O.2       11 UNK        -0.5000 
     69 N          -2.6358  -22.7437  -45.2879 N.am      12 UNK        -0.5000 
     70 CA         -3.5229  -23.9099  -45.2890 C.3       12 UNK         0.1400 
     71 CB         -4.3882  -23.9292  -44.0211 C.3       12 UNK        -0.1800 
     72 C          -2.7617  -25.2332  -45.4632 C.2       12 UNK         0.5000 
     73 O          -3.1680  -26.0614  -46.2789 O.2       12 UNK        -0.5000 
     74 N          -1.6539  -25.3875  -44.7266 N.am      13 UNK        -0.5000 
     75 CA         -0.7513  -26.5323  -44.8335 C.3       13 UNK         0.1400 
     76 CB          0.2406  -26.5092  -43.6604 C.3       13 UNK        -0.1800 
     77 C          -0.0065  -26.5809  -46.1816 C.2       13 UNK         0.5000 
     78 O           0.1460  -27.6633  -46.7492 O.2       13 UNK        -0.5000 
     79 N           0.4458  -25.4151  -46.6628 N.am      14 UNK        -0.5000 
     80 CA          1.2148  -25.2680  -47.8957 C.3       14 UNK         0.1400 
     81 CB          1.8802  -23.8825  -47.9314 C.3       14 UNK        -0.1800 
     82 C           0.3843  -25.4977  -49.1690 C.2       14 UNK         0.5000 
     83 O           0.8053  -26.2783  -50.0245 O.2       14 UNK        -0.5000 
     84 N          -0.7511  -24.7973  -49.2967 N.am      15 UNK        -0.5000 
     85 CA         -1.5213  -24.7290  -50.5393 C.3       15 UNK         0.1400 
     86 CB         -0.8129  -23.8006  -51.5465 C.3       15 UNK        -0.1800 
     87 C          -2.9840  -24.3271  -50.2862 C.2       15 UNK         0.5000 
     88 O          -3.5226  -23.4759  -50.9974 O.2       15 UNK        -0.5000 
     89 N          -3.6062  -24.9476  -49.2723 N.am      16 UNK        -0.5000 
     90 CA         -5.0412  -24.8908  -48.9509 C.3       16 UNK         0.1400 
     91 CB         -5.8490  -25.6353  -50.0345 C.3       16 UNK        -0.1800 
     92 C          -5.5993  -23.4741  -48.6835 C.2       16 UNK         0.5000 
     93 O          -6.8025  -23.2553  -48.8307 O.2       16 UNK        -0.5000 
     94 N          -4.7157  -22.5431  -48.2942 N.am      17 UNK        -0.5000 
     95 CA         -4.9742  -21.1233  -48.0413 C.3       17 UNK         0.1400 
     96 CB         -5.9063  -20.9285  -46.8278 C.3       17 UNK        -0.1800 
     97 C          -5.4280  -20.3562  -49.3012 C.2       17 UNK         0.5000 
     98 O          -6.1549  -19.3676  -49.1914 O.2       17 UNK        -0.5000 
     99 N          -4.9861  -20.8219  -50.4760 N.am      18 UNK        -0.5000 
    100 CA        -5.3333  -20.2730  -51.7809 C.3       18 UNK         0.1400 
    101 CB        -6.6546  -20.8985  -52.2693 C.3       18 UNK        -0.1800 
    102 C         -4.1632  -20.4897  -52.7522 C.2       18 UNK         0.5000 
    103 O         -4.3608  -21.0055  -53.8533 O.2       18 UNK        -0.5000 
    104 N         -2.9535  -20.1069  -52.3186 N.am      19 UNK        -0.5000 
    105 CA        -1.6819  -20.4067  -52.9859 C.3       19 UNK         0.1400 
    106 CB        -0.5224  -19.9291  -52.0992 C.3       19 UNK        -0.1800 
    107 C         -1.5315  -19.8585  -54.4195 C.2       19 UNK         0.5000 
    108 O         -0.7817  -20.4403  -55.2039 O.2       19 UNK        -0.5000 
    109 N         -2.2539  -18.7800  -54.7492 N.am      20 UNK        -0.5000 
    110 CA        -2.2978  -18.1845  -56.0885 C.3       20 UNK         0.1400 
    111 CB        -2.2872  -16.6514  -55.9532 C.3       20 UNK        -0.1800 
    112 C         -3.5015  -18.6790  -56.9223 C.2       20 UNK         0.5000 
    113 O         -3.8454  -18.0336  -57.9135 O.2       20 UNK        -0.5000 
    114 N         -4.1314  -19.7922  -56.5084 N.am      21 UNK        -0.5000 
    115 CA        -5.3800  -20.3607  -57.0388 C.3       21 UNK         0.1400 
    116 CB        -5.2234  -20.8136  -58.5059 C.3       21 UNK        -0.1800 
    117 C         -6.5691  -19.4052  -56.8072 C.2       21 UNK         0.5000 
    118 O         -7.3651  -19.1485  -57.7125 O.2       21 UNK        -0.5000 
    119 N         -6.6102  -18.8592  -55.5880 N.am      22 UNK        -0.5000 
    120 CA        -7.5129  -17.7996  -55.1208 C.3       22 UNK         0.1400 
    121 C         -9.0113  -18.2093  -55.1351 C.2       22 UNK         0.5000 
    122 N         -9.9084  -17.2926  -55.4716 N.am      22 UNK        -0.7600 
    123 O         -9.3709  -19.3354  -54.7986 O.2       22 UNK        -0.5000 
    124 C124       -7.1002  -17.2961  -53.7112 C.3       23 UNK        -0.0398 
    125 S125       -5.3100  -16.9581  -53.5816 S.3       23 UNK        -0.2404 
    126 C126       -5.1796  -16.2563  -51.9082 C.3       23 UNK        -0.0205 
    127 H127        0.6240   -9.8194  -49.3238 H         1 UNK         0.0600 
    128 H128        1.8556   -8.9100  -50.2038 H         1 UNK         0.0600 
    129 H129        2.0293   -9.1812  -48.4663 H         1 UNK         0.0600 
    130 H130        0.7721  -12.0132  -49.6638 H         1 UNK         0.3000 
    131 H131        3.0388  -13.3226  -50.8213 H         1 UNK         0.0600 
    132 H132        1.7015  -15.4224  -50.3366 H         1 UNK         0.0800 
    133 H133        0.5078  -14.4556  -49.5009 H         1 UNK         0.0800 
    134 H134       -0.3811  -15.8092  -53.3656 H         1 UNK         0.0800 
    135 H135        0.6608  -16.5049  -52.1604 H         1 UNK         0.0800 
    136 H136       -2.7666  -15.5625  -53.0008 H         1 UNK         0.1150 
    137 H137       -4.4960  -17.3357  -49.5032 H         1 UNK         0.1150 
    138 H138       -0.2455  -16.9307  -49.8152 H         1 UNK         0.1150 
    139 H139       -1.5063  -17.1657  -47.5389 H         1 UNK         0.0800 
    140 H140       -3.1450  -17.7688  -47.5851 H         1 UNK         0.0800 
    141 H141       -0.9175  -19.0374  -45.9126 H         1 UNK         0.0800 
    142 H142       -2.5077  -19.7471  -45.9514 H         1 UNK         0.0800 
    143 H143       -0.0332  -21.3456  -46.7517 H         1 UNK         0.0600 
    144 H144       -0.5033  -20.4578  -44.1030 H         1 UNK         0.3000 
    145 H145        1.2377  -23.1431  -42.4802 H         1 UNK         0.0600 
    146 H146        2.3374  -21.1357  -41.4909 H         1 UNK         0.0600 
    147 H147        2.9304  -21.4583  -43.1112 H         1 UNK         0.0600 
    148 H148        1.7942  -20.1490  -42.8472 H         1 UNK         0.0600 
    149 H149       -0.3124  -20.8468  -41.6220 H         1 UNK         0.3000 
    150 H150       -3.3864  -22.6016  -41.2339 H         1 UNK         0.0600 
    151 H151       -2.1163  -23.3026  -39.2002 H         1 UNK         0.0600 
    152 H152       -3.1459  -21.9204  -38.8633 H         1 UNK         0.0600 
    153 H153       -1.4085  -21.6967  -39.0724 H         1 UNK         0.0600 
    154 H154       -2.5426  -19.9880  -40.4501 H         1 UNK         0.3000 
    155 H155       -3.0954  -18.3269  -43.5444 H         1 UNK         0.0600 
    156 H156       -4.6006  -16.9615  -42.1227 H         1 UNK         0.0600 
    157 H157       -4.6765  -18.2462  -40.9164 H         1 UNK         0.0600 
    158 H158       -5.3671  -18.4919  -42.5161 H         1 UNK         0.0600 
    159 H159       -2.3394  -17.3719  -40.9683 H         1 UNK         0.3000 
    160 H160       -0.1508  -16.6532  -40.6492 H         1 UNK         0.0600 
    161 H161        0.8953  -19.5243  -40.2270 H         1 UNK         0.0600 
    162 H162       -0.5851  -18.9246  -39.4914 H         1 UNK         0.0600 
    163 H163        0.9445  -18.2099  -39.0580 H         1 UNK         0.0600 
    164 H164        1.4756  -17.5256  -42.7267 H         1 UNK         0.3000 
    165 H165        4.6188  -16.2074  -41.4654 H         1 UNK         0.0600 
    166 H166        3.5433  -18.2641  -43.4663 H         1 UNK         0.0600 
    167 H167        5.1832  -17.6321  -43.3956 H         1 UNK         0.0600 
    168 H168        4.5607  -18.6161  -42.0799 H         1 UNK         0.0600 
    169 H169        3.3731  -15.8236  -44.0202 H         1 UNK         0.3000 
    170 H170        2.1463  -12.5387  -43.4195 H         1 UNK         0.0600 
    171 H171        4.5475  -12.0865  -43.8888 H         1 UNK         0.0600 
    172 H172        4.5858  -13.3924  -45.0660 H         1 UNK         0.0600 
    173 H173        3.5955  -11.9646  -45.3615 H         1 UNK         0.0600 
    174 H174        2.2883  -14.0657  -45.8052 H         1 UNK         0.3000 
    175 H175       -0.6817  -15.9966  -45.3426 H         1 UNK         0.0600 
    176 H176       -1.4306  -13.8046  -46.2139 H         1 UNK         0.0600 
    177 H177        0.0412  -13.6245  -47.1534 H         1 UNK         0.0600 
    178 H178       -1.1188  -14.8849  -47.5602 H         1 UNK         0.0600 
    179 H179        1.3099  -15.8018  -47.4164 H         1 UNK         0.3000 
    180 H180        3.3808  -18.4653  -46.2343 H         1 UNK         0.0600 
    181 H181        1.4078  -18.2975  -48.5766 H         1 UNK         0.0600 
    182 H182        1.4908  -19.5878  -47.3839 H         1 UNK         0.0600 
    183 H183        2.8264  -19.3419  -48.4940 H         1 UNK         0.0600 
    184 H184        3.4525  -16.8414  -48.5924 H         1 UNK         0.3000 
    185 H185        5.4339  -14.2027  -47.2519 H         1 UNK         0.0600 
    186 H186        6.9575  -14.8875  -49.0778 H         1 UNK         0.0600 
    187 H187        7.0733  -16.0246  -47.7449 H         1 UNK         0.0600 
    188 H188        6.1694  -16.4619  -49.1898 H         1 UNK         0.0600 
    189 H189        4.5830  -14.6601  -49.8960 H         1 UNK         0.3000 
    190 H190       -2.6517  -22.1678  -44.4510 H         1 UNK         0.3000 
    191 H191       -4.2022  -23.8166  -46.1311 H         1 UNK         0.0600 
    192 H192       -5.0971  -24.7575  -44.0489 H         1 UNK         0.0600 
    193 H193       -4.9675  -23.0113  -43.9227 H         1 UNK         0.0600 
    194 H194       -3.7880  -24.0471  -43.1207 H         1 UNK         0.0600 
    195 H195       -1.4111  -24.6741  -44.0478 H         1 UNK         0.3000 
    196 H196       -1.3499  -27.4420  -44.7517 H         1 UNK         0.0600 
    197 H197        0.9118  -27.3679  -43.6991 H         1 UNK         0.0600 
    198 H198       -0.2807  -26.5454  -42.7036 H         1 UNK         0.0600 
    199 H199        0.8565  -25.6094  -43.6699 H         1 UNK         0.0600 
    200 H200        0.3414  -24.5799  -46.0931 H         1 UNK         0.3000 
    201 H201        2.0113  -26.0151  -47.8824 H         1 UNK         0.0600 
    202 H202        2.5535  -23.7464  -47.0850 H         1 UNK         0.0600 
    203 H203        1.1429  -23.0801  -47.9055 H         1 UNK         0.0600 
    204 H204        2.4711  -23.7552  -48.8394 H         1 UNK         0.0600 
    205 H205       -1.0550  -24.1786  -48.5464 H         1 UNK         0.3000 
    206 H206       -1.5670  -25.7281  -50.9775 H         1 UNK         0.0600 
    207 H207        0.1950  -24.1467  -51.7751 H         1 UNK         0.0600 
    208 H208       -1.3557  -23.7620  -52.4914 H         1 UNK         0.0600 
    209 H209       -0.7370  -22.7853  -51.1576 H         1 UNK         0.0600 
    210 H210       -3.0638  -25.5804  -48.6981 H         1 UNK         0.3000 
    211 H211       -5.1661  -25.4398  -48.0171 H         1 UNK         0.0600 
    212 H212       -5.8233  -25.1080  -50.9889 H         1 UNK         0.0600 
    213 H213       -6.8956  -25.7392  -49.7459 H         1 UNK         0.0600 
    214 H214       -5.4598  -26.6406  -50.1959 H         1 UNK         0.0600 
    215 H215       -3.7439  -22.8259  -48.2180 H         1 UNK         0.3000 
    216 H216       -4.0151  -20.6952  -47.7665 H         1 UNK         0.0600 
    217 H217       -5.5306  -21.4606  -45.9538 H         1 UNK         0.0600 
    218 H218       -5.9768  -19.8749  -46.5554 H         1 UNK         0.0600 
    219 H219       -6.9177  -21.2813  -47.0298 H         1 UNK         0.0600 
    220 H220       -4.4053  -21.6560  -50.4945 H         1 UNK         0.3000 
    221 H221       -5.4702  -19.1956  -51.6915 H         1 UNK         0.0600 
    222 H222       -6.9397  -20.5156  -53.2492 H         1 UNK         0.0600 
    223 H223       -6.5744  -21.9833  -52.3499 H         1 UNK         0.0600 
    224 H224       -7.4735  -20.6745  -51.5856 H         1 UNK         0.0600 
    225 H225       -2.8867  -19.6702  -51.4102 H         1 UNK         0.3000 
    226 H226       -1.6217  -21.4922  -53.0650 H         1 UNK         0.0600 
    227 H227       -0.4980  -18.8435  -52.0270 H         1 UNK         0.0600 
    228 H228       -0.5975  -20.3311  -51.0888 H         1 UNK         0.0600 
    229 H229        0.4372  -20.2501  -52.5061 H         1 UNK         0.0600 
    230 H230       -2.8572  -18.3700  -54.0500 H         1 UNK         0.3000 
    231 H231       -1.4018  -18.4635  -56.6464 H         1 UNK         0.0600 
    232 H232       -2.2380  -16.1698  -56.9304 H         1 UNK         0.0600 
    233 H233       -1.4191  -16.3130  -55.3898 H         1 UNK         0.0600 
    234 H234       -3.1806  -16.2808  -55.4525 H         1 UNK         0.0600 
    235 H235       -3.7991  -20.2345  -55.6578 H         1 UNK         0.3000 
    236 H236       -5.5855  -21.2520  -56.4440 H         1 UNK         0.0600 
    237 H237       -4.3690  -21.4800  -58.6231 H         1 UNK         0.0600 
    238 H238       -6.1078  -21.3579  -58.8387 H         1 UNK         0.0600 
    239 H239       -5.0882  -19.9710  -59.1841 H         1 UNK         0.0600 
    240 H240       -5.8987  -19.1385  -54.9301 H         1 UNK         0.3000 
    241 H241       -7.3892  -16.9688  -55.8183 H         1 UNK         0.0600 
    242 H242       -9.6383  -16.3596  -55.7436 H         1 UNK         0.3800 
    243 H243      -10.8858  -17.5412  -55.4694 H         1 UNK         0.3800 
    244 H244       -7.6451  -16.3837  -53.4632 H         1 UNK         0.0800 
    245 H245       -7.3650  -18.0293  -52.9476 H         1 UNK         0.0800 
    246 H246       -5.9255  -16.7230  -51.2626 H         1 UNK         0.0800 
    247 H247       -5.4182  -15.1927  -51.9435 H         1 UNK         0.0800 
@<TRIPOS>BOND
     1    1    2 1    
     2    1  127 1    
     3    1  128 1    
     4    1  129 1    
     5    2    3 2    
     6    2    4 am   BACKBONE|DICT|INTERRES
     7    4    5 1    
     8    4  130 1    
     9    5    6 1    
    10    5   65 1    
    11    5  131 1    
    12    6    7 1    
    13    6  132 1    
    14    6  133 1    
    15    7    8 1    
    16    8    9 1    
    17    8  134 1    
    18    8  135 1    
    19    9   10 ar   
    20    9   14 ar   
    21   10   11 ar   
    22   10  136 1    
    23   11   12 ar   
    24   11  126 1    
    25   12   13 ar   
    26   12  137 1    
    27   13   14 ar   
    28   13   15 1    
    29   14  138 1    
    30   15   16 1    
    31   15  139 1    
    32   15  140 1    
    33   16   17 1    
    34   17   18 1    
    35   17  141 1    
    36   17  142 1    
    37   18   19 1    
    38   18   67 1    
    39   18  143 1    
    40   19   20 am   BACKBONE|DICT|INTERRES
    41   19  144 1    
    42   20   21 2    
    43   20   22 1    
    44   22   23 1    
    45   22   24 1    
    46   22  145 1    
    47   23  146 1    
    48   23  147 1    
    49   23  148 1    
    50   24   25 am   BACKBONE|DICT|INTERRES
    51   24  149 1    
    52   25   26 2    
    53   25   27 1    
    54   27   28 1    
    55   27   29 1    
    56   27  150 1    
    57   28  151 1    
    58   28  152 1    
    59   28  153 1    
    60   29   30 am   BACKBONE|DICT|INTERRES
    61   29  154 1    
    62   30   31 2    
    63   30   32 1    
    64   32   33 1    
    65   32   34 1    
    66   32  155 1    
    67   33  156 1    
    68   33  157 1    
    69   33  158 1    
    70   34   35 am   BACKBONE|DICT|INTERRES
    71   34  159 1    
    72   35   36 2    
    73   35   37 1    
    74   37   38 1    
    75   37   39 1    
    76   37  160 1    
    77   38  161 1    
    78   38  162 1    
    79   38  163 1    
    80   39   40 am   BACKBONE|DICT|INTERRES
    81   39  164 1    
    82   40   41 2    
    83   40   42 1    
    84   42   43 1    
    85   42   44 1    
    86   42  165 1    
    87   43  166 1    
    88   43  167 1    
    89   43  168 1    
    90   44   45 am   BACKBONE|DICT|INTERRES
    91   44  169 1    
    92   45   46 2    
    93   45   47 1    
    94   47   48 1    
    95   47   49 1    
    96   47  170 1    
    97   48  171 1    
    98   48  172 1    
    99   48  173 1    
   100   49   50 am   BACKBONE|DICT|INTERRES
   101   49  174 1    
   102   50   51 2    
   103   50   52 1    
   104   52   53 1    
   105   52   54 1    
   106   52  175 1    
   107   53  176 1    
   108   53  177 1    
   109   53  178 1    
   110   54   55 am   BACKBONE|DICT|INTERRES
   111   54  179 1    
   112   55   56 2    
   113   55   57 1    
   114   57   58 1    
   115   57   59 1    
   116   57  180 1    
   117   58  181 1    
   118   58  182 1    
   119   58  183 1    
   120   59   60 am   BACKBONE|DICT|INTERRES
   121   59  184 1    
   122   60   61 2    
   123   60   62 1    
   124   62   63 1    
   125   62   64 1    
   126   62  185 1    
   127   63  186 1    
   128   63  187 1    
   129   63  188 1    
   130   64   65 am   BACKBONE|DICT|INTERRES
   131   64  189 1    
   132   65   66 2    
   133   67   68 2    
   134   67   69 am   BACKBONE|DICT|INTERRES
   135   69   70 1    
   136   69  190 1    
   137   70   71 1    
   138   70   72 1    
   139   70  191 1    
   140   71  192 1    
   141   71  193 1    
   142   71  194 1    
   143   72   73 2    
   144   72   74 am   BACKBONE|DICT|INTERRES
   145   74   75 1    
   146   74  195 1    
   147   75   76 1    
   148   75   77 1    
   149   75  196 1    
   150   76  197 1    
   151   76  198 1    
   152   76  199 1    
   153   77   78 2    
   154   77   79 am   BACKBONE|DICT|INTERRES
   155   79   80 1    
   156   79  200 1    
   157   80   81 1    
   158   80   82 1    
   159   80  201 1    
   160   81  202 1    
   161   81  203 1    
   162   81  204 1    
   163   82   83 2    
   164   82   84 am   BACKBONE|DICT|INTERRES
   165   84   85 1    
   166   84  205 1    
   167   85   86 1    
   168   85   87 1    
   169   85  206 1    
   170   86  207 1    
   171   86  208 1    
   172   86  209 1    
   173   87   88 2    
   174   87   89 am   BACKBONE|DICT|INTERRES
   175   89   90 1    
   176   89  210 1    
   177   90   91 1    
   178   90   92 1    
   179   90  211 1    
   180   91  212 1    
   181   91  213 1    
   182   91  214 1    
   183   92   93 2    
   184   92   94 am   BACKBONE|DICT|INTERRES
   185   94   95 1    
   186   94  215 1    
   187   95   96 1    
   188   95   97 1    
   189   95  216 1    
   190   96  217 1    
   191   96  218 1    
   192   96  219 1    
   193   97   98 2    
   194   97   99 am   BACKBONE|DICT|INTERRES
   195   99  100 1    
   196   99  220 1    
   197  100  101 1    
   198  100  102 1    
   199  100  221 1    
   200  101  222 1    
   201  101  223 1    
   202  101  224 1    
   203  102  103 2    
   204  102  104 am   BACKBONE|DICT|INTERRES
   205  104  105 1    
   206  104  225 1    
   207  105  106 1    
   208  105  107 1    
   209  105  226 1    
   210  106  227 1    
   211  106  228 1    
   212  106  229 1    
   213  107  108 2    
   214  107  109 am   BACKBONE|DICT|INTERRES
   215  109  110 1    
   216  109  230 1    
   217  110  111 1    
   218  110  112 1    
   219  110  231 1    
   220  111  232 1    
   221  111  233 1    
   222  111  234 1    
   223  112  113 2    
   224  112  114 am   BACKBONE|DICT|INTERRES
   225  114  115 1    
   226  114  235 1    
   227  115  116 1    
   228  115  117 1    
   229  115  236 1    
   230  116  237 1    
   231  116  238 1    
   232  116  239 1    
   233  117  118 2    
   234  117  119 am   BACKBONE|DICT|INTERRES
   235  119  120 1    
   236  119  240 1    
   237  120  121 1    
   238  120  124 1    
   239  120  241 1    
   240  121  122 am   BACKBONE|DICT|INTERRES
   241  121  123 2    
   242  122  242 1    
   243  122  243 1    
   244  124  125 1    
   245  124  244 1    
   246  124  245 1    
   247  125  126 1    
   248  126  246 1    
   249  126  247 1    
@<TRIPOS>SUBSTRUCTURE
     1 UNK         1 GROUP             0       ****    0 ROOT    
