@<TRIPOS>MOLECULE
3R540
247   249    1
SMALL
USER_CHARGES


@<TRIPOS>ATOM
      1 CA          2.8752  -13.0392  -53.4495 C.3       0 UNK        -0.1800 
      2 C           2.7572  -12.3850  -52.0802 C.2       0 UNK         0.5000 
      3 O           2.5441  -11.1759  -51.9937 O.2       0 UNK        -0.5000 
      4 N           2.8924  -13.1805  -51.0123 N.am      1 UNK        -0.5000 
      5 CA          2.8034  -12.7368  -49.6143 C.3       1 UNK         0.1400 
      6 C6          3.5483  -13.6842  -48.6363 C.3       23 UNK        -0.0398 
      7 S7          5.2760  -14.0551  -49.1021 S.3       23 UNK        -0.2404 
      8 C8          5.4550  -15.7889  -48.5294 C.3       23 UNK        -0.0205 
      9 C9          4.6028  -16.8348  -49.2557 C.ar      23 UNK        -0.0193 
     10 C10         3.9360  -16.5544  -50.4534 C.ar      23 UNK        -0.1150 
     11 C11         3.1152  -17.5037  -51.0603 C.ar      23 UNK        -0.0193 
     12 C12         3.0215  -18.7821  -50.5093 C.ar      23 UNK        -0.1150 
     13 C13         3.7232  -19.1036  -49.3439 C.ar      23 UNK        -0.0193 
     14 C14         4.4929  -18.1203  -48.7107 C.ar      23 UNK        -0.1150 
     15 C15         3.6688  -20.5243  -48.8019 C.3       23 UNK        -0.0205 
     16 S16         2.0006  -20.9619  -48.2327 S.3       23 UNK        -0.2404 
     17 C17         2.1066  -22.7817  -48.1973 C.3       23 UNK        -0.0398 
     18 CA          1.1063  -23.4633  -47.2339 C.3       11 UNK         0.1400 
     19 N           1.2802  -23.0414  -45.8427 N.am      11 UNK        -0.5000 
     20 C           0.8086  -23.7144  -44.7859 C.2       10 UNK         0.5000 
     21 O           0.1856  -24.7714  -44.8955 O.2       10 UNK        -0.5000 
     22 CA          0.9962  -23.0946  -43.3863 C.3       10 UNK         0.1400 
     23 CB          1.5107  -24.1229  -42.3597 C.3       10 UNK        -0.1800 
     24 N           1.7955  -21.8645  -43.3617 N.am      10 UNK        -0.5000 
     25 C           3.1093  -21.7034  -43.5778 C.2       9 UNK         0.5000 
     26 O           3.8803  -22.6251  -43.8445 O.2       9 UNK        -0.5000 
     27 CA          3.6554  -20.2604  -43.5094 C.3       9 UNK         0.1400 
     28 CB          4.0062  -19.7578  -44.9194 C.3       9 UNK        -0.1800 
     29 N           2.7233  -19.3119  -42.8935 N.am      9 UNK        -0.5000 
     30 C           2.4335  -19.2424  -41.5867 C.2       8 UNK         0.5000 
     31 O           2.9921  -19.9213  -40.7248 O.2       8 UNK        -0.5000 
     32 CA          1.2871  -18.2913  -41.1864 C.3       8 UNK         0.1400 
     33 CB          1.7985  -16.8557  -40.9935 C.3       8 UNK        -0.1800 
     34 N           0.1881  -18.3004  -42.1575 N.am      8 UNK        -0.5000 
     35 C          -0.6112  -19.3540  -42.3797 C.2       7 UNK         0.5000 
     36 O          -0.5396  -20.4078  -41.7487 O.2       7 UNK        -0.5000 
     37 CA         -1.6244  -19.2418  -43.5299 C.3       7 UNK         0.1400 
     38 CB         -2.9139  -18.5491  -43.0676 C.3       7 UNK        -0.1800 
     39 N          -1.0724  -18.5441  -44.6916 N.am      7 UNK        -0.5000 
     40 C          -0.1438  -19.0508  -45.5152 C.2       6 UNK         0.5000 
     41 O           0.2558  -20.2130  -45.4419 O.2       6 UNK        -0.5000 
     42 CA          0.4569  -18.1021  -46.5743 C.3       6 UNK         0.1400 
     43 CB         -0.3240  -18.1636  -47.8940 C.3       6 UNK        -0.1800 
     44 N           0.5262  -16.7151  -46.1169 N.am      6 UNK        -0.5000 
     45 C           1.2858  -16.2996  -45.0945 C.2       5 UNK         0.5000 
     46 O           2.0505  -17.0353  -44.4738 O.2       5 UNK        -0.5000 
     47 CA          1.1276  -14.8365  -44.6553 C.3       5 UNK         0.1400 
     48 CB          2.0276  -13.9245  -45.4874 C.3       5 UNK        -0.1800 
     49 N          -0.2556  -14.3826  -44.7717 N.am      5 UNK        -0.5000 
     50 C          -1.2247  -14.7187  -43.9123 C.2       4 UNK         0.5000 
     51 O          -1.0408  -15.4197  -42.9166 O.2       4 UNK        -0.5000 
     52 CA         -2.6403  -14.2166  -44.2497 C.3       4 UNK         0.1400 
     53 CB         -2.8152  -12.7518  -43.8216 C.3       4 UNK        -0.1800 
     54 N          -2.9653  -14.3501  -45.6724 N.am      4 UNK        -0.5000 
     55 C          -3.0967  -15.5247  -46.3039 C.2       3 UNK         0.5000 
     56 O          -2.9421  -16.6133  -45.7544 O.2       3 UNK        -0.5000 
     57 CA         -3.4438  -15.4845  -47.8025 C.3       3 UNK         0.1400 
     58 CB         -4.9667  -15.4030  -47.9886 C.3       3 UNK        -0.1800 
     59 N          -2.8033  -14.4046  -48.5603 N.am      3 UNK        -0.5000 
     60 C          -1.4838  -14.1823  -48.6561 C.2       2 UNK         0.5000 
     61 O          -0.6368  -14.7821  -47.9890 O.2       2 UNK        -0.5000 
     62 CA         -1.0676  -13.1354  -49.7088 C.3       2 UNK         0.1400 
     63 CB         -1.6612  -11.7407  -49.4174 C.3       2 UNK        -0.1800 
     64 N           0.3822  -13.0845  -49.9273 N.am      2 UNK        -0.5000 
     65 C           1.3371  -12.5378  -49.1573 C.2       1 UNK         0.5000 
     66 O           1.1148  -11.8972  -48.1295 O.2       1 UNK        -0.5000 
     67 C          -0.3611  -23.3236  -47.6924 C.2       11 UNK         0.5000 
     68 O          -0.8465  -24.1776  -48.4344 O.2       11 UNK        -0.5000 
     69 N          -1.0669  -22.2997  -47.1872 N.am      12 UNK        -0.5000 
     70 CA         -2.5023  -22.1142  -47.4071 C.3       12 UNK         0.1400 
     71 CB         -2.9300  -20.7209  -46.9383 C.3       12 UNK        -0.1800 
     72 C          -3.3570  -23.1821  -46.7084 C.2       12 UNK         0.5000 
     73 O          -4.3905  -23.5730  -47.2508 O.2       12 UNK        -0.5000 
     74 N          -2.9019  -23.6434  -45.5354 N.am      13 UNK        -0.5000 
     75 CA         -3.5294  -24.7214  -44.7723 C.3       13 UNK         0.1400 
     76 CB         -2.9915  -24.7183  -43.3329 C.3       13 UNK        -0.1800 
     77 C          -3.3203  -26.0899  -45.4434 C.2       13 UNK         0.5000 
     78 O          -4.2488  -26.8972  -45.4689 O.2       13 UNK        -0.5000 
     79 N          -2.1236  -26.3058  -46.0101 N.am      14 UNK        -0.5000 
     80 CA         -1.7825  -27.4814  -46.8123 C.3       14 UNK         0.1400 
     81 CB         -0.2692  -27.5026  -47.0756 C.3       14 UNK        -0.1800 
     82 C          -2.5732  -27.5417  -48.1335 C.2       14 UNK         0.5000 
     83 O          -3.0457  -28.6159  -48.5072 O.2       14 UNK        -0.5000 
     84 N          -2.7263  -26.3872  -48.7999 N.am      15 UNK        -0.5000 
     85 CA         -3.5516  -26.2229  -49.9994 C.3       15 UNK         0.1400 
     86 CB         -3.2586  -24.8538  -50.6349 C.3       15 UNK        -0.1800 
     87 C          -5.0592  -26.3650  -49.7125 C.2       15 UNK         0.5000 
     88 O          -5.7913  -26.8745  -50.5611 O.2       15 UNK        -0.5000 
     89 N          -5.4818  -25.9028  -48.5258 N.am      16 UNK        -0.5000 
     90 CA         -6.8500  -25.8822  -47.9975 C.3       16 UNK         0.1400 
     91 CB         -7.3787  -27.3155  -47.7832 C.3       16 UNK        -0.1800 
     92 C          -7.8044  -24.9984  -48.8295 C.2       16 UNK         0.5000 
     93 O          -8.9973  -25.2930  -48.9254 O.2       16 UNK        -0.5000 
     94 N          -7.2565  -23.9291  -49.4211 N.am      17 UNK        -0.5000 
     95 CA         -7.9534  -23.0246  -50.3376 C.3       17 UNK         0.1400 
     96 CB         -7.9633  -23.6309  -51.7556 C.3       17 UNK        -0.1800 
     97 C          -7.3418  -21.6121  -50.3025 C.2       17 UNK         0.5000 
     98 O          -7.3054  -20.9334  -51.3304 O.2       17 UNK        -0.5000 
     99 N          -6.8226  -21.2011  -49.1330 N.am      18 UNK        -0.5000 
    100 CA        -6.2010  -19.8935  -48.8531 C.3       18 UNK         0.1400 
    101 CB        -7.2468  -18.7650  -48.9762 C.3       18 UNK        -0.1800 
    102 C         -4.9400  -19.5952  -49.7010 C.2       18 UNK         0.5000 
    103 O         -4.5629  -18.4314  -49.8465 O.2       18 UNK        -0.5000 
    104 N         -4.3566  -20.6425  -50.3103 N.am      19 UNK        -0.5000 
    105 CA        -3.3364  -20.6081  -51.3716 C.3       19 UNK         0.1400 
    106 CB        -1.9909  -20.0871  -50.8195 C.3       19 UNK        -0.1800 
    107 C         -3.7893  -19.8260  -52.6300 C.2       19 UNK         0.5000 
    108 O         -2.9445  -19.3589  -53.3962 O.2       19 UNK        -0.5000 
    109 N         -5.1102  -19.6283  -52.7835 N.am      20 UNK        -0.5000 
    110 CA        -5.7739  -18.6939  -53.7006 C.3       20 UNK         0.1400 
    111 CB        -5.6719  -19.2005  -55.1535 C.3       20 UNK        -0.1800 
    112 C         -5.3010  -17.2279  -53.5325 C.2       20 UNK         0.5000 
    113 O         -5.3522  -16.4578  -54.4923 O.2       20 UNK        -0.5000 
    114 N         -4.8250  -16.8819  -52.3227 N.am      21 UNK        -0.5000 
    115 CA        -4.1151  -15.6506  -51.9613 C.3       21 UNK         0.1400 
    116 CB        -5.0615  -14.4333  -51.9895 C.3       21 UNK        -0.1800 
    117 C         -2.8269  -15.4529  -52.7896 C.2       21 UNK         0.5000 
    118 O         -2.5570  -14.3471  -53.2603 O.2       21 UNK        -0.5000 
    119 N         -2.0705  -16.5472  -52.9507 N.am      22 UNK        -0.5000 
    120 CA        -0.9135  -16.6991  -53.8465 C.3       22 UNK         0.1400 
    121 C         -1.3468  -16.7317  -55.3372 C.2       22 UNK         0.5000 
    122 N         -2.2218  -17.6606  -55.6983 N.am      22 UNK        -0.7600 
    123 O         -0.8994  -15.9397  -56.1628 O.2       22 UNK        -0.5000 
    124 C124        0.2647  -15.7311  -53.5539 C.3       23 UNK        -0.0398 
    125 S125        0.9625  -16.0030  -51.8938 S.3       23 UNK        -0.2404 
    126 C126        2.3311  -17.1320  -52.3054 C.3       23 UNK        -0.0205 
    127 H127        1.9304  -12.9582  -53.9867 H         1 UNK         0.0600 
    128 H128        3.6469  -12.5426  -54.0376 H         1 UNK         0.0600 
    129 H129        3.1352  -14.0951  -53.3738 H         1 UNK         0.0600 
    130 H130        3.0540  -14.1668  -51.1468 H         1 UNK         0.3000 
    131 H131        3.2869  -11.7599  -49.5448 H         1 UNK         0.0600 
    132 H132        2.9967  -14.6188  -48.5180 H         1 UNK         0.0800 
    133 H133        3.5931  -13.2221  -47.6504 H         1 UNK         0.0800 
    134 H134        5.2300  -15.8217  -47.4621 H         1 UNK         0.0800 
    135 H135        6.5028  -16.0735  -48.6319 H         1 UNK         0.0800 
    136 H136        4.0327  -15.5894  -50.9204 H         1 UNK         0.1150 
    137 H137        2.4053  -19.5314  -50.9861 H         1 UNK         0.1150 
    138 H138        5.0219  -18.3605  -47.7989 H         1 UNK         0.1150 
    139 H139        3.9753  -21.2103  -49.5929 H         1 UNK         0.0800 
    140 H140        4.3750  -20.6588  -47.9815 H         1 UNK         0.0800 
    141 H141        3.1205  -23.0635  -47.9097 H         1 UNK         0.0800 
    142 H142        1.9716  -23.1566  -49.2134 H         1 UNK         0.0800 
    143 H143        1.3313  -24.5314  -47.2688 H         1 UNK         0.0600 
    144 H144        1.6970  -22.1329  -45.6922 H         1 UNK         0.3000 
    145 H145       -0.0029  -22.7954  -43.0677 H         1 UNK         0.0600 
    146 H146        1.6139  -23.6747  -41.3714 H         1 UNK         0.0600 
    147 H147        0.8174  -24.9594  -42.2643 H         1 UNK         0.0600 
    148 H148        2.4781  -24.5357  -42.6459 H         1 UNK         0.0600 
    149 H149        1.2627  -21.0247  -43.1800 H         1 UNK         0.3000 
    150 H150        4.5702  -20.2818  -42.9138 H         1 UNK         0.0600 
    151 H151        4.7395  -20.4080  -45.3977 H         1 UNK         0.0600 
    152 H152        4.4323  -18.7549  -44.8881 H         1 UNK         0.0600 
    153 H153        3.1269  -19.7262  -45.5628 H         1 UNK         0.0600 
    154 H154        2.2817  -18.6422  -43.5190 H         1 UNK         0.3000 
    155 H155        0.8892  -18.6365  -40.2298 H         1 UNK         0.0600 
    156 H156        2.2459  -16.4569  -41.9033 H         1 UNK         0.0600 
    157 H157        2.5592  -16.8171  -40.2130 H         1 UNK         0.0600 
    158 H158        0.9916  -16.1856  -40.6958 H         1 UNK         0.0600 
    159 H159        0.0495  -17.4587  -42.7018 H         1 UNK         0.3000 
    160 H160       -1.8808  -20.2608  -43.8237 H         1 UNK         0.0600 
    161 H161       -3.6664  -18.5560  -43.8564 H         1 UNK         0.0600 
    162 H162       -2.7371  -17.5116  -42.7842 H         1 UNK         0.0600 
    163 H163       -3.3436  -19.0580  -42.2039 H         1 UNK         0.0600 
    164 H164       -1.4425  -17.6194  -44.8849 H         1 UNK         0.3000 
    165 H165        1.4779  -18.4322  -46.7723 H         1 UNK         0.0600 
    166 H166        0.1432  -17.5415  -48.6583 H         1 UNK         0.0600 
    167 H167       -0.3570  -19.1807  -48.2835 H         1 UNK         0.0600 
    168 H168       -1.3510  -17.8264  -47.7673 H         1 UNK         0.0600 
    169 H169       -0.0347  -16.0366  -46.6244 H         1 UNK         0.3000 
    170 H170        1.4393  -14.7608  -43.6114 H         1 UNK         0.0600 
    171 H171        3.0691  -14.2452  -45.4377 H         1 UNK         0.0600 
    172 H172        1.7169  -13.9431  -46.5298 H         1 UNK         0.0600 
    173 H173        1.9815  -12.8923  -45.1399 H         1 UNK         0.0600 
    174 H174       -0.4947  -13.8530  -45.5982 H         1 UNK         0.3000 
    175 H175       -3.3495  -14.8236  -43.6828 H         1 UNK         0.0600 
    176 H176       -3.8403  -12.4154  -43.9779 H         1 UNK         0.0600 
    177 H177       -2.5912  -12.6261  -42.7614 H         1 UNK         0.0600 
    178 H178       -2.1545  -12.0858  -44.3781 H         1 UNK         0.0600 
    179 H179       -3.1012  -13.4992  -46.1978 H         1 UNK         0.3000 
    180 H180       -3.1094  -16.4267  -48.2393 H         1 UNK         0.0600 
    181 H181       -5.3630  -14.4412  -47.6612 H         1 UNK         0.0600 
    182 H182       -5.4708  -16.1787  -47.4106 H         1 UNK         0.0600 
    183 H183       -5.2502  -15.5484  -49.0304 H         1 UNK         0.0600 
    184 H184       -3.4252  -13.8351  -49.1143 H         1 UNK         0.3000 
    185 H185       -1.4819  -13.4750  -50.6591 H         1 UNK         0.0600 
    186 H186       -1.4217  -11.3960  -48.4111 H         1 UNK         0.0600 
    187 H187       -1.2898  -10.9985  -50.1241 H         1 UNK         0.0600 
    188 H188       -2.7480  -11.7482  -49.5045 H         1 UNK         0.0600 
    189 H189        0.7036  -13.6173  -50.7233 H         1 UNK         0.3000 
    190 H190       -0.5917  -21.6307  -46.5885 H         1 UNK         0.3000 
    191 H191       -2.7001  -22.1921  -48.4771 H         1 UNK         0.0600 
    192 H192       -2.5131  -19.9400  -47.5708 H         1 UNK         0.0600 
    193 H193       -2.6270  -20.5362  -45.9123 H         1 UNK         0.0600 
    194 H194       -4.0111  -20.6159  -46.9612 H         1 UNK         0.0600 
    195 H195       -2.0293  -23.2829  -45.1818 H         1 UNK         0.3000 
    196 H196       -4.6041  -24.5302  -44.7312 H         1 UNK         0.0600 
    197 H197       -3.4912  -25.4789  -42.7318 H         1 UNK         0.0600 
    198 H198       -3.1643  -23.7570  -42.8488 H         1 UNK         0.0600 
    199 H199       -1.9222  -24.9255  -43.2953 H         1 UNK         0.0600 
    200 H200       -1.3889  -25.6203  -45.8727 H         1 UNK         0.3000 
    201 H201       -2.0371  -28.3692  -46.2298 H         1 UNK         0.0600 
    202 H202        0.2939  -27.4961  -46.1421 H         1 UNK         0.0600 
    203 H203        0.0509  -26.6435  -47.6648 H         1 UNK         0.0600 
    204 H204        0.0178  -28.4007  -47.6237 H         1 UNK         0.0600 
    205 H205       -2.2259  -25.5653  -48.4751 H         1 UNK         0.3000 
    206 H206       -3.2725  -26.9995  -50.7145 H         1 UNK         0.0600 
    207 H207       -2.2076  -24.7649  -50.9109 H         1 UNK         0.0600 
    208 H208       -3.8465  -24.7088  -51.5421 H         1 UNK         0.0600 
    209 H209       -3.4946  -24.0352  -49.9550 H         1 UNK         0.0600 
    210 H210       -4.8001  -25.4352  -47.9390 H         1 UNK         0.3000 
    211 H211       -6.7829  -25.4096  -47.0165 H         1 UNK         0.0600 
    212 H212       -7.5378  -27.8354  -48.7282 H         1 UNK         0.0600 
    213 H213       -8.3302  -27.3065  -47.2506 H         1 UNK         0.0600 
    214 H214       -6.6807  -27.9053  -47.1885 H         1 UNK         0.0600 
    215 H215       -6.2704  -23.7633  -49.2763 H         1 UNK         0.3000 
    216 H216       -8.9874  -22.9087  -50.0068 H         1 UNK         0.0600 
    217 H217       -8.5161  -23.0001  -52.4528 H         1 UNK         0.0600 
    218 H218       -8.4402  -24.6111  -51.7645 H         1 UNK         0.0600 
    219 H219       -6.9517  -23.7491  -52.1457 H         1 UNK         0.0600 
    220 H220       -6.8967  -21.8254  -48.3410 H         1 UNK         0.3000 
    221 H221       -5.8870  -19.9170  -47.8115 H         1 UNK         0.0600 
    222 H222       -7.5605  -18.6100  -50.0089 H         1 UNK         0.0600 
    223 H223       -8.1358  -18.9843  -48.3850 H         1 UNK         0.0600 
    224 H224       -6.8471  -17.8174  -48.6148 H         1 UNK         0.0600 
    225 H225       -4.7642  -21.5484  -50.1363 H         1 UNK         0.3000 
    226 H226       -3.1874  -21.6395  -51.6937 H         1 UNK         0.0600 
    227 H227       -1.6587  -20.6718  -49.9629 H         1 UNK         0.0600 
    228 H228       -1.2036  -20.1541  -51.5712 H         1 UNK         0.0600 
    229 H229       -2.0529  -19.0441  -50.5079 H         1 UNK         0.0600 
    230 H230       -5.7396  -20.0845  -52.1287 H         1 UNK         0.3000 
    231 H231       -6.8291  -18.6998  -53.4237 H         1 UNK         0.0600 
    232 H232       -6.0500  -20.2191  -55.2402 H         1 UNK         0.0600 
    233 H233       -4.6445  -19.1945  -55.5158 H         1 UNK         0.0600 
    234 H234       -6.2613  -18.5798  -55.8292 H         1 UNK         0.0600 
    235 H235       -4.8411  -17.5825  -51.5868 H         1 UNK         0.3000 
    236 H236       -3.7850  -15.7885  -50.9317 H         1 UNK         0.0600 
    237 H237       -4.5647  -13.5433  -51.6020 H         1 UNK         0.0600 
    238 H238       -5.3978  -14.2046  -53.0011 H         1 UNK         0.0600 
    239 H239       -5.9443  -14.6064  -51.3742 H         1 UNK         0.0600 
    240 H240       -2.4221  -17.4206  -52.5820 H         1 UNK         0.3000 
    241 H241       -0.5341  -17.7040  -53.6554 H         1 UNK         0.0600 
    242 H242       -2.5314  -17.7131  -56.6553 H         1 UNK         0.3800 
    243 H243       -2.5728  -18.3191  -55.0090 H         1 UNK         0.3800 
    244 H244        1.0580  -15.8600  -54.2920 H         1 UNK         0.0800 
    245 H245       -0.0478  -14.6906  -53.6399 H         1 UNK         0.0800 
    246 H246        1.9311  -18.0248  -52.7884 H         1 UNK         0.0800 
    247 H247        2.9996  -16.6589  -53.0261 H         1 UNK         0.0800 
@<TRIPOS>BOND
     1    1    2 1    
     2    1  127 1    
     3    1  128 1    
     4    1  129 1    
     5    2    3 2    
     6    2    4 am   BACKBONE|DICT|INTERRES
     7    4    5 1    
     8    4  130 1    
     9    5    6 1    
    10    5   65 1    
    11    5  131 1    
    12    6    7 1    
    13    6  132 1    
    14    6  133 1    
    15    7    8 1    
    16    8    9 1    
    17    8  134 1    
    18    8  135 1    
    19    9   10 ar   
    20    9   14 ar   
    21   10   11 ar   
    22   10  136 1    
    23   11   12 ar   
    24   11  126 1    
    25   12   13 ar   
    26   12  137 1    
    27   13   14 ar   
    28   13   15 1    
    29   14  138 1    
    30   15   16 1    
    31   15  139 1    
    32   15  140 1    
    33   16   17 1    
    34   17   18 1    
    35   17  141 1    
    36   17  142 1    
    37   18   19 1    
    38   18   67 1    
    39   18  143 1    
    40   19   20 am   BACKBONE|DICT|INTERRES
    41   19  144 1    
    42   20   21 2    
    43   20   22 1    
    44   22   23 1    
    45   22   24 1    
    46   22  145 1    
    47   23  146 1    
    48   23  147 1    
    49   23  148 1    
    50   24   25 am   BACKBONE|DICT|INTERRES
    51   24  149 1    
    52   25   26 2    
    53   25   27 1    
    54   27   28 1    
    55   27   29 1    
    56   27  150 1    
    57   28  151 1    
    58   28  152 1    
    59   28  153 1    
    60   29   30 am   BACKBONE|DICT|INTERRES
    61   29  154 1    
    62   30   31 2    
    63   30   32 1    
    64   32   33 1    
    65   32   34 1    
    66   32  155 1    
    67   33  156 1    
    68   33  157 1    
    69   33  158 1    
    70   34   35 am   BACKBONE|DICT|INTERRES
    71   34  159 1    
    72   35   36 2    
    73   35   37 1    
    74   37   38 1    
    75   37   39 1    
    76   37  160 1    
    77   38  161 1    
    78   38  162 1    
    79   38  163 1    
    80   39   40 am   BACKBONE|DICT|INTERRES
    81   39  164 1    
    82   40   41 2    
    83   40   42 1    
    84   42   43 1    
    85   42   44 1    
    86   42  165 1    
    87   43  166 1    
    88   43  167 1    
    89   43  168 1    
    90   44   45 am   BACKBONE|DICT|INTERRES
    91   44  169 1    
    92   45   46 2    
    93   45   47 1    
    94   47   48 1    
    95   47   49 1    
    96   47  170 1    
    97   48  171 1    
    98   48  172 1    
    99   48  173 1    
   100   49   50 am   BACKBONE|DICT|INTERRES
   101   49  174 1    
   102   50   51 2    
   103   50   52 1    
   104   52   53 1    
   105   52   54 1    
   106   52  175 1    
   107   53  176 1    
   108   53  177 1    
   109   53  178 1    
   110   54   55 am   BACKBONE|DICT|INTERRES
   111   54  179 1    
   112   55   56 2    
   113   55   57 1    
   114   57   58 1    
   115   57   59 1    
   116   57  180 1    
   117   58  181 1    
   118   58  182 1    
   119   58  183 1    
   120   59   60 am   BACKBONE|DICT|INTERRES
   121   59  184 1    
   122   60   61 2    
   123   60   62 1    
   124   62   63 1    
   125   62   64 1    
   126   62  185 1    
   127   63  186 1    
   128   63  187 1    
   129   63  188 1    
   130   64   65 am   BACKBONE|DICT|INTERRES
   131   64  189 1    
   132   65   66 2    
   133   67   68 2    
   134   67   69 am   BACKBONE|DICT|INTERRES
   135   69   70 1    
   136   69  190 1    
   137   70   71 1    
   138   70   72 1    
   139   70  191 1    
   140   71  192 1    
   141   71  193 1    
   142   71  194 1    
   143   72   73 2    
   144   72   74 am   BACKBONE|DICT|INTERRES
   145   74   75 1    
   146   74  195 1    
   147   75   76 1    
   148   75   77 1    
   149   75  196 1    
   150   76  197 1    
   151   76  198 1    
   152   76  199 1    
   153   77   78 2    
   154   77   79 am   BACKBONE|DICT|INTERRES
   155   79   80 1    
   156   79  200 1    
   157   80   81 1    
   158   80   82 1    
   159   80  201 1    
   160   81  202 1    
   161   81  203 1    
   162   81  204 1    
   163   82   83 2    
   164   82   84 am   BACKBONE|DICT|INTERRES
   165   84   85 1    
   166   84  205 1    
   167   85   86 1    
   168   85   87 1    
   169   85  206 1    
   170   86  207 1    
   171   86  208 1    
   172   86  209 1    
   173   87   88 2    
   174   87   89 am   BACKBONE|DICT|INTERRES
   175   89   90 1    
   176   89  210 1    
   177   90   91 1    
   178   90   92 1    
   179   90  211 1    
   180   91  212 1    
   181   91  213 1    
   182   91  214 1    
   183   92   93 2    
   184   92   94 am   BACKBONE|DICT|INTERRES
   185   94   95 1    
   186   94  215 1    
   187   95   96 1    
   188   95   97 1    
   189   95  216 1    
   190   96  217 1    
   191   96  218 1    
   192   96  219 1    
   193   97   98 2    
   194   97   99 am   BACKBONE|DICT|INTERRES
   195   99  100 1    
   196   99  220 1    
   197  100  101 1    
   198  100  102 1    
   199  100  221 1    
   200  101  222 1    
   201  101  223 1    
   202  101  224 1    
   203  102  103 2    
   204  102  104 am   BACKBONE|DICT|INTERRES
   205  104  105 1    
   206  104  225 1    
   207  105  106 1    
   208  105  107 1    
   209  105  226 1    
   210  106  227 1    
   211  106  228 1    
   212  106  229 1    
   213  107  108 2    
   214  107  109 am   BACKBONE|DICT|INTERRES
   215  109  110 1    
   216  109  230 1    
   217  110  111 1    
   218  110  112 1    
   219  110  231 1    
   220  111  232 1    
   221  111  233 1    
   222  111  234 1    
   223  112  113 2    
   224  112  114 am   BACKBONE|DICT|INTERRES
   225  114  115 1    
   226  114  235 1    
   227  115  116 1    
   228  115  117 1    
   229  115  236 1    
   230  116  237 1    
   231  116  238 1    
   232  116  239 1    
   233  117  118 2    
   234  117  119 am   BACKBONE|DICT|INTERRES
   235  119  120 1    
   236  119  240 1    
   237  120  121 1    
   238  120  124 1    
   239  120  241 1    
   240  121  122 am   BACKBONE|DICT|INTERRES
   241  121  123 2    
   242  122  242 1    
   243  122  243 1    
   244  124  125 1    
   245  124  244 1    
   246  124  245 1    
   247  125  126 1    
   248  126  246 1    
   249  126  247 1    
@<TRIPOS>SUBSTRUCTURE
     1 UNK         1 GROUP             0       ****    0 ROOT    
