@<TRIPOS>MOLECULE
3R540
247   249    1
SMALL
USER_CHARGES


@<TRIPOS>ATOM
      1 CA          4.0106  -15.8801  -51.9722 C.3       0 UNK        -0.1800 
      2 C           3.6292  -16.2013  -50.5339 C.2       0 UNK         0.5000 
      3 O           3.8279  -17.3313  -50.0916 O.2       0 UNK        -0.5000 
      4 N           3.0815  -15.2098  -49.8177 N.am      1 UNK        -0.5000 
      5 CA          2.6403  -15.2733  -48.4165 C.3       1 UNK         0.1400 
      6 C6          2.0189  -13.9148  -47.9811 C.3       23 UNK        -0.0398 
      7 S7          0.2113  -13.9931  -47.7568 S.3       23 UNK        -0.2404 
      8 C8         -0.4074  -14.0685  -49.4702 C.3       23 UNK        -0.0205 
      9 C9         -1.1798  -15.3575  -49.7109 C.ar      23 UNK        -0.0193 
     10 C10        -2.5657  -15.3983  -49.5320 C.ar      23 UNK        -0.1150 
     11 C11        -3.2726  -16.5916  -49.7145 C.ar      23 UNK        -0.0193 
     12 C12        -2.5790  -17.7553  -50.0593 C.ar      23 UNK        -0.1150 
     13 C13        -1.1922  -17.7292  -50.2399 C.ar      23 UNK        -0.0193 
     14 C14        -0.5059  -16.5193  -50.0924 C.ar      23 UNK        -0.1150 
     15 C15        -0.4460  -19.0175  -50.5736 C.3       23 UNK        -0.0205 
     16 S16         1.1078  -19.2442  -49.6383 S.3       23 UNK        -0.2404 
     17 C17         0.5803  -19.0257  -47.9021 C.3       23 UNK        -0.0398 
     18 CA          0.4426  -20.3535  -47.1276 C.3       11 UNK         0.1400 
     19 N           0.2463  -20.1290  -45.6969 N.am      11 UNK        -0.5000 
     20 C           0.3268  -21.0875  -44.7628 C.2       10 UNK         0.5000 
     21 O           0.6835  -22.2434  -44.9928 O.2       10 UNK        -0.5000 
     22 CA         -0.1162  -20.7007  -43.3406 C.3       10 UNK         0.1400 
     23 CB          1.0275  -20.0270  -42.5709 C.3       10 UNK        -0.1800 
     24 N          -1.2820  -19.8181  -43.3367 N.am      10 UNK        -0.5000 
     25 C          -2.4937  -20.1502  -43.8029 C.2       9 UNK         0.5000 
     26 O          -2.7759  -21.2572  -44.2618 O.2       9 UNK        -0.5000 
     27 CA         -3.5542  -19.0384  -43.7955 C.3       9 UNK         0.1400 
     28 CB         -4.1531  -18.8676  -42.3924 C.3       9 UNK        -0.1800 
     29 N          -3.0159  -17.7597  -44.2609 N.am      9 UNK        -0.5000 
     30 C          -2.6372  -17.5139  -45.5227 C.2       8 UNK         0.5000 
     31 O          -2.6775  -18.3482  -46.4237 O.2       8 UNK        -0.5000 
     32 CA         -2.0919  -16.1112  -45.8211 C.3       8 UNK         0.1400 
     33 CB         -3.2349  -15.0976  -45.9729 C.3       8 UNK        -0.1800 
     34 N          -1.1717  -15.6460  -44.7884 N.am      8 UNK        -0.5000 
     35 C           0.0660  -16.1225  -44.6097 C.2       7 UNK         0.5000 
     36 O           0.5756  -17.0091  -45.2982 O.2       7 UNK        -0.5000 
     37 CA          0.8670  -15.4943  -43.4572 C.3       7 UNK         0.1400 
     38 CB          1.4499  -14.1485  -43.9122 C.3       7 UNK        -0.1800 
     39 N           0.1119  -15.2844  -42.2177 N.am      7 UNK        -0.5000 
     40 C          -0.6206  -16.1912  -41.5559 C.2       6 UNK         0.5000 
     41 O          -0.8562  -17.3255  -41.9748 O.2       6 UNK        -0.5000 
     42 CA         -1.1190  -15.7558  -40.1655 C.3       6 UNK         0.1400 
     43 CB         -1.9902  -16.8223  -39.4788 C.3       6 UNK        -0.1800 
     44 N           0.0422  -15.4830  -39.3222 N.am      6 UNK        -0.5000 
     45 C           0.5457  -14.2709  -39.0563 C.2       5 UNK         0.5000 
     46 O           0.0187  -13.2160  -39.4102 O.2       5 UNK        -0.5000 
     47 CA          1.8979  -14.2417  -38.3155 C.3       5 UNK         0.1400 
     48 CB          1.6831  -14.2666  -36.7946 C.3       5 UNK        -0.1800 
     49 N           2.7799  -15.3498  -38.7006 N.am      5 UNK        -0.5000 
     50 C           3.2965  -15.5116  -39.9269 C.2       4 UNK         0.5000 
     51 O           3.1170  -14.7159  -40.8506 O.2       4 UNK        -0.5000 
     52 CA          4.0917  -16.8108  -40.1650 C.3       4 UNK         0.1400 
     53 CB          3.1202  -17.9835  -40.3781 C.3       4 UNK        -0.1800 
     54 N           4.9738  -16.7328  -41.3300 N.am      4 UNK        -0.5000 
     55 C           6.0330  -15.9222  -41.4616 C.2       3 UNK         0.5000 
     56 O           6.4455  -15.1895  -40.5607 O.2       3 UNK        -0.5000 
     57 CA          6.7770  -15.9470  -42.8155 C.3       3 UNK         0.1400 
     58 CB          8.1757  -16.5636  -42.6511 C.3       3 UNK        -0.1800 
     59 N           6.0660  -16.6791  -43.8701 N.am      3 UNK        -0.5000 
     60 C           5.0039  -16.2157  -44.5415 C.2       2 UNK         0.5000 
     61 O           4.5120  -15.1026  -44.3529 O.2       2 UNK        -0.5000 
     62 CA          4.3778  -17.1911  -45.5583 C.3       2 UNK         0.1400 
     63 CB          3.6564  -18.3404  -44.8350 C.3       2 UNK        -0.1800 
     64 N           3.4304  -16.5507  -46.4722 N.am      2 UNK        -0.5000 
     65 C           3.7767  -15.7238  -47.4680 C.2       1 UNK         0.5000 
     66 O           4.9307  -15.3328  -47.6662 O.2       1 UNK        -0.5000 
     67 C          -0.6789  -21.2392  -47.7020 C.2       11 UNK         0.5000 
     68 O          -0.3814  -22.2684  -48.3057 O.2       11 UNK        -0.5000 
     69 N          -1.9430  -20.8439  -47.4911 N.am      12 UNK        -0.5000 
     70 CA         -3.1298  -21.5181  -48.0178 C.3       12 UNK         0.1400 
     71 CB         -4.3923  -20.7365  -47.6272 C.3       12 UNK        -0.1800 
     72 C          -3.2584  -22.9912  -47.5984 C.2       12 UNK         0.5000 
     73 O          -3.6715  -23.8090  -48.4205 O.2       12 UNK        -0.5000 
     74 N          -2.8699  -23.3072  -46.3570 N.am      13 UNK        -0.5000 
     75 CA         -2.8329  -24.6673  -45.8199 C.3       13 UNK         0.1400 
     76 CB         -2.5341  -24.6022  -44.3144 C.3       13 UNK        -0.1800 
     77 C          -1.8158  -25.5841  -46.5290 C.2       13 UNK         0.5000 
     78 O          -2.0628  -26.7858  -46.6372 O.2       13 UNK        -0.5000 
     79 N          -0.6987  -25.0103  -46.9941 N.am      14 UNK        -0.5000 
     80 CA          0.3747  -25.7270  -47.6805 C.3       14 UNK         0.1400 
     81 CB          1.7170  -25.0609  -47.3385 C.3       14 UNK        -0.1800 
     82 C           0.1618  -25.7595  -49.2033 C.2       14 UNK         0.5000 
     83 O           0.3565  -26.8041  -49.8252 O.2       14 UNK        -0.5000 
     84 N          -0.2228  -24.6128  -49.7763 N.am      15 UNK        -0.5000 
     85 CA         -0.3230  -24.3785  -51.2173 C.3       15 UNK         0.1400 
     86 CB          0.0568  -22.9135  -51.4941 C.3       15 UNK        -0.1800 
     87 C          -1.7102  -24.6997  -51.8053 C.2       15 UNK         0.5000 
     88 O          -1.9255  -24.4317  -52.9879 O.2       15 UNK        -0.5000 
     89 N          -2.6354  -25.2209  -50.9852 N.am      16 UNK        -0.5000 
     90 CA         -4.0283  -25.5485  -51.3199 C.3       16 UNK         0.1400 
     91 CB         -4.0907  -26.7264  -52.3146 C.3       16 UNK        -0.1800 
     92 C          -4.7986  -24.3054  -51.8081 C.2       16 UNK         0.5000 
     93 O          -5.3240  -24.2865  -52.9229 O.2       16 UNK        -0.5000 
     94 N          -4.7795  -23.2599  -50.9696 N.am      17 UNK        -0.5000 
     95 CA         -5.3174  -21.9176  -51.2181 C.3       17 UNK         0.1400 
     96 CB         -6.8588  -21.9413  -51.2431 C.3       17 UNK        -0.1800 
     97 C          -4.6958  -21.2518  -52.4621 C.2       17 UNK         0.5000 
     98 O          -5.4114  -20.6363  -53.2499 O.2       17 UNK        -0.5000 
     99 N          -3.3725  -21.4113  -52.6203 N.am      18 UNK        -0.5000 
    100 CA        -2.5627  -20.9544  -53.7574 C.3       18 UNK         0.1400 
    101 CB        -2.5338  -19.4115  -53.8202 C.3       18 UNK        -0.1800 
    102 C         -3.0250  -21.5966  -55.0823 C.2       18 UNK         0.5000 
    103 O         -3.2683  -20.8898  -56.0601 O.2       18 UNK        -0.5000 
    104 N         -3.1957  -22.9272  -55.0684 N.am      19 UNK        -0.5000 
    105 CA        -3.8013  -23.7444  -56.1275 C.3       19 UNK         0.1400 
    106 CB        -2.8669  -23.8316  -57.3518 C.3       19 UNK        -0.1800 
    107 C         -5.2274  -23.2644  -56.4803 C.2       19 UNK         0.5000 
    108 O         -5.5603  -23.0898  -57.6536 O.2       19 UNK        -0.5000 
    109 N         -6.0185  -23.0162  -55.4280 N.am      20 UNK        -0.5000 
    110 CA        -7.3796  -22.4730  -55.4021 C.3       20 UNK         0.1400 
    111 CB        -8.3549  -23.3825  -56.1765 C.3       20 UNK        -0.1800 
    112 C         -7.5211  -20.9922  -55.8213 C.2       20 UNK         0.5000 
    113 O         -8.6354  -20.4701  -55.7519 O.2       20 UNK        -0.5000 
    114 N         -6.4308  -20.3117  -56.2088 N.am      21 UNK        -0.5000 
    115 CA        -6.4460  -18.9102  -56.6467 C.3       21 UNK         0.1400 
    116 CB        -5.0954  -18.5482  -57.2807 C.3       21 UNK        -0.1800 
    117 C         -6.7975  -17.9106  -55.5267 C.2       21 UNK         0.5000 
    118 O         -7.3594  -16.8538  -55.8181 O.2       21 UNK        -0.5000 
    119 N         -6.4843  -18.2679  -54.2761 N.am      22 UNK        -0.5000 
    120 CA        -6.8678  -17.5431  -53.0565 C.3       22 UNK         0.1400 
    121 C         -8.2196  -18.0380  -52.4516 C.2       22 UNK         0.5000 
    122 N         -8.9496  -18.9491  -53.0870 N.am      22 UNK        -0.7600 
    123 O         -8.6325  -17.5794  -51.3906 O.2       22 UNK        -0.5000 
    124 C124       -5.7044  -17.5482  -52.0239 C.3       23 UNK        -0.0398 
    125 S125       -5.6752  -16.0456  -50.9877 S.3       23 UNK        -0.2404 
    126 C126       -4.7806  -16.6225  -49.5117 C.3       23 UNK        -0.0205 
    127 H127        3.7676  -14.8511  -52.2379 H         1 UNK         0.0600 
    128 H128        3.4795  -16.5417  -52.6565 H         1 UNK         0.0600 
    129 H129        5.0810  -16.0252  -52.1177 H         1 UNK         0.0600 
    130 H130        2.9902  -14.3047  -50.2544 H         1 UNK         0.3000 
    131 H131        1.8770  -16.0523  -48.3709 H         1 UNK         0.0600 
    132 H132        2.4339  -13.5619  -47.0356 H         1 UNK         0.0800 
    133 H133        2.2471  -13.1176  -48.6903 H         1 UNK         0.0800 
    134 H134       -1.0507  -13.2064  -49.6517 H         1 UNK         0.0800 
    135 H135        0.4144  -13.9886  -50.1827 H         1 UNK         0.0800 
    136 H136       -3.0955  -14.5018  -49.2424 H         1 UNK         0.1150 
    137 H137       -3.1200  -18.6830  -50.1792 H         1 UNK         0.1150 
    138 H138        0.5628  -16.4913  -50.2424 H         1 UNK         0.1150 
    139 H139       -1.0853  -19.8831  -50.3981 H         1 UNK         0.0800 
    140 H140       -0.2079  -19.0190  -51.6375 H         1 UNK         0.0800 
    141 H141       -0.3367  -18.4395  -47.8395 H         1 UNK         0.0800 
    142 H142        1.3476  -18.4159  -47.4266 H         1 UNK         0.0800 
    143 H143        1.3811  -20.9009  -47.2417 H         1 UNK         0.0600 
    144 H144       -0.0324  -19.1968  -45.4177 H         1 UNK         0.3000 
    145 H145       -0.3874  -21.6202  -42.8178 H         1 UNK         0.0600 
    146 H146        0.7644  -19.8871  -41.5222 H         1 UNK         0.0600 
    147 H147        1.9378  -20.6269  -42.6036 H         1 UNK         0.0600 
    148 H148        1.2575  -19.0469  -42.9864 H         1 UNK         0.0600 
    149 H149       -1.1465  -18.8865  -42.9490 H         1 UNK         0.3000 
    150 H150       -4.3577  -19.3338  -44.4730 H         1 UNK         0.0600 
    151 H151       -4.9176  -18.0906  -42.3784 H         1 UNK         0.0600 
    152 H152       -4.6225  -19.7928  -42.0558 H         1 UNK         0.0600 
    153 H153       -3.3898  -18.6047  -41.6605 H         1 UNK         0.0600 
    154 H154       -2.8809  -17.0421  -43.5647 H         1 UNK         0.3000 
    155 H155       -1.5543  -16.1667  -46.7697 H         1 UNK         0.0600 
    156 H156       -3.7670  -14.9413  -45.0339 H         1 UNK         0.0600 
    157 H157       -3.9632  -15.4382  -46.7075 H         1 UNK         0.0600 
    158 H158       -2.8588  -14.1324  -46.3128 H         1 UNK         0.0600 
    159 H159       -1.4980  -14.9125  -44.1775 H         1 UNK         0.3000 
    160 H160        1.6946  -16.1645  -43.2214 H         1 UNK         0.0600 
    161 H161        0.6700  -13.4087  -44.0963 H         1 UNK         0.0600 
    162 H162        2.0154  -14.2635  -44.8362 H         1 UNK         0.0600 
    163 H163        2.1333  -13.7397  -43.1684 H         1 UNK         0.0600 
    164 H164        0.2671  -14.3954  -41.7631 H         1 UNK         0.3000 
    165 H165       -1.7249  -14.8564  -40.2930 H         1 UNK         0.0600 
    166 H166       -2.2862  -16.5031  -38.4794 H         1 UNK         0.0600 
    167 H167       -2.9056  -16.9967  -40.0437 H         1 UNK         0.0600 
    168 H168       -1.4694  -17.7761  -39.3841 H         1 UNK         0.0600 
    169 H169        0.5677  -16.2896  -39.0188 H         1 UNK         0.3000 
    170 H170        2.3978  -13.3060  -38.5750 H         1 UNK         0.0600 
    171 H171        1.0465  -13.4395  -36.4773 H         1 UNK         0.0600 
    172 H172        1.2058  -15.1917  -36.4690 H         1 UNK         0.0600 
    173 H173        2.6288  -14.1699  -36.2610 H         1 UNK         0.0600 
    174 H174        2.9713  -16.0415  -37.9899 H         1 UNK         0.3000 
    175 H175        4.7071  -17.0099  -39.2854 H         1 UNK         0.0600 
    176 H176        2.4619  -17.8039  -41.2288 H         1 UNK         0.0600 
    177 H177        3.6549  -18.9165  -40.5575 H         1 UNK         0.0600 
    178 H178        2.4878  -18.1384  -39.5034 H         1 UNK         0.0600 
    179 H179        4.7064  -17.2812  -42.1316 H         1 UNK         0.3000 
    180 H180        6.8987  -14.9098  -43.1352 H         1 UNK         0.0600 
    181 H181        8.1212  -17.6051  -42.3315 H         1 UNK         0.0600 
    182 H182        8.7584  -16.0217  -41.9050 H         1 UNK         0.0600 
    183 H183        8.7358  -16.5268  -43.5857 H         1 UNK         0.0600 
    184 H184        6.4132  -17.6044  -44.0790 H         1 UNK         0.3000 
    185 H185        5.1856  -17.6158  -46.1583 H         1 UNK         0.0600 
    186 H186        4.3473  -18.9276  -44.2294 H         1 UNK         0.0600 
    187 H187        2.8801  -17.9639  -44.1719 H         1 UNK         0.0600 
    188 H188        3.1884  -19.0253  -45.5427 H         1 UNK         0.0600 
    189 H189        2.4526  -16.7661  -46.3169 H         1 UNK         0.3000 
    190 H190       -2.1161  -19.9722  -46.9929 H         1 UNK         0.3000 
    191 H191       -3.0391  -21.5007  -49.1048 H         1 UNK         0.0600 
    192 H192       -4.3840  -19.7346  -48.0557 H         1 UNK         0.0600 
    193 H193       -5.2954  -21.2352  -47.9809 H         1 UNK         0.0600 
    194 H194       -4.4794  -20.6370  -46.5452 H         1 UNK         0.0600 
    195 H195       -2.6038  -22.5583  -45.7233 H         1 UNK         0.3000 
    196 H196       -3.8231  -25.1075  -45.9539 H         1 UNK         0.0600 
    197 H197       -2.5042  -25.6004  -43.8759 H         1 UNK         0.0600 
    198 H198       -3.3016  -24.0374  -43.7849 H         1 UNK         0.0600 
    199 H199       -1.5729  -24.1251  -44.1173 H         1 UNK         0.0600 
    200 H200       -0.5888  -24.0082  -46.9021 H         1 UNK         0.3000 
    201 H201        0.4151  -26.7586  -47.3242 H         1 UNK         0.0600 
    202 H202        1.9057  -25.0871  -46.2651 H         1 UNK         0.0600 
    203 H203        1.7441  -24.0170  -47.6543 H         1 UNK         0.0600 
    204 H204        2.5451  -25.5750  -47.8280 H         1 UNK         0.0600 
    205 H205       -0.3409  -23.7901  -49.1853 H         1 UNK         0.3000 
    206 H206        0.3987  -25.0142  -51.7342 H         1 UNK         0.0600 
    207 H207        1.0265  -22.6675  -51.0605 H         1 UNK         0.0600 
    208 H208        0.1270  -22.7208  -52.5649 H         1 UNK         0.0600 
    209 H209       -0.6764  -22.2227  -51.0779 H         1 UNK         0.0600 
    210 H210       -2.3778  -25.3442  -50.0156 H         1 UNK         0.3000 
    211 H211       -4.5070  -25.8700  -50.3937 H         1 UNK         0.0600 
    212 H212       -3.6564  -26.4697  -53.2813 H         1 UNK         0.0600 
    213 H213       -5.1229  -27.0300  -52.4923 H         1 UNK         0.0600 
    214 H214       -3.5580  -27.5954  -51.9286 H         1 UNK         0.0600 
    215 H215       -4.3380  -23.4097  -50.0642 H         1 UNK         0.3000 
    216 H216       -5.0215  -21.2937  -50.3768 H         1 UNK         0.0600 
    217 H217       -7.2672  -20.9369  -51.3617 H         1 UNK         0.0600 
    218 H218       -7.2582  -22.3435  -50.3122 H         1 UNK         0.0600 
    219 H219       -7.2433  -22.5506  -52.0599 H         1 UNK         0.0600 
    220 H220       -2.8908  -21.9874  -51.9475 H         1 UNK         0.3000 
    221 H221       -1.5442  -21.2995  -53.5799 H         1 UNK         0.0600 
    222 H222       -3.4952  -18.9981  -54.1250 H         1 UNK         0.0600 
    223 H223       -2.2804  -18.9762  -52.8554 H         1 UNK         0.0600 
    224 H224       -1.7914  -19.0668  -54.5406 H         1 UNK         0.0600 
    225 H225       -2.9308  -23.4366  -54.2279 H         1 UNK         0.3000 
    226 H226       -3.9067  -24.7498  -55.7170 H         1 UNK         0.0600 
    227 H227       -1.8784  -24.1915  -57.0664 H         1 UNK         0.0600 
    228 H228       -3.2626  -24.5244  -58.0952 H         1 UNK         0.0600 
    229 H229       -2.7438  -22.8641  -57.8394 H         1 UNK         0.0600 
    230 H230       -5.6396  -23.2357  -54.5097 H         1 UNK         0.3000 
    231 H231       -7.6770  -22.5043  -54.3542 H         1 UNK         0.0600 
    232 H232       -8.1704  -23.3564  -57.2506 H         1 UNK         0.0600 
    233 H233       -9.3882  -23.0716  -56.0185 H         1 UNK         0.0600 
    234 H234       -8.2757  -24.4180  -55.8456 H         1 UNK         0.0600 
    235 H235       -5.5308  -20.7757  -56.1981 H         1 UNK         0.3000 
    236 H236       -7.2123  -18.8183  -57.4191 H         1 UNK         0.0600 
    237 H237       -4.8171  -19.2591  -58.0591 H         1 UNK         0.0600 
    238 H238       -5.1351  -17.5598  -57.7399 H         1 UNK         0.0600 
    239 H239       -4.2964  -18.5287  -56.5394 H         1 UNK         0.0600 
    240 H240       -6.0548  -19.1783  -54.1172 H         1 UNK         0.3000 
    241 H241       -7.0471  -16.5041  -53.3383 H         1 UNK         0.0600 
    242 H242       -9.8231  -19.2452  -52.6818 H         1 UNK         0.3800 
    243 H243       -8.6635  -19.3243  -53.9824 H         1 UNK         0.3800 
    244 H244       -5.7433  -18.4406  -51.3976 H         1 UNK         0.0800 
    245 H245       -4.7422  -17.5856  -52.5361 H         1 UNK         0.0800 
    246 H246       -5.1167  -17.6217  -49.2318 H         1 UNK         0.0800 
    247 H247       -5.0483  -15.9735  -48.6781 H         1 UNK         0.0800 
@<TRIPOS>BOND
     1    1    2 1    
     2    1  127 1    
     3    1  128 1    
     4    1  129 1    
     5    2    3 2    
     6    2    4 am   BACKBONE|DICT|INTERRES
     7    4    5 1    
     8    4  130 1    
     9    5    6 1    
    10    5   65 1    
    11    5  131 1    
    12    6    7 1    
    13    6  132 1    
    14    6  133 1    
    15    7    8 1    
    16    8    9 1    
    17    8  134 1    
    18    8  135 1    
    19    9   10 ar   
    20    9   14 ar   
    21   10   11 ar   
    22   10  136 1    
    23   11   12 ar   
    24   11  126 1    
    25   12   13 ar   
    26   12  137 1    
    27   13   14 ar   
    28   13   15 1    
    29   14  138 1    
    30   15   16 1    
    31   15  139 1    
    32   15  140 1    
    33   16   17 1    
    34   17   18 1    
    35   17  141 1    
    36   17  142 1    
    37   18   19 1    
    38   18   67 1    
    39   18  143 1    
    40   19   20 am   BACKBONE|DICT|INTERRES
    41   19  144 1    
    42   20   21 2    
    43   20   22 1    
    44   22   23 1    
    45   22   24 1    
    46   22  145 1    
    47   23  146 1    
    48   23  147 1    
    49   23  148 1    
    50   24   25 am   BACKBONE|DICT|INTERRES
    51   24  149 1    
    52   25   26 2    
    53   25   27 1    
    54   27   28 1    
    55   27   29 1    
    56   27  150 1    
    57   28  151 1    
    58   28  152 1    
    59   28  153 1    
    60   29   30 am   BACKBONE|DICT|INTERRES
    61   29  154 1    
    62   30   31 2    
    63   30   32 1    
    64   32   33 1    
    65   32   34 1    
    66   32  155 1    
    67   33  156 1    
    68   33  157 1    
    69   33  158 1    
    70   34   35 am   BACKBONE|DICT|INTERRES
    71   34  159 1    
    72   35   36 2    
    73   35   37 1    
    74   37   38 1    
    75   37   39 1    
    76   37  160 1    
    77   38  161 1    
    78   38  162 1    
    79   38  163 1    
    80   39   40 am   BACKBONE|DICT|INTERRES
    81   39  164 1    
    82   40   41 2    
    83   40   42 1    
    84   42   43 1    
    85   42   44 1    
    86   42  165 1    
    87   43  166 1    
    88   43  167 1    
    89   43  168 1    
    90   44   45 am   BACKBONE|DICT|INTERRES
    91   44  169 1    
    92   45   46 2    
    93   45   47 1    
    94   47   48 1    
    95   47   49 1    
    96   47  170 1    
    97   48  171 1    
    98   48  172 1    
    99   48  173 1    
   100   49   50 am   BACKBONE|DICT|INTERRES
   101   49  174 1    
   102   50   51 2    
   103   50   52 1    
   104   52   53 1    
   105   52   54 1    
   106   52  175 1    
   107   53  176 1    
   108   53  177 1    
   109   53  178 1    
   110   54   55 am   BACKBONE|DICT|INTERRES
   111   54  179 1    
   112   55   56 2    
   113   55   57 1    
   114   57   58 1    
   115   57   59 1    
   116   57  180 1    
   117   58  181 1    
   118   58  182 1    
   119   58  183 1    
   120   59   60 am   BACKBONE|DICT|INTERRES
   121   59  184 1    
   122   60   61 2    
   123   60   62 1    
   124   62   63 1    
   125   62   64 1    
   126   62  185 1    
   127   63  186 1    
   128   63  187 1    
   129   63  188 1    
   130   64   65 am   BACKBONE|DICT|INTERRES
   131   64  189 1    
   132   65   66 2    
   133   67   68 2    
   134   67   69 am   BACKBONE|DICT|INTERRES
   135   69   70 1    
   136   69  190 1    
   137   70   71 1    
   138   70   72 1    
   139   70  191 1    
   140   71  192 1    
   141   71  193 1    
   142   71  194 1    
   143   72   73 2    
   144   72   74 am   BACKBONE|DICT|INTERRES
   145   74   75 1    
   146   74  195 1    
   147   75   76 1    
   148   75   77 1    
   149   75  196 1    
   150   76  197 1    
   151   76  198 1    
   152   76  199 1    
   153   77   78 2    
   154   77   79 am   BACKBONE|DICT|INTERRES
   155   79   80 1    
   156   79  200 1    
   157   80   81 1    
   158   80   82 1    
   159   80  201 1    
   160   81  202 1    
   161   81  203 1    
   162   81  204 1    
   163   82   83 2    
   164   82   84 am   BACKBONE|DICT|INTERRES
   165   84   85 1    
   166   84  205 1    
   167   85   86 1    
   168   85   87 1    
   169   85  206 1    
   170   86  207 1    
   171   86  208 1    
   172   86  209 1    
   173   87   88 2    
   174   87   89 am   BACKBONE|DICT|INTERRES
   175   89   90 1    
   176   89  210 1    
   177   90   91 1    
   178   90   92 1    
   179   90  211 1    
   180   91  212 1    
   181   91  213 1    
   182   91  214 1    
   183   92   93 2    
   184   92   94 am   BACKBONE|DICT|INTERRES
   185   94   95 1    
   186   94  215 1    
   187   95   96 1    
   188   95   97 1    
   189   95  216 1    
   190   96  217 1    
   191   96  218 1    
   192   96  219 1    
   193   97   98 2    
   194   97   99 am   BACKBONE|DICT|INTERRES
   195   99  100 1    
   196   99  220 1    
   197  100  101 1    
   198  100  102 1    
   199  100  221 1    
   200  101  222 1    
   201  101  223 1    
   202  101  224 1    
   203  102  103 2    
   204  102  104 am   BACKBONE|DICT|INTERRES
   205  104  105 1    
   206  104  225 1    
   207  105  106 1    
   208  105  107 1    
   209  105  226 1    
   210  106  227 1    
   211  106  228 1    
   212  106  229 1    
   213  107  108 2    
   214  107  109 am   BACKBONE|DICT|INTERRES
   215  109  110 1    
   216  109  230 1    
   217  110  111 1    
   218  110  112 1    
   219  110  231 1    
   220  111  232 1    
   221  111  233 1    
   222  111  234 1    
   223  112  113 2    
   224  112  114 am   BACKBONE|DICT|INTERRES
   225  114  115 1    
   226  114  235 1    
   227  115  116 1    
   228  115  117 1    
   229  115  236 1    
   230  116  237 1    
   231  116  238 1    
   232  116  239 1    
   233  117  118 2    
   234  117  119 am   BACKBONE|DICT|INTERRES
   235  119  120 1    
   236  119  240 1    
   237  120  121 1    
   238  120  124 1    
   239  120  241 1    
   240  121  122 am   BACKBONE|DICT|INTERRES
   241  121  123 2    
   242  122  242 1    
   243  122  243 1    
   244  124  125 1    
   245  124  244 1    
   246  124  245 1    
   247  125  126 1    
   248  126  246 1    
   249  126  247 1    
@<TRIPOS>SUBSTRUCTURE
     1 UNK         1 GROUP             0       ****    0 ROOT    
