@<TRIPOS>MOLECULE
3R540
247   249    1
SMALL
USER_CHARGES


@<TRIPOS>ATOM
      1 CA         -2.0361  -11.0268  -45.5410 C.3       0 UNK        -0.1800 
      2 C          -1.0091  -12.0124  -46.0769 C.2       0 UNK         0.5000 
      3 O          -0.7880  -13.0542  -45.4620 O.2       0 UNK        -0.5000 
      4 N          -0.3645  -11.6763  -47.2022 N.am      1 UNK        -0.5000 
      5 CA          0.5924  -12.4756  -47.9909 C.3       1 UNK         0.1400 
      6 C6         -0.0312  -13.7593  -48.6000 C.3       23 UNK        -0.0398 
      7 S7         -1.3234  -13.3704  -49.8345 S.3       23 UNK        -0.2404 
      8 C8         -2.7787  -14.2641  -49.1851 C.3       23 UNK        -0.0205 
      9 C9         -2.8374  -15.7637  -49.4926 C.ar      23 UNK        -0.0193 
     10 C10        -4.0758  -16.4124  -49.4300 C.ar      23 UNK        -0.1150 
     11 C11        -4.1834  -17.7837  -49.6827 C.ar      23 UNK        -0.0193 
     12 C12        -3.0338  -18.5222  -49.9698 C.ar      23 UNK        -0.1150 
     13 C13        -1.7893  -17.8940  -50.0342 C.ar      23 UNK        -0.0193 
     14 C14        -1.7010  -16.5172  -49.8125 C.ar      23 UNK        -0.1150 
     15 C15        -0.5352  -18.7131  -50.3060 C.3       23 UNK        -0.0205 
     16 S16         0.7473  -18.5098  -49.0202 S.3       23 UNK        -0.2404 
     17 C17        -0.1943  -18.6797  -47.4639 C.3       23 UNK        -0.0398 
     18 CA         -0.2265  -20.1256  -46.9240 C.3       11 UNK         0.1400 
     19 N          -0.2743  -20.1517  -45.4625 N.am      11 UNK        -0.5000 
     20 C          -0.1749  -21.2578  -44.7139 C.2       10 UNK         0.5000 
     21 O           0.0181  -22.3834  -45.1731 O.2       10 UNK        -0.5000 
     22 CA         -0.3665  -21.0739  -43.2011 C.3       10 UNK         0.1400 
     23 CB          0.9535  -20.6680  -42.5389 C.3       10 UNK        -0.1800 
     24 N          -1.3863  -20.0687  -42.9036 N.am      10 UNK        -0.5000 
     25 C          -2.7001  -20.2644  -43.0789 C.2       9 UNK         0.5000 
     26 O          -3.1875  -21.3271  -43.4668 O.2       9 UNK        -0.5000 
     27 CA         -3.6138  -19.0521  -42.8210 C.3       9 UNK         0.1400 
     28 CB         -3.8086  -18.8242  -41.3144 C.3       9 UNK        -0.1800 
     29 N          -3.1115  -17.8226  -43.4383 N.am      9 UNK        -0.5000 
     30 C          -2.9712  -17.6417  -44.7589 C.2       8 UNK         0.5000 
     31 O          -3.2602  -18.4913  -45.5956 O.2       8 UNK        -0.5000 
     32 CA         -2.3941  -16.3008  -45.2388 C.3       8 UNK         0.1400 
     33 CB         -3.5373  -15.3016  -45.4717 C.3       8 UNK        -0.1800 
     34 N          -1.4131  -15.6982  -44.3376 N.am      8 UNK        -0.5000 
     35 C          -0.2997  -16.2615  -43.8503 C.2       7 UNK         0.5000 
     36 O           0.0367  -17.4278  -44.0765 O.2       7 UNK        -0.5000 
     37 CA          0.5755  -15.3193  -42.9961 C.3       7 UNK         0.1400 
     38 CB         -0.2377  -14.5992  -41.8980 C.3       7 UNK        -0.1800 
     39 N           1.7723  -15.9399  -42.4197 N.am      7 UNK        -0.5000 
     40 C           1.8400  -16.9098  -41.4948 C.2       6 UNK         0.5000 
     41 O           0.8529  -17.4691  -41.0144 O.2       6 UNK        -0.5000 
     42 CA          3.2418  -17.3020  -40.9821 C.3       6 UNK         0.1400 
     43 CB          3.5787  -18.7689  -41.2945 C.3       6 UNK        -0.1800 
     44 N           4.3109  -16.4572  -41.5190 N.am      6 UNK        -0.5000 
     45 C           5.3542  -15.9914  -40.8220 C.2       5 UNK         0.5000 
     46 O           5.4906  -16.1392  -39.6057 O.2       5 UNK        -0.5000 
     47 CA          6.4401  -15.2718  -41.6524 C.3       5 UNK         0.1400 
     48 CB          7.7153  -14.9494  -40.8458 C.3       5 UNK        -0.1800 
     49 N           6.7673  -16.0080  -42.8809 N.am      5 UNK        -0.5000 
     50 C           7.2386  -17.2614  -42.9837 C.2       4 UNK         0.5000 
     51 O           7.5680  -17.9511  -42.0172 O.2       4 UNK        -0.5000 
     52 CA          7.3044  -17.8516  -44.4105 C.3       4 UNK         0.1400 
     53 CB          7.6242  -19.3577  -44.4179 C.3       4 UNK        -0.1800 
     54 N           6.0396  -17.6396  -45.1187 N.am      4 UNK        -0.5000 
     55 C           5.7213  -16.5432  -45.8168 C.2       3 UNK         0.5000 
     56 O           6.5172  -15.6242  -46.0222 O.2       3 UNK        -0.5000 
     57 CA          4.2672  -16.4167  -46.3248 C.3       3 UNK         0.1400 
     58 CB          3.2900  -17.4365  -45.6952 C.3       3 UNK        -0.1800 
     59 N           3.7577  -15.0539  -46.1417 N.am      3 UNK        -0.5000 
     60 C           3.6634  -14.3746  -44.9919 C.2       2 UNK         0.5000 
     61 O           3.9480  -14.8558  -43.8935 O.2       2 UNK        -0.5000 
     62 CA          3.1380  -12.9272  -45.0542 C.3       2 UNK         0.1400 
     63 CB          4.2824  -11.9384  -45.3418 C.3       2 UNK        -0.1800 
     64 N           1.9993  -12.7173  -45.9598 N.am      2 UNK        -0.5000 
     65 C           1.9405  -12.7895  -47.2962 C.2       1 UNK         0.5000 
     66 O           2.9088  -13.0867  -47.9975 O.2       1 UNK        -0.5000 
     67 C          -1.3775  -20.9434  -47.5472 C.2       11 UNK         0.5000 
     68 O          -1.1261  -21.7667  -48.4235 O.2       11 UNK        -0.5000 
     69 N          -2.6066  -20.7491  -47.0481 N.am      12 UNK        -0.5000 
     70 CA         -3.8031  -21.4922  -47.4414 C.3       12 UNK         0.1400 
     71 CB         -5.0415  -20.8714  -46.7792 C.3       12 UNK        -0.1800 
     72 C          -3.7149  -22.9888  -47.1048 C.2       12 UNK         0.5000 
     73 O          -4.1675  -23.8093  -47.9018 O.2       12 UNK        -0.5000 
     74 N          -3.1138  -23.3263  -45.9554 N.am      13 UNK        -0.5000 
     75 CA         -2.8528  -24.7080  -45.5493 C.3       13 UNK         0.1400 
     76 CB         -2.3799  -24.7436  -44.0883 C.3       13 UNK        -0.1800 
     77 C          -1.8458  -25.4103  -46.4803 C.2       13 UNK         0.5000 
     78 O          -2.0662  -26.5643  -46.8485 O.2       13 UNK        -0.5000 
     79 N          -0.7857  -24.6909  -46.8749 N.am      14 UNK        -0.5000 
     80 CA          0.2190  -25.1496  -47.8353 C.3       14 UNK         0.1400 
     81 CB          1.4346  -24.2109  -47.7879 C.3       14 UNK        -0.1800 
     82 C          -0.3340  -25.2610  -49.2697 C.2       14 UNK         0.5000 
     83 O          -0.0350  -26.2343  -49.9623 O.2       14 UNK        -0.5000 
     84 N          -1.1369  -24.2711  -49.6836 N.am      15 UNK        -0.5000 
     85 CA         -1.7806  -24.1950  -50.9970 C.3       15 UNK         0.1400 
     86 CB         -2.3278  -22.7727  -51.2028 C.3       15 UNK        -0.1800 
     87 C          -2.9110  -25.2211  -51.1982 C.2       15 UNK         0.5000 
     88 O          -3.2248  -25.5396  -52.3438 O.2       15 UNK        -0.5000 
     89 N          -3.4991  -25.7001  -50.0931 N.am      16 UNK        -0.5000 
     90 CA         -4.7071  -26.5244  -50.0108 C.3       16 UNK         0.1400 
     91 CB         -4.5549  -27.8620  -50.7666 C.3       16 UNK        -0.1800 
     92 C          -5.9531  -25.7126  -50.4182 C.2       16 UNK         0.5000 
     93 O          -6.6797  -26.0884  -51.3400 O.2       16 UNK        -0.5000 
     94 N          -6.1605  -24.6053  -49.6937 N.am      17 UNK        -0.5000 
     95 CA         -7.2492  -23.6366  -49.8129 C.3       17 UNK         0.1400 
     96 CB         -8.6198  -24.2970  -49.5355 C.3       17 UNK        -0.1800 
     97 C          -7.1703  -22.8313  -51.1254 C.2       17 UNK         0.5000 
     98 O          -6.0985  -22.3161  -51.4506 O.2       17 UNK        -0.5000 
     99 N          -8.3024  -22.6939  -51.8289 N.am      18 UNK        -0.5000 
    100 CA        -8.5176  -21.8414  -53.0022 C.3       18 UNK         0.1400 
    101 CB       -10.0320  -21.6165  -53.1658 C.3       18 UNK        -0.1800 
    102 C         -7.8497  -22.3531  -54.3003 C.2       18 UNK         0.5000 
    103 O         -8.4947  -22.4120  -55.3494 O.2       18 UNK        -0.5000 
    104 N         -6.5648  -22.7068  -54.2122 N.am      19 UNK        -0.5000 
    105 CA        -5.6964  -23.0367  -55.3401 C.3       19 UNK         0.1400 
    106 CB        -4.5579  -23.9285  -54.8242 C.3       19 UNK        -0.1800 
    107 C         -5.1424  -21.7610  -56.0050 C.2       19 UNK         0.5000 
    108 O         -5.3930  -20.6500  -55.5298 O.2       19 UNK        -0.5000 
    109 N         -4.3575  -21.9377  -57.0763 N.am      20 UNK        -0.5000 
    110 CA        -3.7348  -20.8631  -57.8610 C.3       20 UNK         0.1400 
    111 CB        -3.0021  -21.4833  -59.0605 C.3       20 UNK        -0.1800 
    112 C         -2.7815  -19.9454  -57.0645 C.2       20 UNK         0.5000 
    113 O         -2.6001  -18.7892  -57.4471 O.2       20 UNK        -0.5000 
    114 N         -2.2082  -20.4621  -55.9678 N.am      21 UNK        -0.5000 
    115 CA        -1.3948  -19.6988  -55.0175 C.3       21 UNK         0.1400 
    116 CB        -0.6221  -20.6777  -54.1201 C.3       21 UNK        -0.1800 
    117 C         -2.2260  -18.7221  -54.1597 C.2       21 UNK         0.5000 
    118 O         -1.6998  -17.6902  -53.7434 O.2       21 UNK        -0.5000 
    119 N         -3.4974  -19.0642  -53.9193 N.am      22 UNK        -0.5000 
    120 CA        -4.4864  -18.2246  -53.2332 C.3       22 UNK         0.1400 
    121 C         -5.2377  -17.3060  -54.2357 C.2       22 UNK         0.5000 
    122 N         -5.6979  -17.8305  -55.3654 N.am      22 UNK        -0.7600 
    123 O         -5.3886  -16.1105  -54.0002 O.2       22 UNK        -0.5000 
    124 C124       -5.4610  -19.1089  -52.4131 C.3       23 UNK        -0.0398 
    125 S125       -6.4647  -18.1816  -51.2012 S.3       23 UNK        -0.2404 
    126 C126       -5.5426  -18.4655  -49.6573 C.3       23 UNK        -0.0205 
    127 H127       -2.1218  -10.1443  -46.1754 H         1 UNK         0.0600 
    128 H128       -1.7562  -10.7017  -44.5391 H         1 UNK         0.0600 
    129 H129       -3.0151  -11.5027  -45.4853 H         1 UNK         0.0600 
    130 H130       -0.5828  -10.7807  -47.6160 H         1 UNK         0.3000 
    131 H131        0.8669  -11.8280  -48.8253 H         1 UNK         0.0600 
    132 H132        0.7299  -14.3469  -49.1169 H         1 UNK         0.0800 
    133 H133       -0.4314  -14.4067  -47.8181 H         1 UNK         0.0800 
    134 H134       -2.8380  -14.1148  -48.1081 H         1 UNK         0.0800 
    135 H135       -3.6641  -13.7862  -49.6068 H         1 UNK         0.0800 
    136 H136       -4.9662  -15.8462  -49.1949 H         1 UNK         0.1150 
    137 H137       -3.1085  -19.5857  -50.1481 H         1 UNK         0.1150 
    138 H138       -0.7293  -16.0536  -49.8684 H         1 UNK         0.1150 
    139 H139       -0.7769  -19.7731  -50.3918 H         1 UNK         0.0800 
    140 H140       -0.1221  -18.4147  -51.2704 H         1 UNK         0.0800 
    141 H141        0.3064  -18.0309  -46.7473 H         1 UNK         0.0800 
    142 H142       -1.1971  -18.2636  -47.5498 H         1 UNK         0.0800 
    143 H143        0.7083  -20.6178  -47.2018 H         1 UNK         0.0600 
    144 H144       -0.3933  -19.2622  -44.9900 H         1 UNK         0.3000 
    145 H145       -0.6825  -22.0304  -42.7794 H         1 UNK         0.0600 
    146 H146        0.8360  -20.5757  -41.4592 H         1 UNK         0.0600 
    147 H147        1.7313  -21.4102  -42.7228 H         1 UNK         0.0600 
    148 H148        1.3103  -19.7119  -42.9229 H         1 UNK         0.0600 
    149 H149       -1.0558  -19.1517  -42.6331 H         1 UNK         0.3000 
    150 H150       -4.5885  -19.2737  -43.2611 H         1 UNK         0.0600 
    151 H151       -4.1901  -19.7239  -40.8299 H         1 UNK         0.0600 
    152 H152       -4.5268  -18.0259  -41.1264 H         1 UNK         0.0600 
    153 H153       -2.8729  -18.5569  -40.8214 H         1 UNK         0.0600 
    154 H154       -2.8382  -17.0745  -42.8187 H         1 UNK         0.3000 
    155 H155       -1.8922  -16.4708  -46.1922 H         1 UNK         0.0600 
    156 H156       -3.1644  -14.3433  -45.8295 H         1 UNK         0.0600 
    157 H157       -4.1004  -15.1149  -44.5565 H         1 UNK         0.0600 
    158 H158       -4.2374  -15.6780  -46.2189 H         1 UNK         0.0600 
    159 H159       -1.5335  -14.7054  -44.1826 H         1 UNK         0.3000 
    160 H160        0.9434  -14.5559  -43.6813 H         1 UNK         0.0600 
    161 H161       -0.7486  -15.3052  -41.2425 H         1 UNK         0.0600 
    162 H162       -0.9953  -13.9417  -42.3256 H         1 UNK         0.0600 
    163 H163        0.4064  -13.9753  -41.2781 H         1 UNK         0.0600 
    164 H164        2.6441  -15.5602  -42.7735 H         1 UNK         0.3000 
    165 H165        3.2000  -17.1881  -39.8971 H         1 UNK         0.0600 
    166 H166        3.5748  -18.9622  -42.3676 H         1 UNK         0.0600 
    167 H167        4.5638  -19.0371  -40.9119 H         1 UNK         0.0600 
    168 H168        2.8611  -19.4413  -40.8255 H         1 UNK         0.0600 
    169 H169        4.2723  -16.2319  -42.5069 H         1 UNK         0.3000 
    170 H170        6.0033  -14.3235  -41.9690 H         1 UNK         0.0600 
    171 H171        7.4868  -14.3014  -39.9990 H         1 UNK         0.0600 
    172 H172        8.1858  -15.8496  -40.4497 H         1 UNK         0.0600 
    173 H173        8.4497  -14.4305  -41.4617 H         1 UNK         0.0600 
    174 H174        6.5140  -15.5415  -43.7432 H         1 UNK         0.3000 
    175 H175        8.1129  -17.3388  -44.9357 H         1 UNK         0.0600 
    176 H176        6.8671  -19.9334  -43.8839 H         1 UNK         0.0600 
    177 H177        7.6819  -19.7427  -45.4361 H         1 UNK         0.0600 
    178 H178        8.5859  -19.5568  -43.9433 H         1 UNK         0.0600 
    179 H179        5.3257  -18.3377  -44.9696 H         1 UNK         0.3000 
    180 H180        4.2950  -16.5949  -47.4006 H         1 UNK         0.0600 
    181 H181        3.2961  -17.4017  -44.6054 H         1 UNK         0.0600 
    182 H182        3.5249  -18.4564  -46.0012 H         1 UNK         0.0600 
    183 H183        2.2701  -17.2345  -46.0161 H         1 UNK         0.0600 
    184 H184        3.5414  -14.5380  -46.9904 H         1 UNK         0.3000 
    185 H185        2.7584  -12.6973  -44.0574 H         1 UNK         0.0600 
    186 H186        3.9284  -10.9078  -45.3173 H         1 UNK         0.0600 
    187 H187        5.0703  -12.0296  -44.5930 H         1 UNK         0.0600 
    188 H188        4.7405  -12.1137  -46.3155 H         1 UNK         0.0600 
    189 H189        1.1078  -12.5628  -45.5005 H         1 UNK         0.3000 
    190 H190       -2.7520  -20.0073  -46.3647 H         1 UNK         0.3000 
    191 H191       -3.9132  -21.3990  -48.5229 H         1 UNK         0.0600 
    192 H192       -5.1510  -19.8217  -47.0498 H         1 UNK         0.0600 
    193 H193       -5.9519  -21.3850  -47.0902 H         1 UNK         0.0600 
    194 H194       -4.9850  -20.9273  -45.6913 H         1 UNK         0.0600 
    195 H195       -2.8016  -22.5938  -45.3304 H         1 UNK         0.3000 
    196 H196       -3.7960  -25.2553  -45.6088 H         1 UNK         0.0600 
    197 H197       -2.2406  -25.7711  -43.7504 H         1 UNK         0.0600 
    198 H198       -3.1108  -24.2792  -43.4259 H         1 UNK         0.0600 
    199 H199       -1.4312  -24.2251  -43.9545 H         1 UNK         0.0600 
    200 H200       -0.6555  -23.7616  -46.4872 H         1 UNK         0.3000 
    201 H201        0.5496  -26.1441  -47.5285 H         1 UNK         0.0600 
    202 H202        1.8705  -24.1820  -46.7891 H         1 UNK         0.0600 
    203 H203        1.1688  -23.1901  -48.0640 H         1 UNK         0.0600 
    204 H204        2.2133  -24.5451  -48.4745 H         1 UNK         0.0600 
    205 H205       -1.2607  -23.4621  -49.0777 H         1 UNK         0.3000 
    206 H206       -1.0222  -24.3844  -51.7593 H         1 UNK         0.0600 
    207 H207       -1.5324  -22.0304  -51.1437 H         1 UNK         0.0600 
    208 H208       -2.7994  -22.6677  -52.1794 H         1 UNK         0.0600 
    209 H209       -3.0798  -22.5221  -50.4545 H         1 UNK         0.0600 
    210 H210       -3.1818  -25.3201  -49.2100 H         1 UNK         0.3000 
    211 H211       -4.8300  -26.7671  -48.9541 H         1 UNK         0.0600 
    212 H212       -4.5096  -27.7251  -51.8470 H         1 UNK         0.0600 
    213 H213       -5.4022  -28.5171  -50.5615 H         1 UNK         0.0600 
    214 H214       -3.6530  -28.3893  -50.4559 H         1 UNK         0.0600 
    215 H215       -5.4471  -24.3586  -49.0086 H         1 UNK         0.3000 
    216 H216       -7.0785  -22.9097  -49.0178 H         1 UNK         0.0600 
    217 H217       -8.6054  -24.8365  -48.5884 H         1 UNK         0.0600 
    218 H218       -8.9027  -25.0067  -50.3136 H         1 UNK         0.0600 
    219 H219       -9.4110  -23.5501  -49.4608 H         1 UNK         0.0600 
    220 H220       -9.1164  -23.1921  -51.5003 H         1 UNK         0.3000 
    221 H221       -8.0726  -20.8689  -52.7878 H         1 UNK         0.0600 
    222 H222      -10.5551  -22.5483  -53.3841 H         1 UNK         0.0600 
    223 H223      -10.4679  -21.1897  -52.2622 H         1 UNK         0.0600 
    224 H224      -10.2412  -20.9217  -53.9802 H         1 UNK         0.0600 
    225 H225       -6.1197  -22.6067  -53.3039 H         1 UNK         0.3000 
    226 H226       -6.2670  -23.5920  -56.0870 H         1 UNK         0.0600 
    227 H227       -3.9202  -24.2797  -55.6357 H         1 UNK         0.0600 
    228 H228       -3.9248  -23.3995  -54.1121 H         1 UNK         0.0600 
    229 H229       -4.9533  -24.8131  -54.3242 H         1 UNK         0.0600 
    230 H230       -4.1884  -22.8780  -57.4033 H         1 UNK         0.3000 
    231 H231       -4.5395  -20.2317  -58.2433 H         1 UNK         0.0600 
    232 H232       -2.5502  -20.7116  -59.6853 H         1 UNK         0.0600 
    233 H233       -3.6867  -22.0495  -59.6924 H         1 UNK         0.0600 
    234 H234       -2.2047  -22.1551  -58.7406 H         1 UNK         0.0600 
    235 H235       -2.3924  -21.4277  -55.7408 H         1 UNK         0.3000 
    236 H236       -0.6691  -19.1082  -55.5807 H         1 UNK         0.0600 
    237 H237        0.0435  -21.3101  -54.7078 H         1 UNK         0.0600 
    238 H238       -0.0061  -20.1432  -53.3956 H         1 UNK         0.0600 
    239 H239       -1.2962  -21.3269  -53.5627 H         1 UNK         0.0600 
    240 H240       -3.8723  -19.8836  -54.3798 H         1 UNK         0.3000 
    241 H241       -3.9585  -17.5734  -52.5344 H         1 UNK         0.0600 
    242 H242       -6.1778  -17.2447  -56.0294 H         1 UNK         0.3800 
    243 H243       -5.6027  -18.8278  -55.5427 H         1 UNK         0.3800 
    244 H244       -6.1330  -19.6498  -53.0791 H         1 UNK         0.0800 
    245 H245       -4.9039  -19.8797  -51.8794 H         1 UNK         0.0800 
    246 H246       -6.1260  -18.0831  -48.8187 H         1 UNK         0.0800 
    247 H247       -5.4373  -19.5389  -49.4939 H         1 UNK         0.0800 
@<TRIPOS>BOND
     1    1    2 1    
     2    1  127 1    
     3    1  128 1    
     4    1  129 1    
     5    2    3 2    
     6    2    4 am   BACKBONE|DICT|INTERRES
     7    4    5 1    
     8    4  130 1    
     9    5    6 1    
    10    5   65 1    
    11    5  131 1    
    12    6    7 1    
    13    6  132 1    
    14    6  133 1    
    15    7    8 1    
    16    8    9 1    
    17    8  134 1    
    18    8  135 1    
    19    9   10 ar   
    20    9   14 ar   
    21   10   11 ar   
    22   10  136 1    
    23   11   12 ar   
    24   11  126 1    
    25   12   13 ar   
    26   12  137 1    
    27   13   14 ar   
    28   13   15 1    
    29   14  138 1    
    30   15   16 1    
    31   15  139 1    
    32   15  140 1    
    33   16   17 1    
    34   17   18 1    
    35   17  141 1    
    36   17  142 1    
    37   18   19 1    
    38   18   67 1    
    39   18  143 1    
    40   19   20 am   BACKBONE|DICT|INTERRES
    41   19  144 1    
    42   20   21 2    
    43   20   22 1    
    44   22   23 1    
    45   22   24 1    
    46   22  145 1    
    47   23  146 1    
    48   23  147 1    
    49   23  148 1    
    50   24   25 am   BACKBONE|DICT|INTERRES
    51   24  149 1    
    52   25   26 2    
    53   25   27 1    
    54   27   28 1    
    55   27   29 1    
    56   27  150 1    
    57   28  151 1    
    58   28  152 1    
    59   28  153 1    
    60   29   30 am   BACKBONE|DICT|INTERRES
    61   29  154 1    
    62   30   31 2    
    63   30   32 1    
    64   32   33 1    
    65   32   34 1    
    66   32  155 1    
    67   33  156 1    
    68   33  157 1    
    69   33  158 1    
    70   34   35 am   BACKBONE|DICT|INTERRES
    71   34  159 1    
    72   35   36 2    
    73   35   37 1    
    74   37   38 1    
    75   37   39 1    
    76   37  160 1    
    77   38  161 1    
    78   38  162 1    
    79   38  163 1    
    80   39   40 am   BACKBONE|DICT|INTERRES
    81   39  164 1    
    82   40   41 2    
    83   40   42 1    
    84   42   43 1    
    85   42   44 1    
    86   42  165 1    
    87   43  166 1    
    88   43  167 1    
    89   43  168 1    
    90   44   45 am   BACKBONE|DICT|INTERRES
    91   44  169 1    
    92   45   46 2    
    93   45   47 1    
    94   47   48 1    
    95   47   49 1    
    96   47  170 1    
    97   48  171 1    
    98   48  172 1    
    99   48  173 1    
   100   49   50 am   BACKBONE|DICT|INTERRES
   101   49  174 1    
   102   50   51 2    
   103   50   52 1    
   104   52   53 1    
   105   52   54 1    
   106   52  175 1    
   107   53  176 1    
   108   53  177 1    
   109   53  178 1    
   110   54   55 am   BACKBONE|DICT|INTERRES
   111   54  179 1    
   112   55   56 2    
   113   55   57 1    
   114   57   58 1    
   115   57   59 1    
   116   57  180 1    
   117   58  181 1    
   118   58  182 1    
   119   58  183 1    
   120   59   60 am   BACKBONE|DICT|INTERRES
   121   59  184 1    
   122   60   61 2    
   123   60   62 1    
   124   62   63 1    
   125   62   64 1    
   126   62  185 1    
   127   63  186 1    
   128   63  187 1    
   129   63  188 1    
   130   64   65 am   BACKBONE|DICT|INTERRES
   131   64  189 1    
   132   65   66 2    
   133   67   68 2    
   134   67   69 am   BACKBONE|DICT|INTERRES
   135   69   70 1    
   136   69  190 1    
   137   70   71 1    
   138   70   72 1    
   139   70  191 1    
   140   71  192 1    
   141   71  193 1    
   142   71  194 1    
   143   72   73 2    
   144   72   74 am   BACKBONE|DICT|INTERRES
   145   74   75 1    
   146   74  195 1    
   147   75   76 1    
   148   75   77 1    
   149   75  196 1    
   150   76  197 1    
   151   76  198 1    
   152   76  199 1    
   153   77   78 2    
   154   77   79 am   BACKBONE|DICT|INTERRES
   155   79   80 1    
   156   79  200 1    
   157   80   81 1    
   158   80   82 1    
   159   80  201 1    
   160   81  202 1    
   161   81  203 1    
   162   81  204 1    
   163   82   83 2    
   164   82   84 am   BACKBONE|DICT|INTERRES
   165   84   85 1    
   166   84  205 1    
   167   85   86 1    
   168   85   87 1    
   169   85  206 1    
   170   86  207 1    
   171   86  208 1    
   172   86  209 1    
   173   87   88 2    
   174   87   89 am   BACKBONE|DICT|INTERRES
   175   89   90 1    
   176   89  210 1    
   177   90   91 1    
   178   90   92 1    
   179   90  211 1    
   180   91  212 1    
   181   91  213 1    
   182   91  214 1    
   183   92   93 2    
   184   92   94 am   BACKBONE|DICT|INTERRES
   185   94   95 1    
   186   94  215 1    
   187   95   96 1    
   188   95   97 1    
   189   95  216 1    
   190   96  217 1    
   191   96  218 1    
   192   96  219 1    
   193   97   98 2    
   194   97   99 am   BACKBONE|DICT|INTERRES
   195   99  100 1    
   196   99  220 1    
   197  100  101 1    
   198  100  102 1    
   199  100  221 1    
   200  101  222 1    
   201  101  223 1    
   202  101  224 1    
   203  102  103 2    
   204  102  104 am   BACKBONE|DICT|INTERRES
   205  104  105 1    
   206  104  225 1    
   207  105  106 1    
   208  105  107 1    
   209  105  226 1    
   210  106  227 1    
   211  106  228 1    
   212  106  229 1    
   213  107  108 2    
   214  107  109 am   BACKBONE|DICT|INTERRES
   215  109  110 1    
   216  109  230 1    
   217  110  111 1    
   218  110  112 1    
   219  110  231 1    
   220  111  232 1    
   221  111  233 1    
   222  111  234 1    
   223  112  113 2    
   224  112  114 am   BACKBONE|DICT|INTERRES
   225  114  115 1    
   226  114  235 1    
   227  115  116 1    
   228  115  117 1    
   229  115  236 1    
   230  116  237 1    
   231  116  238 1    
   232  116  239 1    
   233  117  118 2    
   234  117  119 am   BACKBONE|DICT|INTERRES
   235  119  120 1    
   236  119  240 1    
   237  120  121 1    
   238  120  124 1    
   239  120  241 1    
   240  121  122 am   BACKBONE|DICT|INTERRES
   241  121  123 2    
   242  122  242 1    
   243  122  243 1    
   244  124  125 1    
   245  124  244 1    
   246  124  245 1    
   247  125  126 1    
   248  126  246 1    
   249  126  247 1    
@<TRIPOS>SUBSTRUCTURE
     1 UNK         1 GROUP             0       ****    0 ROOT    
