@<TRIPOS>MOLECULE
3R540
247   249    1
SMALL
USER_CHARGES


@<TRIPOS>ATOM
      1 CA          3.5523  -12.2152  -51.4275 C.3       0 UNK        -0.1800 
      2 C           3.2744  -12.2929  -49.9333 C.2       0 UNK         0.5000 
      3 O           4.1930  -12.1369  -49.1278 O.2       0 UNK        -0.5000 
      4 N           2.0102  -12.5187  -49.5561 N.am      1 UNK        -0.5000 
      5 CA          1.5334  -12.6485  -48.1732 C.3       1 UNK         0.1400 
      6 C6          0.2281  -13.4801  -48.0968 C.3       23 UNK        -0.0398 
      7 S7          0.5042  -15.2409  -48.4758 S.3       23 UNK        -0.2404 
      8 C8         -0.1844  -15.4027  -50.1518 C.3       23 UNK        -0.0205 
      9 C9         -0.6453  -16.8311  -50.3886 C.ar      23 UNK        -0.0193 
     10 C10        -2.0075  -17.1436  -50.3705 C.ar      23 UNK        -0.1150 
     11 C11        -2.4332  -18.4649  -50.5296 C.ar      23 UNK        -0.0193 
     12 C12        -1.4846  -19.4791  -50.6843 C.ar      23 UNK        -0.1150 
     13 C13        -0.1207  -19.1783  -50.7162 C.ar      23 UNK        -0.0193 
     14 C14         0.2916  -17.8484  -50.5888 C.ar      23 UNK        -0.1150 
     15 C15         0.8981  -20.2986  -50.8752 C.3       23 UNK        -0.0205 
     16 S16         2.1773  -20.3209  -49.5713 S.3       23 UNK        -0.2404 
     17 C17         1.2286  -20.1410  -48.0196 C.3       23 UNK        -0.0398 
     18 CA          0.7181  -21.4872  -47.4498 C.3       11 UNK         0.1400 
     19 N           0.7363  -21.5081  -45.9848 N.am      11 UNK        -0.5000 
     20 C           0.5298  -22.5984  -45.2339 C.2       10 UNK         0.5000 
     21 O           0.3588  -23.7243  -45.7001 O.2       10 UNK        -0.5000 
     22 CA          0.4483  -22.3895  -43.7102 C.3       10 UNK         0.1400 
     23 CB          1.8500  -22.3487  -43.0844 C.3       10 UNK        -0.1800 
     24 N          -0.2953  -21.1811  -43.3478 N.am      10 UNK        -0.5000 
     25 C          -1.5984  -20.9947  -43.6038 C.2       9 UNK         0.5000 
     26 O          -2.3183  -21.8489  -44.1196 O.2       9 UNK        -0.5000 
     27 CA         -2.1893  -19.6114  -43.2764 C.3       9 UNK         0.1400 
     28 CB         -2.5390  -19.5053  -41.7850 C.3       9 UNK        -0.1800 
     29 N          -1.3051  -18.5096  -43.6588 N.am      9 UNK        -0.5000 
     30 C          -0.9264  -18.2377  -44.9166 C.2       8 UNK         0.5000 
     31 O          -1.3146  -18.8692  -45.8990 O.2       8 UNK        -0.5000 
     32 CA          0.1077  -17.1119  -45.1008 C.3       8 UNK         0.1400 
     33 CB         -0.5564  -15.7304  -45.0055 C.3       8 UNK        -0.1800 
     34 N           1.2008  -17.1967  -44.1322 N.am      8 UNK        -0.5000 
     35 C           2.0511  -18.2281  -44.0324 C.2       7 UNK         0.5000 
     36 O           2.0415  -19.1993  -44.7872 O.2       7 UNK        -0.5000 
     37 CA          3.0367  -18.1987  -42.8529 C.3       7 UNK         0.1400 
     38 CB          4.2503  -17.3099  -43.1649 C.3       7 UNK        -0.1800 
     39 N           2.3897  -17.7478  -41.6207 N.am      7 UNK        -0.5000 
     40 C           1.4691  -18.4562  -40.9507 C.2       6 UNK         0.5000 
     41 O           1.1009  -19.5830  -41.2812 O.2       6 UNK        -0.5000 
     42 CA          0.8252  -17.7742  -39.7296 C.3       6 UNK         0.1400 
     43 CB          1.6983  -17.9655  -38.4807 C.3       6 UNK        -0.1800 
     44 N           0.5909  -16.3451  -39.9430 N.am      6 UNK        -0.5000 
     45 C          -0.2896  -15.8441  -40.8215 C.2       5 UNK         0.5000 
     46 O          -1.0304  -16.5381  -41.5167 O.2       5 UNK        -0.5000 
     47 CA         -0.3008  -14.3120  -40.9897 C.3       5 UNK         0.1400 
     48 CB         -1.2248  -13.6600  -39.9507 C.3       5 UNK        -0.1800 
     49 N           1.0370  -13.7162  -40.8974 N.am      5 UNK        -0.5000 
     50 C           2.0361  -13.9812  -41.7485 C.2       4 UNK         0.5000 
     51 O           1.9224  -14.7430  -42.7114 O.2       4 UNK        -0.5000 
     52 CA          3.3985  -13.3392  -41.4334 C.3       4 UNK         0.1400 
     53 CB          4.0994  -14.1265  -40.3145 C.3       4 UNK        -0.1800 
     54 N           4.2616  -13.3623  -42.6157 N.am      4 UNK        -0.5000 
     55 C           4.3319  -12.4603  -43.6025 C.2       3 UNK         0.5000 
     56 O           4.9933  -12.6821  -44.6193 O.2       3 UNK        -0.5000 
     57 CA          3.6162  -11.1010  -43.4677 C.3       3 UNK         0.1400 
     58 CB          4.4643  -10.1225  -42.6292 C.3       3 UNK        -0.1800 
     59 N           3.4179  -10.5762  -44.8135 N.am      3 UNK        -0.5000 
     60 C           2.6859   -9.5173  -45.1774 C.2       2 UNK         0.5000 
     61 O           2.0790   -8.7918  -44.3891 O.2       2 UNK        -0.5000 
     62 CA          2.5939   -9.2517  -46.6924 C.3       2 UNK         0.1400 
     63 CB          3.8175   -8.4643  -47.1855 C.3       2 UNK        -0.1800 
     64 N           2.4839  -10.5002  -47.4496 N.am      2 UNK        -0.5000 
     65 C           1.3898  -11.2710  -47.4844 C.2       1 UNK         0.5000 
     66 O           0.3113  -10.9286  -46.9958 O.2       1 UNK        -0.5000 
     67 C          -0.6760  -21.8482  -48.0043 C.2       11 UNK         0.5000 
     68 O          -0.7730  -22.6631  -48.9206 O.2       11 UNK        -0.5000 
     69 N          -1.7361  -21.2804  -47.4105 N.am      12 UNK        -0.5000 
     70 CA         -3.1272  -21.5857  -47.7449 C.3       12 UNK         0.1400 
     71 CB         -4.0671  -20.6098  -47.0238 C.3       12 UNK        -0.1800 
     72 C          -3.5088  -23.0450  -47.4429 C.2       12 UNK         0.5000 
     73 O          -4.2058  -23.6624  -48.2485 O.2       12 UNK        -0.5000 
     74 N          -3.0177  -23.5861  -46.3196 N.am      13 UNK        -0.5000 
     75 CA         -3.1586  -24.9940  -45.9475 C.3       13 UNK         0.1400 
     76 CB         -2.6680  -25.2089  -44.5084 C.3       13 UNK        -0.1800 
     77 C          -2.4338  -25.9330  -46.9293 C.2       13 UNK         0.5000 
     78 O          -3.0189  -26.9318  -47.3483 O.2       13 UNK        -0.5000 
     79 N          -1.2064  -25.5687  -47.3303 N.am      14 UNK        -0.5000 
     80 CA         -0.4187  -26.2657  -48.3533 C.3       14 UNK         0.1400 
     81 CB          1.0007  -25.6804  -48.4011 C.3       14 UNK        -0.1800 
     82 C          -1.0751  -26.2338  -49.7491 C.2       14 UNK         0.5000 
     83 O          -0.9586  -27.2041  -50.4976 O.2       14 UNK        -0.5000 
     84 N          -1.8039  -25.1497  -50.0467 N.am      15 UNK        -0.5000 
     85 CA         -2.6554  -24.9822  -51.2268 C.3       15 UNK         0.1400 
     86 CB         -2.8416  -23.4781  -51.5014 C.3       15 UNK        -0.1800 
     87 C          -4.0148  -25.7151  -51.1236 C.2       15 UNK         0.5000 
     88 O          -4.8575  -25.5213  -51.9979 O.2       15 UNK        -0.5000 
     89 N          -4.2055  -26.5433  -50.0839 N.am      16 UNK        -0.5000 
     90 CA         -5.3816  -27.3695  -49.7938 C.3       16 UNK         0.1400 
     91 CB         -5.6445  -28.3927  -50.9198 C.3       16 UNK        -0.1800 
     92 C          -6.6157  -26.5253  -49.4233 C.2       16 UNK         0.5000 
     93 O          -7.6984  -26.7296  -49.9748 O.2       16 UNK        -0.5000 
     94 N          -6.4108  -25.5994  -48.4751 N.am      17 UNK        -0.5000 
     95 CA         -7.3689  -24.6131  -47.9634 C.3       17 UNK         0.1400 
     96 CB         -8.5960  -25.2886  -47.3143 C.3       17 UNK        -0.1800 
     97 C          -7.7258  -23.5646  -49.0350 C.2       17 UNK         0.5000 
     98 O          -8.9028  -23.2718  -49.2545 O.2       17 UNK        -0.5000 
     99 N          -6.6682  -23.0245  -49.6572 N.am      18 UNK        -0.5000 
    100 CA        -6.6282  -22.0670  -50.7656 C.3       18 UNK         0.1400 
    101 CB        -7.4010  -20.7750  -50.4320 C.3       18 UNK        -0.1800 
    102 C         -7.0667  -22.6641  -52.1189 C.2       18 UNK         0.5000 
    103 O         -7.9070  -23.5638  -52.1783 O.2       18 UNK        -0.5000 
    104 N         -6.4845  -22.1296  -53.1967 N.am      19 UNK        -0.5000 
    105 CA        -6.6778  -22.5545  -54.5807 C.3       19 UNK         0.1400 
    106 CB        -5.9493  -23.8937  -54.8256 C.3       19 UNK        -0.1800 
    107 C         -6.1603  -21.4487  -55.5161 C.2       19 UNK         0.5000 
    108 O         -5.7560  -20.3827  -55.0470 O.2       19 UNK        -0.5000 
    109 N         -6.1264  -21.7295  -56.8258 N.am      20 UNK        -0.5000 
    110 CA        -5.5923  -20.8439  -57.8704 C.3       20 UNK         0.1400 
    111 CB        -5.8796  -21.4720  -59.2432 C.3       20 UNK        -0.1800 
    112 C         -4.0873  -20.5172  -57.7287 C.2       20 UNK         0.5000 
    113 O         -3.6122  -19.5681  -58.3527 O.2       20 UNK        -0.5000 
    114 N         -3.3707  -21.2964  -56.9065 N.am      21 UNK        -0.5000 
    115 CA        -1.9769  -21.0795  -56.5200 C.3       21 UNK         0.1400 
    116 CB        -1.4642  -22.3477  -55.8180 C.3       21 UNK        -0.1800 
    117 C         -1.7620  -19.8470  -55.6149 C.2       21 UNK         0.5000 
    118 O         -0.6313  -19.3655  -55.5298 O.2       21 UNK        -0.5000 
    119 N         -2.8218  -19.3721  -54.9447 N.am      22 UNK        -0.5000 
    120 CA        -2.7993  -18.1943  -54.0641 C.3       22 UNK         0.1400 
    121 C         -2.4901  -16.8746  -54.8231 C.2       22 UNK         0.5000 
    122 N         -1.6698  -16.0028  -54.2519 N.am      22 UNK        -0.7600 
    123 O         -3.0234  -16.6129  -55.8989 O.2       22 UNK        -0.5000 
    124 C124       -4.1200  -18.0512  -53.2671 C.3       23 UNK        -0.0398 
    125 S125       -4.4273  -19.4703  -52.1624 S.3       23 UNK        -0.2404 
    126 C126       -3.9171  -18.7968  -50.5517 C.3       23 UNK        -0.0205 
    127 H127        2.6490  -12.3746  -52.0170 H         1 UNK         0.0600 
    128 H128        3.9575  -11.2362  -51.6832 H         1 UNK         0.0600 
    129 H129        4.2821  -12.9729  -51.7126 H         1 UNK         0.0600 
    130 H130        1.2984  -12.6029  -50.2669 H         1 UNK         0.3000 
    131 H131        2.2922  -13.1862  -47.5997 H         1 UNK         0.0600 
    132 H132       -0.1863  -13.4532  -47.0878 H         1 UNK         0.0800 
    133 H133       -0.5421  -13.0595  -48.7447 H         1 UNK         0.0800 
    134 H134        0.5736  -15.1260  -50.8858 H         1 UNK         0.0800 
    135 H135       -1.0192  -14.7137  -50.2865 H         1 UNK         0.0800 
    136 H136       -2.7362  -16.3583  -50.2262 H         1 UNK         0.1150 
    137 H137       -1.8140  -20.5029  -50.7939 H         1 UNK         0.1150 
    138 H138        1.3460  -17.6099  -50.5998 H         1 UNK         0.1150 
    139 H139        0.4036  -21.2707  -50.8941 H         1 UNK         0.0800 
    140 H140        1.3873  -20.1905  -51.8440 H         1 UNK         0.0800 
    141 H141        0.4298  -19.4045  -48.1189 H         1 UNK         0.0800 
    142 H142        1.9310  -19.6905  -47.3190 H         1 UNK         0.0800 
    143 H143        1.4043  -22.2751  -47.7676 H         1 UNK         0.0600 
    144 H144        0.9237  -20.6253  -45.5183 H         1 UNK         0.3000 
    145 H145       -0.0831  -23.2447  -43.2878 H         1 UNK         0.0600 
    146 H146        1.7940  -22.2726  -41.9983 H         1 UNK         0.0600 
    147 H147        2.4079  -23.2561  -43.3188 H         1 UNK         0.0600 
    148 H148        2.4320  -21.5025  -43.4487 H         1 UNK         0.0600 
    149 H149        0.2224  -20.4518  -42.8679 H         1 UNK         0.3000 
    150 H150       -3.1136  -19.5046  -43.8476 H         1 UNK         0.0600 
    151 H151       -3.2164  -20.3057  -41.4849 H         1 UNK         0.0600 
    152 H152       -3.0341  -18.5599  -41.5629 H         1 UNK         0.0600 
    153 H153       -1.6512  -19.5733  -41.1564 H         1 UNK         0.0600 
    154 H154       -0.9808  -17.9065  -42.9085 H         1 UNK         0.3000 
    155 H155        0.5402  -17.2165  -46.0978 H         1 UNK         0.0600 
    156 H156       -1.0365  -15.5758  -44.0397 H         1 UNK         0.0600 
    157 H157       -1.3205  -15.6137  -45.7750 H         1 UNK         0.0600 
    158 H158        0.1742  -14.9337  -45.1452 H         1 UNK         0.0600 
    159 H159        1.3138  -16.4098  -43.4997 H         1 UNK         0.3000 
    160 H160        3.3979  -19.2169  -42.6927 H         1 UNK         0.0600 
    161 H161        4.9562  -17.2982  -42.3344 H         1 UNK         0.0600 
    162 H162        3.9591  -16.2813  -43.3751 H         1 UNK         0.0600 
    163 H163        4.7848  -17.6806  -44.0404 H         1 UNK         0.0600 
    164 H164        2.5971  -16.8103  -41.3139 H         1 UNK         0.3000 
    165 H165       -0.1390  -18.2543  -39.5494 H         1 UNK         0.0600 
    166 H166        1.2153  -17.5522  -37.5951 H         1 UNK         0.0600 
    167 H167        1.8761  -19.0244  -38.2880 H         1 UNK         0.0600 
    168 H168        2.6708  -17.4835  -38.5892 H         1 UNK         0.0600 
    169 H169        1.1552  -15.7036  -39.4063 H         1 UNK         0.3000 
    170 H170       -0.6975  -14.0928  -41.9832 H         1 UNK         0.0600 
    171 H171       -2.2325  -14.0733  -40.0114 H         1 UNK         0.0600 
    172 H172       -0.8653  -13.8192  -38.9334 H         1 UNK         0.0600 
    173 H173       -1.3059  -12.5852  -40.1145 H         1 UNK         0.0600 
    174 H174        1.1981  -13.0894  -40.1218 H         1 UNK         0.3000 
    175 H175        3.2396  -12.3186  -41.0842 H         1 UNK         0.0600 
    176 H176        4.2672  -15.1677  -40.5935 H         1 UNK         0.0600 
    177 H177        5.0679  -13.6871  -40.0744 H         1 UNK         0.0600 
    178 H178        3.5097  -14.1228  -39.3970 H         1 UNK         0.0600 
    179 H179        4.7454  -14.2347  -42.7614 H         1 UNK         0.3000 
    180 H180        2.6340  -11.2400  -43.0141 H         1 UNK         0.0600 
    181 H181        5.4139   -9.9003  -43.1174 H         1 UNK         0.0600 
    182 H182        4.6939  -10.5340  -41.6461 H         1 UNK         0.0600 
    183 H183        3.9447   -9.1787  -42.4658 H         1 UNK         0.0600 
    184 H184        3.8832  -11.1256  -45.5262 H         1 UNK         0.3000 
    185 H185        1.7024   -8.6487  -46.8775 H         1 UNK         0.0600 
    186 H186        3.9181   -7.5220  -46.6453 H         1 UNK         0.0600 
    187 H187        4.7427   -9.0247  -47.0447 H         1 UNK         0.0600 
    188 H188        3.7296   -8.2238  -48.2451 H         1 UNK         0.0600 
    189 H189        3.3212  -10.8496  -47.9060 H         1 UNK         0.3000 
    190 H190       -1.5806  -20.5718  -46.6977 H         1 UNK         0.3000 
    191 H191       -3.2434  -21.4379  -48.8192 H         1 UNK         0.0600 
    192 H192       -4.0081  -20.7187  -45.9409 H         1 UNK         0.0600 
    193 H193       -5.1041  -20.7801  -47.3163 H         1 UNK         0.0600 
    194 H194       -3.8241  -19.5754  -47.2675 H         1 UNK         0.0600 
    195 H195       -2.5150  -22.9886  -45.6692 H         1 UNK         0.3000 
    196 H196       -4.2222  -25.2394  -45.9780 H         1 UNK         0.0600 
    197 H197       -2.8052  -26.2462  -44.2010 H         1 UNK         0.0600 
    198 H198       -3.2222  -24.5852  -43.8067 H         1 UNK         0.0600 
    199 H199       -1.6100  -24.9725  -44.4005 H         1 UNK         0.0600 
    200 H200       -0.7737  -24.7553  -46.9013 H         1 UNK         0.3000 
    201 H201       -0.3418  -27.3124  -48.0520 H         1 UNK         0.0600 
    202 H202        1.4909  -25.7553  -47.4303 H         1 UNK         0.0600 
    203 H203        0.9959  -24.6306  -48.6928 H         1 UNK         0.0600 
    204 H204        1.6196  -26.2173  -49.1209 H         1 UNK         0.0600 
    205 H205       -1.7727  -24.3659  -49.4029 H         1 UNK         0.3000 
    206 H206       -2.1353  -25.4110  -52.0855 H         1 UNK         0.0600 
    207 H207       -1.8805  -22.9779  -51.6218 H         1 UNK         0.0600 
    208 H208       -3.4098  -23.3083  -52.4169 H         1 UNK         0.0600 
    209 H209       -3.3744  -22.9842  -50.6907 H         1 UNK         0.0600 
    210 H210       -3.4689  -26.6044  -49.3915 H         1 UNK         0.3000 
    211 H211       -5.1311  -27.9410  -48.8989 H         1 UNK         0.0600 
    212 H212       -5.9654  -27.9118  -51.8441 H         1 UNK         0.0600 
    213 H213       -6.4282  -29.0939  -50.6308 H         1 UNK         0.0600 
    214 H214       -4.7507  -28.9772  -51.1377 H         1 UNK         0.0600 
    215 H215       -5.4576  -25.4617  -48.1632 H         1 UNK         0.3000 
    216 H216       -6.8478  -24.0710  -47.1726 H         1 UNK         0.0600 
    217 H217       -9.2217  -24.5508  -46.8110 H         1 UNK         0.0600 
    218 H218       -8.2933  -26.0214  -46.5664 H         1 UNK         0.0600 
    219 H219       -9.2222  -25.7958  -48.0484 H         1 UNK         0.0600 
    220 H220       -5.7582  -23.3634  -49.3580 H         1 UNK         0.3000 
    221 H221       -5.5739  -21.8070  -50.8590 H         1 UNK         0.0600 
    222 H222       -8.4740  -20.9480  -50.3514 H         1 UNK         0.0600 
    223 H223       -7.0562  -20.3403  -49.4938 H         1 UNK         0.0600 
    224 H224       -7.2582  -20.0236  -51.2090 H         1 UNK         0.0600 
    225 H225       -5.8688  -21.3292  -53.0986 H         1 UNK         0.3000 
    226 H226       -7.7458  -22.6765  -54.7706 H         1 UNK         0.0600 
    227 H227       -6.3283  -24.6765  -54.1688 H         1 UNK         0.0600 
    228 H228       -6.0881  -24.2515  -55.8459 H         1 UNK         0.0600 
    229 H229       -4.8770  -23.8051  -54.6467 H         1 UNK         0.0600 
    230 H230       -6.4717  -22.6251  -57.1394 H         1 UNK         0.3000 
    231 H231       -6.1314  -19.8963  -57.8080 H         1 UNK         0.0600 
    232 H232       -6.9487  -21.6246  -59.3923 H         1 UNK         0.0600 
    233 H233       -5.3822  -22.4362  -59.3555 H         1 UNK         0.0600 
    234 H234       -5.5305  -20.8268  -60.0506 H         1 UNK         0.0600 
    235 H235       -3.8476  -22.0601  -56.4525 H         1 UNK         0.3000 
    236 H236       -1.3912  -20.9267  -57.4288 H         1 UNK         0.0600 
    237 H237       -0.4141  -22.2444  -55.5414 H         1 UNK         0.0600 
    238 H238       -2.0241  -22.5563  -54.9051 H         1 UNK         0.0600 
    239 H239       -1.5428  -23.2192  -56.4682 H         1 UNK         0.0600 
    240 H240       -3.7276  -19.8076  -55.0726 H         1 UNK         0.3000 
    241 H241       -1.9905  -18.3564  -53.3496 H         1 UNK         0.0600 
    242 H242       -1.4722  -15.1346  -54.7247 H         1 UNK         0.3800 
    243 H243       -1.2248  -16.1996  -53.3693 H         1 UNK         0.3800 
    244 H244       -4.1160  -17.1367  -52.6714 H         1 UNK         0.0800 
    245 H245       -4.9665  -17.9601  -53.9497 H         1 UNK         0.0800 
    246 H246       -4.5213  -17.9182  -50.3208 H         1 UNK         0.0800 
    247 H247       -4.1383  -19.5290  -49.7773 H         1 UNK         0.0800 
@<TRIPOS>BOND
     1    1    2 1    
     2    1  127 1    
     3    1  128 1    
     4    1  129 1    
     5    2    3 2    
     6    2    4 am   BACKBONE|DICT|INTERRES
     7    4    5 1    
     8    4  130 1    
     9    5    6 1    
    10    5   65 1    
    11    5  131 1    
    12    6    7 1    
    13    6  132 1    
    14    6  133 1    
    15    7    8 1    
    16    8    9 1    
    17    8  134 1    
    18    8  135 1    
    19    9   10 ar   
    20    9   14 ar   
    21   10   11 ar   
    22   10  136 1    
    23   11   12 ar   
    24   11  126 1    
    25   12   13 ar   
    26   12  137 1    
    27   13   14 ar   
    28   13   15 1    
    29   14  138 1    
    30   15   16 1    
    31   15  139 1    
    32   15  140 1    
    33   16   17 1    
    34   17   18 1    
    35   17  141 1    
    36   17  142 1    
    37   18   19 1    
    38   18   67 1    
    39   18  143 1    
    40   19   20 am   BACKBONE|DICT|INTERRES
    41   19  144 1    
    42   20   21 2    
    43   20   22 1    
    44   22   23 1    
    45   22   24 1    
    46   22  145 1    
    47   23  146 1    
    48   23  147 1    
    49   23  148 1    
    50   24   25 am   BACKBONE|DICT|INTERRES
    51   24  149 1    
    52   25   26 2    
    53   25   27 1    
    54   27   28 1    
    55   27   29 1    
    56   27  150 1    
    57   28  151 1    
    58   28  152 1    
    59   28  153 1    
    60   29   30 am   BACKBONE|DICT|INTERRES
    61   29  154 1    
    62   30   31 2    
    63   30   32 1    
    64   32   33 1    
    65   32   34 1    
    66   32  155 1    
    67   33  156 1    
    68   33  157 1    
    69   33  158 1    
    70   34   35 am   BACKBONE|DICT|INTERRES
    71   34  159 1    
    72   35   36 2    
    73   35   37 1    
    74   37   38 1    
    75   37   39 1    
    76   37  160 1    
    77   38  161 1    
    78   38  162 1    
    79   38  163 1    
    80   39   40 am   BACKBONE|DICT|INTERRES
    81   39  164 1    
    82   40   41 2    
    83   40   42 1    
    84   42   43 1    
    85   42   44 1    
    86   42  165 1    
    87   43  166 1    
    88   43  167 1    
    89   43  168 1    
    90   44   45 am   BACKBONE|DICT|INTERRES
    91   44  169 1    
    92   45   46 2    
    93   45   47 1    
    94   47   48 1    
    95   47   49 1    
    96   47  170 1    
    97   48  171 1    
    98   48  172 1    
    99   48  173 1    
   100   49   50 am   BACKBONE|DICT|INTERRES
   101   49  174 1    
   102   50   51 2    
   103   50   52 1    
   104   52   53 1    
   105   52   54 1    
   106   52  175 1    
   107   53  176 1    
   108   53  177 1    
   109   53  178 1    
   110   54   55 am   BACKBONE|DICT|INTERRES
   111   54  179 1    
   112   55   56 2    
   113   55   57 1    
   114   57   58 1    
   115   57   59 1    
   116   57  180 1    
   117   58  181 1    
   118   58  182 1    
   119   58  183 1    
   120   59   60 am   BACKBONE|DICT|INTERRES
   121   59  184 1    
   122   60   61 2    
   123   60   62 1    
   124   62   63 1    
   125   62   64 1    
   126   62  185 1    
   127   63  186 1    
   128   63  187 1    
   129   63  188 1    
   130   64   65 am   BACKBONE|DICT|INTERRES
   131   64  189 1    
   132   65   66 2    
   133   67   68 2    
   134   67   69 am   BACKBONE|DICT|INTERRES
   135   69   70 1    
   136   69  190 1    
   137   70   71 1    
   138   70   72 1    
   139   70  191 1    
   140   71  192 1    
   141   71  193 1    
   142   71  194 1    
   143   72   73 2    
   144   72   74 am   BACKBONE|DICT|INTERRES
   145   74   75 1    
   146   74  195 1    
   147   75   76 1    
   148   75   77 1    
   149   75  196 1    
   150   76  197 1    
   151   76  198 1    
   152   76  199 1    
   153   77   78 2    
   154   77   79 am   BACKBONE|DICT|INTERRES
   155   79   80 1    
   156   79  200 1    
   157   80   81 1    
   158   80   82 1    
   159   80  201 1    
   160   81  202 1    
   161   81  203 1    
   162   81  204 1    
   163   82   83 2    
   164   82   84 am   BACKBONE|DICT|INTERRES
   165   84   85 1    
   166   84  205 1    
   167   85   86 1    
   168   85   87 1    
   169   85  206 1    
   170   86  207 1    
   171   86  208 1    
   172   86  209 1    
   173   87   88 2    
   174   87   89 am   BACKBONE|DICT|INTERRES
   175   89   90 1    
   176   89  210 1    
   177   90   91 1    
   178   90   92 1    
   179   90  211 1    
   180   91  212 1    
   181   91  213 1    
   182   91  214 1    
   183   92   93 2    
   184   92   94 am   BACKBONE|DICT|INTERRES
   185   94   95 1    
   186   94  215 1    
   187   95   96 1    
   188   95   97 1    
   189   95  216 1    
   190   96  217 1    
   191   96  218 1    
   192   96  219 1    
   193   97   98 2    
   194   97   99 am   BACKBONE|DICT|INTERRES
   195   99  100 1    
   196   99  220 1    
   197  100  101 1    
   198  100  102 1    
   199  100  221 1    
   200  101  222 1    
   201  101  223 1    
   202  101  224 1    
   203  102  103 2    
   204  102  104 am   BACKBONE|DICT|INTERRES
   205  104  105 1    
   206  104  225 1    
   207  105  106 1    
   208  105  107 1    
   209  105  226 1    
   210  106  227 1    
   211  106  228 1    
   212  106  229 1    
   213  107  108 2    
   214  107  109 am   BACKBONE|DICT|INTERRES
   215  109  110 1    
   216  109  230 1    
   217  110  111 1    
   218  110  112 1    
   219  110  231 1    
   220  111  232 1    
   221  111  233 1    
   222  111  234 1    
   223  112  113 2    
   224  112  114 am   BACKBONE|DICT|INTERRES
   225  114  115 1    
   226  114  235 1    
   227  115  116 1    
   228  115  117 1    
   229  115  236 1    
   230  116  237 1    
   231  116  238 1    
   232  116  239 1    
   233  117  118 2    
   234  117  119 am   BACKBONE|DICT|INTERRES
   235  119  120 1    
   236  119  240 1    
   237  120  121 1    
   238  120  124 1    
   239  120  241 1    
   240  121  122 am   BACKBONE|DICT|INTERRES
   241  121  123 2    
   242  122  242 1    
   243  122  243 1    
   244  124  125 1    
   245  124  244 1    
   246  124  245 1    
   247  125  126 1    
   248  126  246 1    
   249  126  247 1    
@<TRIPOS>SUBSTRUCTURE
     1 UNK         1 GROUP             0       ****    0 ROOT    
