@<TRIPOS>MOLECULE
3R540
247   249    1
SMALL
USER_CHARGES


@<TRIPOS>ATOM
      1 CA         -3.2894  -14.0425  -51.5990 C.3       0 UNK        -0.1800 
      2 C          -2.4003  -13.5824  -50.4525 C.2       0 UNK         0.5000 
      3 O          -2.4189  -12.4019  -50.1046 O.2       0 UNK        -0.5000 
      4 N          -1.6229  -14.5023  -49.8701 N.am      1 UNK        -0.5000 
      5 CA         -0.6507  -14.2292  -48.8031 C.3       1 UNK         0.1400 
      6 C6          0.7232  -14.8834  -49.0891 C.3       23 UNK        -0.0398 
      7 S7          0.6729  -16.7027  -49.2018 S.3       23 UNK        -0.2404 
      8 C8          0.8886  -16.9558  -50.9920 C.3       23 UNK        -0.0205 
      9 C9          0.8552  -18.4369  -51.3260 C.ar      23 UNK        -0.0193 
     10 C10        -0.1664  -18.9717  -52.1155 C.ar      23 UNK        -0.1150 
     11 C11        -0.2235  -20.3473  -52.3577 C.ar      23 UNK        -0.0193 
     12 C12         0.7359  -21.1898  -51.7870 C.ar      23 UNK        -0.1150 
     13 C13         1.7625  -20.6644  -50.9967 C.ar      23 UNK        -0.0193 
     14 C14         1.8345  -19.2832  -50.8024 C.ar      23 UNK        -0.1150 
     15 C15         2.7515  -21.5939  -50.3014 C.3       23 UNK        -0.0205 
     16 S16         2.9475  -21.2348  -48.5168 S.3       23 UNK        -0.2404 
     17 C17         1.2177  -21.2238  -47.9298 C.3       23 UNK        -0.0398 
     18 CA          0.8187  -22.5667  -47.2856 C.3       11 UNK         0.1400 
     19 N           1.5056  -22.8025  -46.0155 N.am      11 UNK        -0.5000 
     20 C           1.5384  -23.9761  -45.3723 C.2       10 UNK         0.5000 
     21 O           1.0215  -25.0076  -45.8011 O.2       10 UNK        -0.5000 
     22 CA          2.2155  -23.9728  -43.9903 C.3       10 UNK         0.1400 
     23 CB          3.7442  -24.0226  -44.1305 C.3       10 UNK        -0.1800 
     24 N           1.8344  -22.8039  -43.1938 N.am      10 UNK        -0.5000 
     25 C           0.5943  -22.5809  -42.7367 C.2       9 UNK         0.5000 
     26 O          -0.3441  -23.3612  -42.9038 O.2       9 UNK        -0.5000 
     27 CA          0.3508  -21.2474  -42.0040 C.3       9 UNK         0.1400 
     28 CB          0.6835  -21.3891  -40.5124 C.3       9 UNK        -0.1800 
     29 N           1.0727  -20.0968  -42.5618 N.am      9 UNK        -0.5000 
     30 C           0.9534  -19.6482  -43.8219 C.2       8 UNK         0.5000 
     31 O           0.3107  -20.2434  -44.6845 O.2       8 UNK        -0.5000 
     32 CA          1.6532  -18.3287  -44.2003 C.3       8 UNK         0.1400 
     33 CB          0.6893  -17.3844  -44.9424 C.3       8 UNK        -0.1800 
     34 N           2.1839  -17.6336  -43.0274 N.am      8 UNK        -0.5000 
     35 C           3.4833  -17.4719  -42.7422 C.2       7 UNK         0.5000 
     36 O           4.3945  -17.8851  -43.4598 O.2       7 UNK        -0.5000 
     37 CA          3.8395  -16.7365  -41.4324 C.3       7 UNK         0.1400 
     38 CB          4.3261  -15.3097  -41.7215 C.3       7 UNK        -0.1800 
     39 N           2.7330  -16.6761  -40.4756 N.am      7 UNK        -0.5000 
     40 C           2.2922  -17.7251  -39.7678 C.2       6 UNK         0.5000 
     41 O           2.7999  -18.8448  -39.8274 O.2       6 UNK        -0.5000 
     42 CA          1.0522  -17.5049  -38.8795 C.3       6 UNK         0.1400 
     43 CB          1.4769  -17.1544  -37.4458 C.3       6 UNK        -0.1800 
     44 N           0.1289  -16.4772  -39.3682 N.am      6 UNK        -0.5000 
     45 C          -0.4752  -16.4638  -40.5649 C.2       5 UNK         0.5000 
     46 O          -0.2822  -17.3126  -41.4359 O.2       5 UNK        -0.5000 
     47 CA         -1.4441  -15.3018  -40.8560 C.3       5 UNK         0.1400 
     48 CB         -1.8045  -14.4489  -39.6187 C.3       5 UNK        -0.1800 
     49 N          -0.9628  -14.4417  -41.9379 N.am      5 UNK        -0.5000 
     50 C           0.1956  -13.7637  -41.9954 C.2       4 UNK         0.5000 
     51 O           1.0800  -13.8513  -41.1415 O.2       4 UNK        -0.5000 
     52 CA          0.4073  -12.8147  -43.1972 C.3       4 UNK         0.1400 
     53 CB          1.5525  -13.3077  -44.0941 C.3       4 UNK        -0.1800 
     54 N          -0.7947  -12.6389  -44.0164 N.am      4 UNK        -0.5000 
     55 C          -1.8542  -11.8906  -43.6697 C.2       3 UNK         0.5000 
     56 O          -1.8843  -11.1879  -42.6589 O.2       3 UNK        -0.5000 
     57 CA         -3.1033  -11.9523  -44.5766 C.3       3 UNK         0.1400 
     58 CB         -3.1810  -10.7033  -45.4679 C.3       3 UNK        -0.1800 
     59 N          -3.1699  -13.1417  -45.4292 N.am      3 UNK        -0.5000 
     60 C          -3.2189  -14.4125  -45.0044 C.2       2 UNK         0.5000 
     61 O          -3.2925  -14.7306  -43.8173 O.2       2 UNK        -0.5000 
     62 CA         -3.1063  -15.5133  -46.0800 C.3       2 UNK         0.1400 
     63 CB         -4.4984  -16.0622  -46.4217 C.3       2 UNK        -0.1800 
     64 N          -2.4325  -15.0966  -47.3184 N.am      2 UNK        -0.5000 
     65 C          -1.1901  -14.5928  -47.4028 C.2       1 UNK         0.5000 
     66 O          -0.4834  -14.3810  -46.4170 O.2       1 UNK        -0.5000 
     67 C          -0.7090  -22.6539  -47.1281 C.2       11 UNK         0.5000 
     68 O          -1.3697  -23.1813  -48.0203 O.2       11 UNK        -0.5000 
     69 N          -1.2396  -22.1646  -45.9990 N.am      12 UNK        -0.5000 
     70 CA         -2.6590  -22.2162  -45.6558 C.3       12 UNK         0.1400 
     71 CB         -2.9298  -21.3868  -44.3931 C.3       12 UNK        -0.1800 
     72 C          -3.1751  -23.6559  -45.5073 C.2       12 UNK         0.5000 
     73 O          -4.2612  -23.9652  -45.9978 O.2       12 UNK        -0.5000 
     74 N          -2.3636  -24.5173  -44.8806 N.am      13 UNK        -0.5000 
     75 CA         -2.6125  -25.9529  -44.7786 C.3       13 UNK         0.1400 
     76 CB         -1.6487  -26.5611  -43.7482 C.3       13 UNK        -0.1800 
     77 C          -2.4898  -26.6735  -46.1356 C.2       13 UNK         0.5000 
     78 O          -3.3016  -27.5524  -46.4281 O.2       13 UNK        -0.5000 
     79 N          -1.4768  -26.3008  -46.9299 N.am      14 UNK        -0.5000 
     80 CA         -1.1575  -26.9346  -48.2079 C.3       14 UNK         0.1400 
     81 CB          0.2898  -26.5974  -48.5996 C.3       14 UNK        -0.1800 
     82 C          -2.1196  -26.5637  -49.3507 C.2       14 UNK         0.5000 
     83 O          -2.5659  -27.4581  -50.0712 O.2       14 UNK        -0.5000 
     84 N          -2.3871  -25.2639  -49.5321 N.am      15 UNK        -0.5000 
     85 CA         -3.0461  -24.7198  -50.7208 C.3       15 UNK         0.1400 
     86 CB         -2.0313  -24.6274  -51.8795 C.3       15 UNK        -0.1800 
     87 C          -3.7485  -23.3797  -50.4338 C.2       15 UNK         0.5000 
     88 O          -3.7291  -22.4811  -51.2754 O.2       15 UNK        -0.5000 
     89 N          -4.3644  -23.2615  -49.2500 N.am      16 UNK        -0.5000 
     90 CA         -5.2474  -22.1792  -48.7865 C.3       16 UNK         0.1400 
     91 CB         -6.4800  -22.0466  -49.7037 C.3       16 UNK        -0.1800 
     92 C          -4.5982  -20.7974  -48.5576 C.2       16 UNK         0.5000 
     93 O          -5.1816  -19.9992  -47.8245 O.2       16 UNK        -0.5000 
     94 N          -3.4345  -20.5193  -49.1640 N.am      17 UNK        -0.5000 
     95 CA         -2.6201  -19.2894  -49.1127 C.3       17 UNK         0.1400 
     96 CB         -2.1221  -18.9953  -47.6838 C.3       17 UNK        -0.1800 
     97 C          -3.2807  -18.0350  -49.7243 C.2       17 UNK         0.5000 
     98 O          -2.5818  -17.1969  -50.2915 O.2       17 UNK        -0.5000 
     99 N          -4.6074  -17.9193  -49.6060 N.am      18 UNK        -0.5000 
    100 CA        -5.4368  -16.8679  -50.1923 C.3       18 UNK         0.1400 
    101 CB        -6.7884  -16.8467  -49.4616 C.3       18 UNK        -0.1800 
    102 C         -5.6534  -17.0508  -51.7073 C.2       18 UNK         0.5000 
    103 O         -6.0414  -16.0963  -52.3817 O.2       18 UNK        -0.5000 
    104 N         -5.4229  -18.2713  -52.2094 N.am      19 UNK        -0.5000 
    105 CA        -5.5067  -18.6279  -53.6224 C.3       19 UNK         0.1400 
    106 CB        -5.4756  -20.1599  -53.7466 C.3       19 UNK        -0.1800 
    107 C         -4.3709  -17.9918  -54.4454 C.2       19 UNK         0.5000 
    108 O         -3.2584  -17.8282  -53.9404 O.2       19 UNK        -0.5000 
    109 N         -4.6717  -17.6861  -55.7099 N.am      20 UNK        -0.5000 
    110 CA        -3.7237  -17.2189  -56.7171 C.3       20 UNK         0.1400 
    111 CB        -4.1721  -15.8412  -57.2291 C.3       20 UNK        -0.1800 
    112 C         -3.6961  -18.2415  -57.8618 C.2       20 UNK         0.5000 
    113 O         -4.7120  -18.8950  -58.1161 O.2       20 UNK        -0.5000 
    114 N         -2.5351  -18.3631  -58.5226 N.am      21 UNK        -0.5000 
    115 CA        -2.2285  -19.3353  -59.5840 C.3       21 UNK         0.1400 
    116 CB        -3.0409  -19.0320  -60.8608 C.3       21 UNK        -0.1800 
    117 C         -2.3669  -20.8012  -59.1105 C.2       21 UNK         0.5000 
    118 O         -2.7972  -21.6688  -59.8726 O.2       21 UNK        -0.5000 
    119 N         -2.0094  -21.0377  -57.8425 N.am      22 UNK        -0.5000 
    120 CA        -2.1131  -22.3254  -57.1400 C.3       22 UNK         0.1400 
    121 C         -1.0482  -23.3931  -57.5342 C.2       22 UNK         0.5000 
    122 N         -0.0280  -23.0630  -58.3169 N.am      22 UNK        -0.7600 
    123 O         -1.1601  -24.5487  -57.1342 O.2       22 UNK        -0.5000 
    124 C124       -2.1909  -22.1136  -55.6047 C.3       23 UNK        -0.0398 
    125 S125       -0.7688  -21.1926  -54.9213 S.3       23 UNK        -0.2404 
    126 C126       -1.3328  -20.9304  -53.2151 C.3       23 UNK        -0.0205 
    127 H127       -4.3393  -13.9079  -51.3403 H         1 UNK         0.0600 
    128 H128       -3.0822  -13.4530  -52.4919 H         1 UNK         0.0600 
    129 H129       -3.1268  -15.0916  -51.8466 H         1 UNK         0.0600 
    130 H130       -1.7031  -15.4775  -50.1527 H         1 UNK         0.3000 
    131 H131       -0.4648  -13.1542  -48.7595 H         1 UNK         0.0600 
    132 H132        1.1335  -14.4748  -50.0133 H         1 UNK         0.0800 
    133 H133        1.4412  -14.6133  -48.3126 H         1 UNK         0.0800 
    134 H134        1.8419  -16.5336  -51.3126 H         1 UNK         0.0800 
    135 H135        0.1044  -16.4204  -51.5298 H         1 UNK         0.0800 
    136 H136       -0.9269  -18.3219  -52.5270 H         1 UNK         0.1150 
    137 H137        0.6738  -22.2563  -51.9520 H         1 UNK         0.1150 
    138 H138        2.6186  -18.8688  -50.1841 H         1 UNK         0.1150 
    139 H139        2.4418  -22.6344  -50.4113 H         1 UNK         0.0800 
    140 H140        3.7226  -21.5059  -50.7898 H         1 UNK         0.0800 
    141 H141        0.5464  -20.9798  -48.7532 H         1 UNK         0.0800 
    142 H142        1.1060  -20.4050  -47.2178 H         1 UNK         0.0800 
    143 H143        1.1083  -23.3649  -47.9718 H         1 UNK         0.0600 
    144 H144        1.9112  -21.9933  -45.5699 H         1 UNK         0.3000 
    145 H145        1.8912  -24.8696  -43.4578 H         1 UNK         0.0600 
    146 H146        4.2269  -24.0949  -43.1557 H         1 UNK         0.0600 
    147 H147        4.0537  -24.8929  -44.7108 H         1 UNK         0.0600 
    148 H148        4.1343  -23.1370  -44.6337 H         1 UNK         0.0600 
    149 H149        2.5475  -22.1124  -43.0147 H         1 UNK         0.3000 
    150 H150       -0.7143  -21.0248  -42.0865 H         1 UNK         0.0600 
    151 H151        0.1747  -22.2497  -40.0758 H         1 UNK         0.0600 
    152 H152        0.3625  -20.5103  -39.9554 H         1 UNK         0.0600 
    153 H153        1.7537  -21.5204  -40.3484 H         1 UNK         0.0600 
    154 H154        1.6296  -19.5577  -41.9139 H         1 UNK         0.3000 
    155 H155        2.4572  -18.5932  -44.8895 H         1 UNK         0.0600 
    156 H156       -0.1345  -17.0625  -44.3040 H         1 UNK         0.0600 
    157 H157        0.2571  -17.8643  -45.8214 H         1 UNK         0.0600 
    158 H158        1.2086  -16.4944  -45.2956 H         1 UNK         0.0600 
    159 H159        1.4852  -17.3044  -42.3679 H         1 UNK         0.3000 
    160 H160        4.6635  -17.2839  -40.9697 H         1 UNK         0.0600 
    161 H161        4.6698  -14.8181  -40.8113 H         1 UNK         0.0600 
    162 H162        3.5335  -14.7000  -42.1514 H         1 UNK         0.0600 
    163 H163        5.1598  -15.3120  -42.4249 H         1 UNK         0.0600 
    164 H164        2.2419  -15.7937  -40.3996 H         1 UNK         0.3000 
    165 H165        0.5010  -18.4458  -38.8487 H         1 UNK         0.0600 
    166 H166        0.6147  -17.0939  -36.7814 H         1 UNK         0.0600 
    167 H167        2.1454  -17.9144  -37.0390 H         1 UNK         0.0600 
    168 H168        2.0018  -16.1991  -37.4045 H         1 UNK         0.0600 
    169 H169       -0.0688  -15.7179  -38.7328 H         1 UNK         0.3000 
    170 H170       -2.3652  -15.7614  -41.2173 H         1 UNK         0.0600 
    171 H171       -2.2258  -15.0647  -38.8230 H         1 UNK         0.0600 
    172 H172       -0.9413  -13.9198  -39.2134 H         1 UNK         0.0600 
    173 H173       -2.5553  -13.7004  -39.8727 H         1 UNK         0.0600 
    174 H174       -1.6108  -14.3416  -42.7114 H         1 UNK         0.3000 
    175 H175        0.6921  -11.8400  -42.7960 H         1 UNK         0.0600 
    176 H176        1.4049  -14.3424  -44.4020 H         1 UNK         0.0600 
    177 H177        1.6430  -12.6998  -44.9945 H         1 UNK         0.0600 
    178 H178        2.5068  -13.2493  -43.5725 H         1 UNK         0.0600 
    179 H179       -0.8356  -13.1926  -44.8674 H         1 UNK         0.3000 
    180 H180       -3.9779  -11.9643  -43.9231 H         1 UNK         0.0600 
    181 H181       -2.3420  -10.6537  -46.1632 H         1 UNK         0.0600 
    182 H182       -3.1650   -9.7923  -44.8681 H         1 UNK         0.0600 
    183 H183       -4.1023  -10.6901  -46.0506 H         1 UNK         0.0600 
    184 H184       -3.1028  -12.9827  -46.4236 H         1 UNK         0.3000 
    185 H185       -2.5162  -16.3231  -45.6460 H         1 UNK         0.0600 
    186 H186       -5.0393  -16.3525  -45.5199 H         1 UNK         0.0600 
    187 H187       -5.1048  -15.3222  -46.9450 H         1 UNK         0.0600 
    188 H188       -4.4300  -16.9496  -47.0478 H         1 UNK         0.0600 
    189 H189       -2.9412  -15.2279  -48.1800 H         1 UNK         0.3000 
    190 H190       -0.6317  -21.6630  -45.3553 H         1 UNK         0.3000 
    191 H191       -3.2030  -21.7538  -46.4740 H         1 UNK         0.0600 
    192 H192       -2.4546  -21.8214  -43.5149 H         1 UNK         0.0600 
    193 H193       -3.9998  -21.3300  -44.1904 H         1 UNK         0.0600 
    194 H194       -2.5648  -20.3655  -44.5047 H         1 UNK         0.0600 
    195 H195       -1.5080  -24.1669  -44.4631 H         1 UNK         0.3000 
    196 H196       -3.6321  -26.0964  -44.4148 H         1 UNK         0.0600 
    197 H197       -1.8240  -27.6313  -43.6328 H         1 UNK         0.0600 
    198 H198       -1.7793  -26.1014  -42.7683 H         1 UNK         0.0600 
    199 H199       -0.6069  -26.4275  -44.0418 H         1 UNK         0.0600 
    200 H200       -0.8222  -25.6042  -46.5923 H         1 UNK         0.3000 
    201 H201       -1.2147  -28.0166  -48.0698 H         1 UNK         0.0600 
    202 H202        0.4329  -25.5246  -48.7275 H         1 UNK         0.0600 
    203 H203        0.9940  -26.9416  -47.8420 H         1 UNK         0.0600 
    204 H204        0.5633  -27.0788  -49.5394 H         1 UNK         0.0600 
    205 H205       -1.9926  -24.5726  -48.8926 H         1 UNK         0.3000 
    206 H206       -3.8426  -25.4019  -51.0244 H         1 UNK         0.0600 
    207 H207       -1.2007  -23.9682  -51.6263 H         1 UNK         0.0600 
    208 H208       -1.6169  -25.6050  -52.1255 H         1 UNK         0.0600 
    209 H209       -2.4987  -24.2445  -52.7873 H         1 UNK         0.0600 
    210 H210       -4.2621  -24.0281  -48.5981 H         1 UNK         0.3000 
    211 H211       -5.6094  -22.5010  -47.8094 H         1 UNK         0.0600 
    212 H212       -6.2127  -21.6919  -50.6996 H         1 UNK         0.0600 
    213 H213       -7.1993  -21.3379  -49.2911 H         1 UNK         0.0600 
    214 H214       -6.9945  -23.0011  -49.8138 H         1 UNK         0.0600 
    215 H215       -3.1031  -21.2269  -49.8106 H         1 UNK         0.3000 
    216 H216       -1.7403  -19.4935  -49.7244 H         1 UNK         0.0600 
    217 H217       -2.9388  -18.9002  -46.9691 H         1 UNK         0.0600 
    218 H218       -1.5555  -18.0644  -47.6502 H         1 UNK         0.0600 
    219 H219       -1.4582  -19.7799  -47.3290 H         1 UNK         0.0600 
    220 H220       -5.0813  -18.6228  -49.0452 H         1 UNK         0.3000 
    221 H221       -4.9444  -15.9074  -50.0334 H         1 UNK         0.0600 
    222 H222       -7.3273  -17.7867  -49.5883 H         1 UNK         0.0600 
    223 H223       -6.6609  -16.6780  -48.3928 H         1 UNK         0.0600 
    224 H224       -7.4263  -16.0478  -49.8418 H         1 UNK         0.0600 
    225 H225       -5.0699  -18.9798  -51.5850 H         1 UNK         0.3000 
    226 H226       -6.4629  -18.2675  -54.0080 H         1 UNK         0.0600 
    227 H227       -6.3221  -20.6140  -53.2311 H         1 UNK         0.0600 
    228 H228       -5.5274  -20.4710  -54.7908 H         1 UNK         0.0600 
    229 H229       -4.5643  -20.5823  -53.3225 H         1 UNK         0.0600 
    230 H230       -5.5838  -17.9304  -56.0716 H         1 UNK         0.3000 
    231 H231       -2.7190  -17.1328  -56.2978 H         1 UNK         0.0600 
    232 H232       -4.2031  -15.1129  -56.4184 H         1 UNK         0.0600 
    233 H233       -5.1641  -15.8814  -57.6809 H         1 UNK         0.0600 
    234 H234       -3.4821  -15.4601  -57.9829 H         1 UNK         0.0600 
    235 H235       -1.7636  -17.7716  -58.2454 H         1 UNK         0.3000 
    236 H236       -1.1744  -19.1981  -59.8289 H         1 UNK         0.0600 
    237 H237       -2.7126  -19.6587  -61.6907 H         1 UNK         0.0600 
    238 H238       -4.1066  -19.2130  -60.7180 H         1 UNK         0.0600 
    239 H239       -2.9156  -17.9945  -61.1705 H         1 UNK         0.0600 
    240 H240       -1.6459  -20.2736  -57.2920 H         1 UNK         0.3000 
    241 H241       -3.0671  -22.7648  -57.4378 H         1 UNK         0.0600 
    242 H242        0.0764  -22.1185  -58.6502 H         1 UNK         0.3800 
    243 H243        0.6510  -23.7634  -58.5708 H         1 UNK         0.3800 
    244 H244       -2.2801  -23.0685  -55.0839 H         1 UNK         0.0800 
    245 H245       -3.0999  -21.5602  -55.3651 H         1 UNK         0.0800 
    246 H246       -2.2007  -20.2703  -53.2134 H         1 UNK         0.0800 
    247 H247       -1.6625  -21.8780  -52.7922 H         1 UNK         0.0800 
@<TRIPOS>BOND
     1    1    2 1    
     2    1  127 1    
     3    1  128 1    
     4    1  129 1    
     5    2    3 2    
     6    2    4 am   BACKBONE|DICT|INTERRES
     7    4    5 1    
     8    4  130 1    
     9    5    6 1    
    10    5   65 1    
    11    5  131 1    
    12    6    7 1    
    13    6  132 1    
    14    6  133 1    
    15    7    8 1    
    16    8    9 1    
    17    8  134 1    
    18    8  135 1    
    19    9   10 ar   
    20    9   14 ar   
    21   10   11 ar   
    22   10  136 1    
    23   11   12 ar   
    24   11  126 1    
    25   12   13 ar   
    26   12  137 1    
    27   13   14 ar   
    28   13   15 1    
    29   14  138 1    
    30   15   16 1    
    31   15  139 1    
    32   15  140 1    
    33   16   17 1    
    34   17   18 1    
    35   17  141 1    
    36   17  142 1    
    37   18   19 1    
    38   18   67 1    
    39   18  143 1    
    40   19   20 am   BACKBONE|DICT|INTERRES
    41   19  144 1    
    42   20   21 2    
    43   20   22 1    
    44   22   23 1    
    45   22   24 1    
    46   22  145 1    
    47   23  146 1    
    48   23  147 1    
    49   23  148 1    
    50   24   25 am   BACKBONE|DICT|INTERRES
    51   24  149 1    
    52   25   26 2    
    53   25   27 1    
    54   27   28 1    
    55   27   29 1    
    56   27  150 1    
    57   28  151 1    
    58   28  152 1    
    59   28  153 1    
    60   29   30 am   BACKBONE|DICT|INTERRES
    61   29  154 1    
    62   30   31 2    
    63   30   32 1    
    64   32   33 1    
    65   32   34 1    
    66   32  155 1    
    67   33  156 1    
    68   33  157 1    
    69   33  158 1    
    70   34   35 am   BACKBONE|DICT|INTERRES
    71   34  159 1    
    72   35   36 2    
    73   35   37 1    
    74   37   38 1    
    75   37   39 1    
    76   37  160 1    
    77   38  161 1    
    78   38  162 1    
    79   38  163 1    
    80   39   40 am   BACKBONE|DICT|INTERRES
    81   39  164 1    
    82   40   41 2    
    83   40   42 1    
    84   42   43 1    
    85   42   44 1    
    86   42  165 1    
    87   43  166 1    
    88   43  167 1    
    89   43  168 1    
    90   44   45 am   BACKBONE|DICT|INTERRES
    91   44  169 1    
    92   45   46 2    
    93   45   47 1    
    94   47   48 1    
    95   47   49 1    
    96   47  170 1    
    97   48  171 1    
    98   48  172 1    
    99   48  173 1    
   100   49   50 am   BACKBONE|DICT|INTERRES
   101   49  174 1    
   102   50   51 2    
   103   50   52 1    
   104   52   53 1    
   105   52   54 1    
   106   52  175 1    
   107   53  176 1    
   108   53  177 1    
   109   53  178 1    
   110   54   55 am   BACKBONE|DICT|INTERRES
   111   54  179 1    
   112   55   56 2    
   113   55   57 1    
   114   57   58 1    
   115   57   59 1    
   116   57  180 1    
   117   58  181 1    
   118   58  182 1    
   119   58  183 1    
   120   59   60 am   BACKBONE|DICT|INTERRES
   121   59  184 1    
   122   60   61 2    
   123   60   62 1    
   124   62   63 1    
   125   62   64 1    
   126   62  185 1    
   127   63  186 1    
   128   63  187 1    
   129   63  188 1    
   130   64   65 am   BACKBONE|DICT|INTERRES
   131   64  189 1    
   132   65   66 2    
   133   67   68 2    
   134   67   69 am   BACKBONE|DICT|INTERRES
   135   69   70 1    
   136   69  190 1    
   137   70   71 1    
   138   70   72 1    
   139   70  191 1    
   140   71  192 1    
   141   71  193 1    
   142   71  194 1    
   143   72   73 2    
   144   72   74 am   BACKBONE|DICT|INTERRES
   145   74   75 1    
   146   74  195 1    
   147   75   76 1    
   148   75   77 1    
   149   75  196 1    
   150   76  197 1    
   151   76  198 1    
   152   76  199 1    
   153   77   78 2    
   154   77   79 am   BACKBONE|DICT|INTERRES
   155   79   80 1    
   156   79  200 1    
   157   80   81 1    
   158   80   82 1    
   159   80  201 1    
   160   81  202 1    
   161   81  203 1    
   162   81  204 1    
   163   82   83 2    
   164   82   84 am   BACKBONE|DICT|INTERRES
   165   84   85 1    
   166   84  205 1    
   167   85   86 1    
   168   85   87 1    
   169   85  206 1    
   170   86  207 1    
   171   86  208 1    
   172   86  209 1    
   173   87   88 2    
   174   87   89 am   BACKBONE|DICT|INTERRES
   175   89   90 1    
   176   89  210 1    
   177   90   91 1    
   178   90   92 1    
   179   90  211 1    
   180   91  212 1    
   181   91  213 1    
   182   91  214 1    
   183   92   93 2    
   184   92   94 am   BACKBONE|DICT|INTERRES
   185   94   95 1    
   186   94  215 1    
   187   95   96 1    
   188   95   97 1    
   189   95  216 1    
   190   96  217 1    
   191   96  218 1    
   192   96  219 1    
   193   97   98 2    
   194   97   99 am   BACKBONE|DICT|INTERRES
   195   99  100 1    
   196   99  220 1    
   197  100  101 1    
   198  100  102 1    
   199  100  221 1    
   200  101  222 1    
   201  101  223 1    
   202  101  224 1    
   203  102  103 2    
   204  102  104 am   BACKBONE|DICT|INTERRES
   205  104  105 1    
   206  104  225 1    
   207  105  106 1    
   208  105  107 1    
   209  105  226 1    
   210  106  227 1    
   211  106  228 1    
   212  106  229 1    
   213  107  108 2    
   214  107  109 am   BACKBONE|DICT|INTERRES
   215  109  110 1    
   216  109  230 1    
   217  110  111 1    
   218  110  112 1    
   219  110  231 1    
   220  111  232 1    
   221  111  233 1    
   222  111  234 1    
   223  112  113 2    
   224  112  114 am   BACKBONE|DICT|INTERRES
   225  114  115 1    
   226  114  235 1    
   227  115  116 1    
   228  115  117 1    
   229  115  236 1    
   230  116  237 1    
   231  116  238 1    
   232  116  239 1    
   233  117  118 2    
   234  117  119 am   BACKBONE|DICT|INTERRES
   235  119  120 1    
   236  119  240 1    
   237  120  121 1    
   238  120  124 1    
   239  120  241 1    
   240  121  122 am   BACKBONE|DICT|INTERRES
   241  121  123 2    
   242  122  242 1    
   243  122  243 1    
   244  124  125 1    
   245  124  244 1    
   246  124  245 1    
   247  125  126 1    
   248  126  246 1    
   249  126  247 1    
@<TRIPOS>SUBSTRUCTURE
     1 UNK         1 GROUP             0       ****    0 ROOT    
