@<TRIPOS>MOLECULE
3R540
247   249    1
SMALL
USER_CHARGES


@<TRIPOS>ATOM
      1 CA          0.1558   -9.4997  -46.9740 C.3       0 UNK        -0.1800 
      2 C          -0.0190  -10.9151  -46.4449 C.2       0 UNK         0.5000 
      3 O           0.7315  -11.3358  -45.5648 O.2       0 UNK        -0.5000 
      4 N          -1.0196  -11.6450  -46.9565 N.am      1 UNK        -0.5000 
      5 CA         -1.3257  -13.0358  -46.5907 C.3       1 UNK         0.1400 
      6 C6         -2.4170  -13.6365  -47.5157 C.3       23 UNK        -0.0398 
      7 S7         -2.2602  -15.4401  -47.7556 S.3       23 UNK        -0.2404 
      8 C8         -1.4646  -15.5078  -49.3941 C.3       23 UNK        -0.0205 
      9 C9         -1.4025  -16.9252  -49.9475 C.ar      23 UNK        -0.0193 
     10 C10        -2.5409  -17.4907  -50.5255 C.ar      23 UNK        -0.1150 
     11 C11        -2.5067  -18.7709  -51.0841 C.ar      23 UNK        -0.0193 
     12 C12        -1.3028  -19.4904  -51.0562 C.ar      23 UNK        -0.1150 
     13 C13        -0.1477  -18.9338  -50.4948 C.ar      23 UNK        -0.0193 
     14 C14        -0.2085  -17.6528  -49.9338 C.ar      23 UNK        -0.1150 
     15 C15         1.1881  -19.6695  -50.5738 C.3       23 UNK        -0.0205 
     16 S16         1.1475  -21.3810  -49.9405 S.3       23 UNK        -0.2404 
     17 C17         1.1017  -21.1092  -48.1339 C.3       23 UNK        -0.0398 
     18 CA          0.0888  -21.9796  -47.3414 C.3       11 UNK         0.1400 
     19 N           0.0803  -21.6235  -45.9178 N.am      11 UNK        -0.5000 
     20 C          -0.6110  -22.2509  -44.9536 C.2       10 UNK         0.5000 
     21 O          -1.2719  -23.2720  -45.1372 O.2       10 UNK        -0.5000 
     22 CA         -0.6286  -21.5837  -43.5641 C.3       10 UNK         0.1400 
     23 CB          0.6915  -21.8109  -42.8121 C.3       10 UNK        -0.1800 
     24 N          -0.9082  -20.1506  -43.6505 N.am      10 UNK        -0.5000 
     25 C          -2.0466  -19.6260  -44.1285 C.2       9 UNK         0.5000 
     26 O          -3.0333  -20.2966  -44.4301 O.2       9 UNK        -0.5000 
     27 CA         -2.0633  -18.1050  -44.3699 C.3       9 UNK         0.1400 
     28 CB         -2.6453  -17.3555  -43.1629 C.3       9 UNK        -0.1800 
     29 N          -0.7351  -17.5899  -44.7247 N.am      9 UNK        -0.5000 
     30 C          -0.1530  -17.8553  -45.9025 C.2       8 UNK         0.5000 
     31 O          -0.6875  -18.5380  -46.7733 O.2       8 UNK        -0.5000 
     32 CA          1.2728  -17.3312  -46.1339 C.3       8 UNK         0.1400 
     33 CB          1.2957  -15.8207  -46.3896 C.3       8 UNK        -0.1800 
     34 N           2.1842  -17.6473  -45.0382 N.am      8 UNK        -0.5000 
     35 C           2.6987  -18.8629  -44.8180 C.2       7 UNK         0.5000 
     36 O           2.3298  -19.8718  -45.4164 O.2       7 UNK        -0.5000 
     37 CA          3.8165  -18.9726  -43.7715 C.3       7 UNK         0.1400 
     38 CB          5.1187  -18.3507  -44.3012 C.3       7 UNK        -0.1800 
     39 N           3.4362  -18.3074  -42.5296 N.am      7 UNK        -0.5000 
     40 C           3.3341  -18.9116  -41.3384 C.2       6 UNK         0.5000 
     41 O           3.6188  -20.0936  -41.1411 O.2       6 UNK        -0.5000 
     42 CA          2.8171  -18.0611  -40.1583 C.3       6 UNK         0.1400 
     43 CB          3.9913  -17.5678  -39.2991 C.3       6 UNK        -0.1800 
     44 N           2.0061  -16.9075  -40.5557 N.am      6 UNK        -0.5000 
     45 C           0.8600  -16.9720  -41.2455 C.2       5 UNK         0.5000 
     46 O           0.3428  -18.0251  -41.6183 O.2       5 UNK        -0.5000 
     47 CA          0.2059  -15.6345  -41.6366 C.3       5 UNK         0.1400 
     48 CB         -0.8204  -15.2139  -40.5755 C.3       5 UNK        -0.1800 
     49 N           1.1246  -14.5206  -41.8968 N.am      5 UNK        -0.5000 
     50 C           2.1719  -14.5233  -42.7358 C.2       4 UNK         0.5000 
     51 O           2.6016  -15.5431  -43.2786 O.2       4 UNK        -0.5000 
     52 CA          2.8373  -13.1638  -43.0332 C.3       4 UNK         0.1400 
     53 CB          3.5401  -13.1556  -44.4025 C.3       4 UNK        -0.1800 
     54 N           1.8660  -12.0697  -43.0074 N.am      4 UNK        -0.5000 
     55 C           1.5833  -11.3003  -41.9493 C.2       3 UNK         0.5000 
     56 O           2.1196  -11.4253  -40.8486 O.2       3 UNK        -0.5000 
     57 CA          0.4768  -10.2520  -42.1474 C.3       3 UNK         0.1400 
     58 CB          1.0014   -9.0343  -42.9249 C.3       3 UNK        -0.1800 
     59 N          -0.6746  -10.8272  -42.8453 N.am      3 UNK        -0.5000 
     60 C          -1.6320  -11.5501  -42.2471 C.2       2 UNK         0.5000 
     61 O          -1.6569  -11.7661  -41.0356 O.2       2 UNK        -0.5000 
     62 CA         -2.7597  -12.1189  -43.1316 C.3       2 UNK         0.1400 
     63 CB         -4.0277  -11.2618  -42.9957 C.3       2 UNK        -0.1800 
     64 N          -2.3963  -12.1982  -44.5469 N.am      2 UNK        -0.5000 
     65 C          -1.6842  -13.1932  -45.0945 C.2       1 UNK         0.5000 
     66 O          -1.2802  -14.1692  -44.4640 O.2       1 UNK        -0.5000 
     67 C          -1.3342  -21.9477  -47.9372 C.2       11 UNK         0.5000 
     68 O          -1.7370  -22.9142  -48.5823 O.2       11 UNK        -0.5000 
     69 N          -2.0857  -20.8721  -47.6637 N.am      12 UNK        -0.5000 
     70 CA         -3.4638  -20.6959  -48.1164 C.3       12 UNK         0.1400 
     71 CB         -3.9716  -19.3011  -47.7228 C.3       12 UNK        -0.1800 
     72 C          -4.4194  -21.7888  -47.6071 C.2       12 UNK         0.5000 
     73 O          -5.2282  -22.2902  -48.3887 O.2       12 UNK        -0.5000 
     74 N          -4.2913  -22.1532  -46.3242 N.am      13 UNK        -0.5000 
     75 CA         -5.0729  -23.2041  -45.6738 C.3       13 UNK         0.1400 
     76 CB         -4.9037  -23.0914  -44.1510 C.3       13 UNK        -0.1800 
     77 C          -4.7035  -24.6192  -46.1565 C.2       13 UNK         0.5000 
     78 O          -5.5970  -25.4392  -46.3698 O.2       13 UNK        -0.5000 
     79 N          -3.4004  -24.8825  -46.3228 N.am      14 UNK        -0.5000 
     80 CA         -2.8564  -26.1746  -46.7531 C.3       14 UNK         0.1400 
     81 CB         -1.3880  -26.2605  -46.3062 C.3       14 UNK        -0.1800 
     82 C          -2.9605  -26.4234  -48.2712 C.2       14 UNK         0.5000 
     83 O          -2.6391  -27.5239  -48.7223 O.2       14 UNK        -0.5000 
     84 N          -3.3447  -25.3926  -49.0343 N.am      15 UNK        -0.5000 
     85 CA         -3.3380  -25.2648  -50.4948 C.3       15 UNK         0.1400 
     86 CB         -4.1371  -26.3739  -51.2041 C.3       15 UNK        -0.1800 
     87 C          -1.9158  -25.1089  -51.0619 C.2       15 UNK         0.5000 
     88 O          -1.6565  -24.1355  -51.7710 O.2       15 UNK        -0.5000 
     89 N          -1.0292  -26.0444  -50.6900 N.am      16 UNK        -0.5000 
     90 CA          0.4272  -26.0418  -50.8389 C.3       16 UNK         0.1400 
     91 CB          1.0472  -25.2092  -49.6979 C.3       16 UNK        -0.1800 
     92 C           0.9181  -25.6310  -52.2427 C.2       16 UNK         0.5000 
     93 O           0.8962  -26.4590  -53.1546 O.2       16 UNK        -0.5000 
     94 N           1.3601  -24.3740  -52.3865 N.am      17 UNK        -0.5000 
     95 CA          1.8927  -23.8050  -53.6242 C.3       17 UNK         0.1400 
     96 CB          2.5987  -22.4806  -53.2952 C.3       17 UNK        -0.1800 
     97 C           0.8346  -23.5794  -54.7214 C.2       17 UNK         0.5000 
     98 O           1.2095  -23.5028  -55.8923 O.2       17 UNK        -0.5000 
     99 N          -0.4463  -23.4627  -54.3326 N.am      18 UNK        -0.5000 
    100 CA        -1.6064  -23.1901  -55.1896 C.3       18 UNK         0.1400 
    101 CB        -1.9280  -24.4130  -56.0722 C.3       18 UNK        -0.1800 
    102 C         -1.4517  -21.8791  -55.9922 C.2       18 UNK         0.5000 
    103 O         -1.6344  -21.8614  -57.2110 O.2       18 UNK        -0.5000 
    104 N         -1.0841  -20.8049  -55.2790 N.am      19 UNK        -0.5000 
    105 CA        -0.8501  -19.4607  -55.8163 C.3       19 UNK         0.1400 
    106 CB        -0.2344  -18.5930  -54.7070 C.3       19 UNK        -0.1800 
    107 C         -2.1143  -18.7841  -56.3874 C.2       19 UNK         0.5000 
    108 O         -2.0037  -17.9204  -57.2587 O.2       19 UNK        -0.5000 
    109 N         -3.2834  -19.1946  -55.8905 N.am      20 UNK        -0.5000 
    110 CA        -4.6132  -18.7809  -56.3183 C.3       20 UNK         0.1400 
    111 CB        -5.0035  -17.4676  -55.6081 C.3       20 UNK        -0.1800 
    112 C         -5.5761  -19.9502  -56.0390 C.2       20 UNK         0.5000 
    113 O         -5.1515  -21.1091  -56.0699 O.2       20 UNK        -0.5000 
    114 N         -6.8424  -19.6495  -55.7236 N.am      21 UNK        -0.5000 
    115 CA        -7.8632  -20.6108  -55.2911 C.3       21 UNK         0.1400 
    116 CB        -9.2539  -20.0064  -55.5571 C.3       21 UNK        -0.1800 
    117 C         -7.6642  -21.0291  -53.8152 C.2       21 UNK         0.5000 
    118 O         -8.5571  -20.8452  -52.9854 O.2       21 UNK        -0.5000 
    119 N         -6.4674  -21.5392  -53.5123 N.am      22 UNK        -0.5000 
    120 CA        -6.0125  -21.9602  -52.1808 C.3       22 UNK         0.1400 
    121 C         -6.6773  -23.2858  -51.7064 C.2       22 UNK         0.5000 
    122 N         -6.6362  -23.5889  -50.4169 N.am      22 UNK        -0.7600 
    123 O         -7.2028  -24.0669  -52.4972 O.2       22 UNK        -0.5000 
    124 C124       -4.4626  -22.0535  -52.1087 C.3       23 UNK        -0.0398 
    125 S125       -3.5711  -20.6708  -52.8994 S.3       23 UNK        -0.2404 
    126 C126       -3.7956  -19.3187  -51.6989 C.3       23 UNK        -0.0205 
    127 H127       -0.5619   -9.2691  -47.7615 H         1 UNK         0.0600 
    128 H128        1.1593   -9.3744  -47.3804 H         1 UNK         0.0600 
    129 H129        0.0213   -8.7789  -46.1676 H         1 UNK         0.0600 
    130 H130       -1.6067  -11.2361  -47.6697 H         1 UNK         0.3000 
    131 H131       -0.3992  -13.5855  -46.7552 H         1 UNK         0.0600 
    132 H132       -2.3760  -13.1663  -48.4990 H         1 UNK         0.0800 
    133 H133       -3.4187  -13.4192  -47.1404 H         1 UNK         0.0800 
    134 H134       -2.0215  -14.8832  -50.0941 H         1 UNK         0.0800 
    135 H135       -0.4645  -15.0774  -49.3303 H         1 UNK         0.0800 
    136 H136       -3.4618  -16.9247  -50.5402 H         1 UNK         0.1150 
    137 H137       -1.2476  -20.4813  -51.4823 H         1 UNK         0.1150 
    138 H138        0.6799  -17.2096  -49.5074 H         1 UNK         0.1150 
    139 H139        1.4941  -19.6965  -51.6199 H         1 UNK         0.0800 
    140 H140        1.9683  -19.1182  -50.0465 H         1 UNK         0.0800 
    141 H141        0.9075  -20.0542  -47.9535 H         1 UNK         0.0800 
    142 H142        2.1070  -21.2895  -47.7516 H         1 UNK         0.0800 
    143 H143        0.4310  -23.0146  -47.4018 H         1 UNK         0.0600 
    144 H144        0.6406  -20.8151  -45.6663 H         1 UNK         0.3000 
    145 H145       -1.4314  -22.0443  -42.9844 H         1 UNK         0.0600 
    146 H146        0.6541  -21.3802  -41.8111 H         1 UNK         0.0600 
    147 H147        0.8969  -22.8762  -42.7010 H         1 UNK         0.0600 
    148 H148        1.5400  -21.3671  -43.3317 H         1 UNK         0.0600 
    149 H149       -0.1689  -19.5177  -43.3760 H         1 UNK         0.3000 
    150 H150       -2.7261  -17.9124  -45.2158 H         1 UNK         0.0600 
    151 H151       -3.6834  -17.6464  -42.9984 H         1 UNK         0.0600 
    152 H152       -2.6351  -16.2770  -43.3200 H         1 UNK         0.0600 
    153 H153       -2.1050  -17.5750  -42.2441 H         1 UNK         0.0600 
    154 H154       -0.2440  -17.0375  -44.0399 H         1 UNK         0.3000 
    155 H155        1.6544  -17.8153  -47.0357 H         1 UNK         0.0600 
    156 H156        0.9080  -15.2612  -45.5389 H         1 UNK         0.0600 
    157 H157        0.6938  -15.5721  -47.2617 H         1 UNK         0.0600 
    158 H158        2.3084  -15.4694  -46.5870 H         1 UNK         0.0600 
    159 H159        2.4913  -16.8609  -44.4695 H         1 UNK         0.3000 
    160 H160        3.9956  -20.0366  -43.6036 H         1 UNK         0.0600 
    161 H161        5.0152  -17.2785  -44.4734 H         1 UNK         0.0600 
    162 H162        5.4162  -18.8099  -45.2448 H         1 UNK         0.0600 
    163 H163        5.9368  -18.4972  -43.5959 H         1 UNK         0.0600 
    164 H164        3.1600  -17.3338  -42.6041 H         1 UNK         0.3000 
    165 H165        2.1892  -18.7091  -39.5433 H         1 UNK         0.0600 
    166 H166        3.6385  -17.0420  -38.4117 H         1 UNK         0.0600 
    167 H167        4.6044  -18.4029  -38.9575 H         1 UNK         0.0600 
    168 H168        4.6399  -16.8910  -39.8568 H         1 UNK         0.0600 
    169 H169        2.3647  -15.9958  -40.3126 H         1 UNK         0.3000 
    170 H170       -0.3299  -15.8082  -42.5683 H         1 UNK         0.0600 
    171 H171       -1.4825  -16.0406  -40.3142 H         1 UNK         0.0600 
    172 H172       -0.3368  -14.8775  -39.6577 H         1 UNK         0.0600 
    173 H173       -1.4522  -14.4064  -40.9414 H         1 UNK         0.0600 
    174 H174        0.8671  -13.6339  -41.4883 H         1 UNK         0.3000 
    175 H175        3.5970  -13.0042  -42.2658 H         1 UNK         0.0600 
    176 H176        2.8364  -13.3446  -45.2141 H         1 UNK         0.0600 
    177 H177        4.0170  -12.1941  -44.5934 H         1 UNK         0.0600 
    178 H178        4.3186  -13.9178  -44.4544 H         1 UNK         0.0600 
    179 H179        1.3768  -11.8913  -43.8818 H         1 UNK         0.3000 
    180 H180        0.1597   -9.9045  -41.1616 H         1 UNK         0.0600 
    181 H181        1.3677   -9.3067  -43.9148 H         1 UNK         0.0600 
    182 H182        1.8267   -8.5610  -42.3917 H         1 UNK         0.0600 
    183 H183        0.2226   -8.2821  -43.0512 H         1 UNK         0.0600 
    184 H184       -0.6844  -10.7437  -43.8515 H         1 UNK         0.3000 
    185 H185       -2.9887  -13.1227  -42.7668 H         1 UNK         0.0600 
    186 H186       -4.3506  -11.2034  -41.9554 H         1 UNK         0.0600 
    187 H187       -3.8648  -10.2420  -43.3466 H         1 UNK         0.0600 
    188 H188       -4.8536  -11.6864  -43.5669 H         1 UNK         0.0600 
    189 H189       -2.6801  -11.4267  -45.1333 H         1 UNK         0.3000 
    190 H190       -1.6559  -20.0861  -47.1812 H         1 UNK         0.3000 
    191 H191       -3.4404  -20.7615  -49.2030 H         1 UNK         0.0600 
    192 H192       -3.2659  -18.5233  -48.0129 H         1 UNK         0.0600 
    193 H193       -4.9207  -19.0821  -48.2127 H         1 UNK         0.0600 
    194 H194       -4.1325  -19.2176  -46.6487 H         1 UNK         0.0600 
    195 H195       -3.6301  -21.6497  -45.7398 H         1 UNK         0.3000 
    196 H196       -6.1259  -23.0372  -45.9102 H         1 UNK         0.0600 
    197 H197       -5.4847  -23.8561  -43.6339 H         1 UNK         0.0600 
    198 H198       -5.2453  -22.1217  -43.7882 H         1 UNK         0.0600 
    199 H199       -3.8613  -23.2100  -43.8523 H         1 UNK         0.0600 
    200 H200       -2.7192  -24.1655  -46.0858 H         1 UNK         0.3000 
    201 H201       -3.4107  -26.9721  -46.2542 H         1 UNK         0.0600 
    202 H202       -0.9502  -27.2250  -46.5661 H         1 UNK         0.0600 
    203 H203       -1.2969  -26.1442  -45.2261 H         1 UNK         0.0600 
    204 H204       -0.7822  -25.4859  -46.7786 H         1 UNK         0.0600 
    205 H205       -3.4819  -24.5164  -48.5466 H         1 UNK         0.3000 
    206 H206       -3.8570  -24.3299  -50.6837 H         1 UNK         0.0600 
    207 H207       -5.1458  -26.4515  -50.7983 H         1 UNK         0.0600 
    208 H208       -4.2321  -26.1558  -52.2684 H         1 UNK         0.0600 
    209 H209       -3.6615  -27.3505  -51.1158 H         1 UNK         0.0600 
    210 H210       -1.4013  -26.7979  -50.1210 H         1 UNK         0.3000 
    211 H211        0.7520  -27.0738  -50.6989 H         1 UNK         0.0600 
    212 H212        0.6338  -24.2025  -49.6651 H         1 UNK         0.0600 
    213 H213        2.1303  -25.1293  -49.7996 H         1 UNK         0.0600 
    214 H214        0.8491  -25.6711  -48.7308 H         1 UNK         0.0600 
    215 H215        1.3007  -23.7516  -51.5929 H         1 UNK         0.3000 
    216 H216        2.6363  -24.4991  -54.0214 H         1 UNK         0.0600 
    217 H217        3.0812  -22.0647  -54.1806 H         1 UNK         0.0600 
    218 H218        3.3711  -22.6178  -52.5382 H         1 UNK         0.0600 
    219 H219        1.8942  -21.7344  -52.9274 H         1 UNK         0.0600 
    220 H220       -0.6600  -23.5828  -53.3451 H         1 UNK         0.3000 
    221 H221       -2.4544  -23.0422  -54.5202 H         1 UNK         0.0600 
    222 H222       -1.1362  -24.6128  -56.7946 H         1 UNK         0.0600 
    223 H223       -2.0633  -25.3090  -55.4663 H         1 UNK         0.0600 
    224 H224       -2.8510  -24.2566  -56.6318 H         1 UNK         0.0600 
    225 H225       -0.9582  -20.9163  -54.2836 H         1 UNK         0.3000 
    226 H226       -0.1265  -19.5470  -56.6294 H         1 UNK         0.0600 
    227 H227        0.6934  -19.0262  -54.3327 H         1 UNK         0.0600 
    228 H228       -0.0005  -17.5939  -55.0765 H         1 UNK         0.0600 
    229 H229       -0.9159  -18.4783  -53.8628 H         1 UNK         0.0600 
    230 H230       -3.2752  -19.9451  -55.2112 H         1 UNK         0.3000 
    231 H231       -4.6089  -18.6187  -57.3978 H         1 UNK         0.0600 
    232 H232       -5.0958  -17.6067  -54.5302 H         1 UNK         0.0600 
    233 H233       -5.9514  -17.0780  -55.9803 H         1 UNK         0.0600 
    234 H234       -4.2566  -16.6919  -55.7774 H         1 UNK         0.0600 
    235 H235       -7.1069  -18.6761  -55.6818 H         1 UNK         0.3000 
    236 H236       -7.7757  -21.5158  -55.8962 H         1 UNK         0.0600 
    237 H237       -9.3847  -19.7687  -56.6129 H         1 UNK         0.0600 
    238 H238      -10.0439  -20.7072  -55.2839 H         1 UNK         0.0600 
    239 H239       -9.4123  -19.0914  -54.9849 H         1 UNK         0.0600 
    240 H240       -5.7970  -21.6392  -54.2666 H         1 UNK         0.3000 
    241 H241       -6.3301  -21.1847  -51.4814 H         1 UNK         0.0600 
    242 H242       -7.0653  -24.4470  -50.1111 H         1 UNK         0.3800 
    243 H243       -6.1779  -22.9971  -49.7243 H         1 UNK         0.3800 
    244 H244       -4.1310  -22.1225  -51.0725 H         1 UNK         0.0800 
    245 H245       -4.1211  -22.9642  -52.6031 H         1 UNK         0.0800 
    246 H246       -4.3062  -18.5106  -52.2246 H         1 UNK         0.0800 
    247 H247       -4.4713  -19.6258  -50.9016 H         1 UNK         0.0800 
@<TRIPOS>BOND
     1    1    2 1    
     2    1  127 1    
     3    1  128 1    
     4    1  129 1    
     5    2    3 2    
     6    2    4 am   BACKBONE|DICT|INTERRES
     7    4    5 1    
     8    4  130 1    
     9    5    6 1    
    10    5   65 1    
    11    5  131 1    
    12    6    7 1    
    13    6  132 1    
    14    6  133 1    
    15    7    8 1    
    16    8    9 1    
    17    8  134 1    
    18    8  135 1    
    19    9   10 ar   
    20    9   14 ar   
    21   10   11 ar   
    22   10  136 1    
    23   11   12 ar   
    24   11  126 1    
    25   12   13 ar   
    26   12  137 1    
    27   13   14 ar   
    28   13   15 1    
    29   14  138 1    
    30   15   16 1    
    31   15  139 1    
    32   15  140 1    
    33   16   17 1    
    34   17   18 1    
    35   17  141 1    
    36   17  142 1    
    37   18   19 1    
    38   18   67 1    
    39   18  143 1    
    40   19   20 am   BACKBONE|DICT|INTERRES
    41   19  144 1    
    42   20   21 2    
    43   20   22 1    
    44   22   23 1    
    45   22   24 1    
    46   22  145 1    
    47   23  146 1    
    48   23  147 1    
    49   23  148 1    
    50   24   25 am   BACKBONE|DICT|INTERRES
    51   24  149 1    
    52   25   26 2    
    53   25   27 1    
    54   27   28 1    
    55   27   29 1    
    56   27  150 1    
    57   28  151 1    
    58   28  152 1    
    59   28  153 1    
    60   29   30 am   BACKBONE|DICT|INTERRES
    61   29  154 1    
    62   30   31 2    
    63   30   32 1    
    64   32   33 1    
    65   32   34 1    
    66   32  155 1    
    67   33  156 1    
    68   33  157 1    
    69   33  158 1    
    70   34   35 am   BACKBONE|DICT|INTERRES
    71   34  159 1    
    72   35   36 2    
    73   35   37 1    
    74   37   38 1    
    75   37   39 1    
    76   37  160 1    
    77   38  161 1    
    78   38  162 1    
    79   38  163 1    
    80   39   40 am   BACKBONE|DICT|INTERRES
    81   39  164 1    
    82   40   41 2    
    83   40   42 1    
    84   42   43 1    
    85   42   44 1    
    86   42  165 1    
    87   43  166 1    
    88   43  167 1    
    89   43  168 1    
    90   44   45 am   BACKBONE|DICT|INTERRES
    91   44  169 1    
    92   45   46 2    
    93   45   47 1    
    94   47   48 1    
    95   47   49 1    
    96   47  170 1    
    97   48  171 1    
    98   48  172 1    
    99   48  173 1    
   100   49   50 am   BACKBONE|DICT|INTERRES
   101   49  174 1    
   102   50   51 2    
   103   50   52 1    
   104   52   53 1    
   105   52   54 1    
   106   52  175 1    
   107   53  176 1    
   108   53  177 1    
   109   53  178 1    
   110   54   55 am   BACKBONE|DICT|INTERRES
   111   54  179 1    
   112   55   56 2    
   113   55   57 1    
   114   57   58 1    
   115   57   59 1    
   116   57  180 1    
   117   58  181 1    
   118   58  182 1    
   119   58  183 1    
   120   59   60 am   BACKBONE|DICT|INTERRES
   121   59  184 1    
   122   60   61 2    
   123   60   62 1    
   124   62   63 1    
   125   62   64 1    
   126   62  185 1    
   127   63  186 1    
   128   63  187 1    
   129   63  188 1    
   130   64   65 am   BACKBONE|DICT|INTERRES
   131   64  189 1    
   132   65   66 2    
   133   67   68 2    
   134   67   69 am   BACKBONE|DICT|INTERRES
   135   69   70 1    
   136   69  190 1    
   137   70   71 1    
   138   70   72 1    
   139   70  191 1    
   140   71  192 1    
   141   71  193 1    
   142   71  194 1    
   143   72   73 2    
   144   72   74 am   BACKBONE|DICT|INTERRES
   145   74   75 1    
   146   74  195 1    
   147   75   76 1    
   148   75   77 1    
   149   75  196 1    
   150   76  197 1    
   151   76  198 1    
   152   76  199 1    
   153   77   78 2    
   154   77   79 am   BACKBONE|DICT|INTERRES
   155   79   80 1    
   156   79  200 1    
   157   80   81 1    
   158   80   82 1    
   159   80  201 1    
   160   81  202 1    
   161   81  203 1    
   162   81  204 1    
   163   82   83 2    
   164   82   84 am   BACKBONE|DICT|INTERRES
   165   84   85 1    
   166   84  205 1    
   167   85   86 1    
   168   85   87 1    
   169   85  206 1    
   170   86  207 1    
   171   86  208 1    
   172   86  209 1    
   173   87   88 2    
   174   87   89 am   BACKBONE|DICT|INTERRES
   175   89   90 1    
   176   89  210 1    
   177   90   91 1    
   178   90   92 1    
   179   90  211 1    
   180   91  212 1    
   181   91  213 1    
   182   91  214 1    
   183   92   93 2    
   184   92   94 am   BACKBONE|DICT|INTERRES
   185   94   95 1    
   186   94  215 1    
   187   95   96 1    
   188   95   97 1    
   189   95  216 1    
   190   96  217 1    
   191   96  218 1    
   192   96  219 1    
   193   97   98 2    
   194   97   99 am   BACKBONE|DICT|INTERRES
   195   99  100 1    
   196   99  220 1    
   197  100  101 1    
   198  100  102 1    
   199  100  221 1    
   200  101  222 1    
   201  101  223 1    
   202  101  224 1    
   203  102  103 2    
   204  102  104 am   BACKBONE|DICT|INTERRES
   205  104  105 1    
   206  104  225 1    
   207  105  106 1    
   208  105  107 1    
   209  105  226 1    
   210  106  227 1    
   211  106  228 1    
   212  106  229 1    
   213  107  108 2    
   214  107  109 am   BACKBONE|DICT|INTERRES
   215  109  110 1    
   216  109  230 1    
   217  110  111 1    
   218  110  112 1    
   219  110  231 1    
   220  111  232 1    
   221  111  233 1    
   222  111  234 1    
   223  112  113 2    
   224  112  114 am   BACKBONE|DICT|INTERRES
   225  114  115 1    
   226  114  235 1    
   227  115  116 1    
   228  115  117 1    
   229  115  236 1    
   230  116  237 1    
   231  116  238 1    
   232  116  239 1    
   233  117  118 2    
   234  117  119 am   BACKBONE|DICT|INTERRES
   235  119  120 1    
   236  119  240 1    
   237  120  121 1    
   238  120  124 1    
   239  120  241 1    
   240  121  122 am   BACKBONE|DICT|INTERRES
   241  121  123 2    
   242  122  242 1    
   243  122  243 1    
   244  124  125 1    
   245  124  244 1    
   246  124  245 1    
   247  125  126 1    
   248  126  246 1    
   249  126  247 1    
@<TRIPOS>SUBSTRUCTURE
     1 UNK         1 GROUP             0       ****    0 ROOT    
