@<TRIPOS>MOLECULE
3R540
247   249    1
SMALL
USER_CHARGES


@<TRIPOS>ATOM
      1 CA          0.5776  -13.4446  -49.6080 C.3       0 UNK        -0.1800 
      2 C          -0.4692  -12.4438  -49.1387 C.2       0 UNK         0.5000 
      3 O          -0.2438  -11.2371  -49.2269 O.2       0 UNK        -0.5000 
      4 N          -1.6072  -12.9502  -48.6437 N.am      1 UNK        -0.5000 
      5 CA         -2.7740  -12.1915  -48.1666 C.3       1 UNK         0.1400 
      6 C6         -3.4771  -11.3418  -49.2664 C.3       23 UNK        -0.0398 
      7 S7         -3.7950  -12.1847  -50.8555 S.3       23 UNK        -0.2404 
      8 C8         -4.9771  -13.4985  -50.3938 C.3       23 UNK        -0.0205 
      9 C9         -4.3434  -14.8256  -49.9713 C.ar      23 UNK        -0.0193 
     10 C10        -3.0696  -15.2178  -50.4040 C.ar      23 UNK        -0.1150 
     11 C11        -2.5299  -16.4490  -50.0255 C.ar      23 UNK        -0.0193 
     12 C12        -3.2887  -17.3154  -49.2354 C.ar      23 UNK        -0.1150 
     13 C13        -4.5772  -16.9580  -48.8251 C.ar      23 UNK        -0.0193 
     14 C14        -5.0874  -15.7058  -49.1798 C.ar      23 UNK        -0.1150 
     15 C15        -5.4587  -17.9580  -48.0900 C.3       23 UNK        -0.0205 
     16 S16        -5.2716  -17.9363  -46.2744 S.3       23 UNK        -0.2404 
     17 C17        -3.5483  -18.4687  -45.9886 C.3       23 UNK        -0.0398 
     18 CA         -3.1747  -19.8633  -46.5537 C.3       11 UNK         0.1400 
     19 N          -1.7335  -19.9524  -46.7975 N.am      11 UNK        -0.5000 
     20 C          -1.1549  -20.8951  -47.5497 C.2       10 UNK         0.5000 
     21 O          -1.7849  -21.7940  -48.1023 O.2       10 UNK        -0.5000 
     22 CA          0.3789  -20.8484  -47.6631 C.3       10 UNK         0.1400 
     23 CB          0.8256  -19.7412  -48.6287 C.3       10 UNK        -0.1800 
     24 N           1.0256  -20.6554  -46.3662 N.am      10 UNK        -0.5000 
     25 C           0.9866  -21.5434  -45.3625 C.2       9 UNK         0.5000 
     26 O           0.4599  -22.6527  -45.4473 O.2       9 UNK        -0.5000 
     27 CA          1.6088  -21.1056  -44.0250 C.3       9 UNK         0.1400 
     28 CB          3.1274  -21.3346  -44.0369 C.3       9 UNK        -0.1800 
     29 N           1.3179  -19.7103  -43.6867 N.am      9 UNK        -0.5000 
     30 C           0.0869  -19.2226  -43.4693 C.2       8 UNK         0.5000 
     31 O          -0.9350  -19.9042  -43.5147 O.2       8 UNK        -0.5000 
     32 CA         -0.0365  -17.7117  -43.2122 C.3       8 UNK         0.1400 
     33 CB          0.3845  -17.3562  -41.7785 C.3       8 UNK        -0.1800 
     34 N           0.7413  -16.9222  -44.1615 N.am      8 UNK        -0.5000 
     35 C           0.5458  -16.8960  -45.4859 C.2       7 UNK         0.5000 
     36 O          -0.3422  -17.5224  -46.0636 O.2       7 UNK        -0.5000 
     37 CA          1.5518  -16.0730  -46.3064 C.3       7 UNK         0.1400 
     38 CB          1.2205  -14.5742  -46.2460 C.3       7 UNK        -0.1800 
     39 N           2.9253  -16.2896  -45.8537 N.am      7 UNK        -0.5000 
     40 C           3.5998  -17.4385  -45.9984 C.2       6 UNK         0.5000 
     41 O           3.1431  -18.4371  -46.5557 O.2       6 UNK        -0.5000 
     42 CA          5.0117  -17.4849  -45.3861 C.3       6 UNK         0.1400 
     43 CB          6.0308  -16.8110  -46.3173 C.3       6 UNK        -0.1800 
     44 N           5.0759  -16.8624  -44.0618 N.am      6 UNK        -0.5000 
     45 C           4.4779  -17.3604  -42.9711 C.2       5 UNK         0.5000 
     46 O           3.8075  -18.3917  -42.9697 O.2       5 UNK        -0.5000 
     47 CA          4.6177  -16.5536  -41.6673 C.3       5 UNK         0.1400 
     48 CB          5.9690  -16.8433  -40.9964 C.3       5 UNK        -0.1800 
     49 N           4.4471  -15.1034  -41.8115 N.am      5 UNK        -0.5000 
     50 C           3.3916  -14.4997  -42.3733 C.2       4 UNK         0.5000 
     51 O           2.5148  -15.0917  -43.0032 O.2       4 UNK        -0.5000 
     52 CA          3.3043  -12.9705  -42.2205 C.3       4 UNK         0.1400 
     53 CB          3.9405  -12.2795  -43.4362 C.3       4 UNK        -0.1800 
     54 N           1.9182  -12.5150  -42.0937 N.am      4 UNK        -0.5000 
     55 C           1.0550  -12.8804  -41.1330 C.2       3 UNK         0.5000 
     56 O           1.3700  -13.5711  -40.1625 O.2       3 UNK        -0.5000 
     57 CA         -0.4010  -12.3805  -41.2574 C.3       3 UNK         0.1400 
     58 CB         -0.7713  -11.4804  -40.0668 C.3       3 UNK        -0.1800 
     59 N          -0.6604  -11.6415  -42.4964 N.am      3 UNK        -0.5000 
     60 C          -0.9064  -12.1965  -43.6891 C.2       2 UNK         0.5000 
     61 O          -0.9811  -13.4113  -43.8858 O.2       2 UNK        -0.5000 
     62 CA         -1.0546  -11.2126  -44.8569 C.3       2 UNK         0.1400 
     63 CB          0.3073  -10.5996  -45.2334 C.3       2 UNK        -0.1800 
     64 N          -1.6009  -11.8934  -46.0260 N.am      2 UNK        -0.5000 
     65 C          -2.4384  -11.3452  -46.9142 C.2       1 UNK         0.5000 
     66 O          -2.9135  -10.2147  -46.7846 O.2       1 UNK        -0.5000 
     67 C          -3.7171  -21.0388  -45.7050 C.2       11 UNK         0.5000 
     68 O          -4.8739  -21.4236  -45.8708 O.2       11 UNK        -0.5000 
     69 N          -2.8643  -21.6236  -44.8537 N.am      12 UNK        -0.5000 
     70 CA         -3.1574  -22.7926  -44.0234 C.3       12 UNK         0.1400 
     71 CB         -2.2598  -22.7436  -42.7752 C.3       12 UNK        -0.1800 
     72 C          -3.0039  -24.1476  -44.7502 C.2       12 UNK         0.5000 
     73 O          -3.2350  -25.1804  -44.1177 O.2       12 UNK        -0.5000 
     74 N          -2.6053  -24.1527  -46.0323 N.am      13 UNK        -0.5000 
     75 CA         -2.4423  -25.3632  -46.8471 C.3       13 UNK         0.1400 
     76 CB         -1.7437  -24.9925  -48.1641 C.3       13 UNK        -0.1800 
     77 C          -3.7720  -26.1036  -47.1158 C.2       13 UNK         0.5000 
     78 O          -4.8499  -25.5427  -46.9057 O.2       13 UNK        -0.5000 
     79 N          -3.6669  -27.3496  -47.6022 N.am      14 UNK        -0.5000 
     80 CA         -4.7595  -28.3204  -47.7755 C.3       14 UNK         0.1400 
     81 CB         -4.1873  -29.5998  -48.4053 C.3       14 UNK        -0.1800 
     82 C          -5.9822  -27.8343  -48.5824 C.2       14 UNK         0.5000 
     83 O          -7.1037  -28.2492  -48.2874 O.2       14 UNK        -0.5000 
     84 N          -5.7463  -26.9544  -49.5606 N.am      15 UNK        -0.5000 
     85 CA         -6.7714  -26.2388  -50.3234 C.3       15 UNK         0.1400 
     86 CB         -6.8988  -26.8452  -51.7337 C.3       15 UNK        -0.1800 
     87 C          -6.4519  -24.7329  -50.3521 C.2       15 UNK         0.5000 
     88 O          -6.7962  -24.0492  -51.3172 O.2       15 UNK        -0.5000 
     89 N          -5.7759  -24.2455  -49.3001 N.am      16 UNK        -0.5000 
     90 CA         -5.3142  -22.8721  -49.1024 C.3       16 UNK         0.1400 
     91 CB         -6.5220  -21.9665  -48.7761 C.3       16 UNK        -0.1800 
     92 C          -4.4467  -22.3869  -50.2835 C.2       16 UNK         0.5000 
     93 O          -3.5306  -23.1029  -50.6975 O.2       16 UNK        -0.5000 
     94 N          -4.7730  -21.2149  -50.8431 N.am      17 UNK        -0.5000 
     95 CA         -4.0734  -20.5967  -51.9694 C.3       17 UNK         0.1400 
     96 CB         -4.7116  -19.2332  -52.2722 C.3       17 UNK        -0.1800 
     97 C          -4.0220  -21.4610  -53.2445 C.2       17 UNK         0.5000 
     98 O          -3.0645  -21.3371  -54.0074 O.2       17 UNK        -0.5000 
     99 N          -5.0182  -22.3374  -53.4430 N.am      18 UNK        -0.5000 
    100 CA        -5.0737  -23.2689  -54.5710 C.3       18 UNK         0.1400 
    101 CB        -6.5106  -23.7829  -54.7466 C.3       18 UNK        -0.1800 
    102 C         -4.0888  -24.4452  -54.4289 C.2       18 UNK         0.5000 
    103 O         -3.6374  -24.9706  -55.4470 O.2       18 UNK        -0.5000 
    104 N         -3.7606  -24.8308  -53.1870 N.am      19 UNK        -0.5000 
    105 CA        -2.7449  -25.8432  -52.8928 C.3       19 UNK         0.1400 
    106 CB        -3.0357  -26.5169  -51.5420 C.3       19 UNK        -0.1800 
    107 C         -1.3369  -25.2326  -52.8966 C.2       19 UNK         0.5000 
    108 O         -0.4140  -25.8346  -53.4465 O.2       19 UNK        -0.5000 
    109 N         -1.1998  -24.0504  -52.2815 N.am      20 UNK        -0.5000 
    110 CA         0.0692  -23.3347  -52.1612 C.3       20 UNK         0.1400 
    111 CB        -0.0742  -22.2497  -51.0885 C.3       20 UNK        -0.1800 
    112 C          0.5634  -22.7194  -53.4830 C.2       20 UNK         0.5000 
    113 O          1.7743  -22.5852  -53.6623 O.2       20 UNK        -0.5000 
    114 N         -0.3763  -22.3408  -54.3642 N.am      21 UNK        -0.5000 
    115 CA        -0.1704  -21.6236  -55.6291 C.3       21 UNK         0.1400 
    116 CB         0.5925  -22.4990  -56.6449 C.3       21 UNK        -0.1800 
    117 C          0.4687  -20.2333  -55.4153 C.2       21 UNK         0.5000 
    118 O          1.2986  -19.7964  -56.2148 O.2       21 UNK        -0.5000 
    119 N          0.0802  -19.5767  -54.3151 N.am      22 UNK        -0.5000 
    120 CA         0.6301  -18.2964  -53.8441 C.3       22 UNK         0.1400 
    121 C          0.0776  -17.0291  -54.5625 C.2       22 UNK         0.5000 
    122 N         -0.9135  -17.1385  -55.4390 N.am      22 UNK        -0.7600 
    123 O          0.5704  -15.9282  -54.3321 O.2       22 UNK        -0.5000 
    124 C124        0.5432  -18.1924  -52.2991 C.3       23 UNK        -0.0398 
    125 S125       -1.1694  -18.2243  -51.6604 S.3       23 UNK        -0.2404 
    126 C126       -1.1325  -16.8408  -50.4813 C.3       23 UNK        -0.0205 
    127 H127        0.5980  -13.4817  -50.6971 H         1 UNK         0.0600 
    128 H128        0.3737  -14.4479  -49.2340 H         1 UNK         0.0600 
    129 H129        1.5665  -13.1491  -49.2576 H         1 UNK         0.0600 
    130 H130       -1.7257  -13.9529  -48.6272 H         1 UNK         0.3000 
    131 H131       -3.4921  -12.9395  -47.8281 H         1 UNK         0.0600 
    132 H132       -4.4300  -10.9619  -48.8940 H         1 UNK         0.0800 
    133 H133       -2.8769  -10.4600  -49.4968 H         1 UNK         0.0800 
    134 H134       -5.6146  -13.6957  -51.2564 H         1 UNK         0.0800 
    135 H135       -5.6344  -13.1257  -49.6069 H         1 UNK         0.0800 
    136 H136       -2.4892  -14.5679  -51.0426 H         1 UNK         0.1150 
    137 H137       -2.8837  -18.2829  -48.9779 H         1 UNK         0.1150 
    138 H138       -6.0868  -15.4319  -48.8713 H         1 UNK         0.1150 
    139 H139       -6.5053  -17.7498  -48.3175 H         1 UNK         0.0800 
    140 H140       -5.2798  -18.9542  -48.4853 H         1 UNK         0.0800 
    141 H141       -3.3365  -18.4207  -44.9190 H         1 UNK         0.0800 
    142 H142       -2.9192  -17.7007  -46.4388 H         1 UNK         0.0800 
    143 H143       -3.6361  -19.9772  -47.5328 H         1 UNK         0.0600 
    144 H144       -1.1557  -19.2189  -46.3938 H         1 UNK         0.3000 
    145 H145        0.7100  -21.8072  -48.0667 H         1 UNK         0.0600 
    146 H146        0.6356  -18.7488  -48.2220 H         1 UNK         0.0600 
    147 H147        1.8917  -19.8133  -48.8438 H         1 UNK         0.0600 
    148 H148        0.2940  -19.8106  -49.5765 H         1 UNK         0.0600 
    149 H149        1.5186  -19.7802  -46.2285 H         1 UNK         0.3000 
    150 H150        1.1786  -21.7322  -43.2410 H         1 UNK         0.0600 
    151 H151        3.3666  -22.3665  -44.2969 H         1 UNK         0.0600 
    152 H152        3.5623  -21.1386  -43.0568 H         1 UNK         0.0600 
    153 H153        3.6257  -20.6880  -44.7603 H         1 UNK         0.0600 
    154 H154        2.1193  -19.0920  -43.5941 H         1 UNK         0.3000 
    155 H155       -1.0858  -17.4365  -43.3366 H         1 UNK         0.0600 
    156 H156       -0.2029  -17.9145  -41.0486 H         1 UNK         0.0600 
    157 H157        1.4357  -17.5830  -41.5994 H         1 UNK         0.0600 
    158 H158        0.2345  -16.2952  -41.5765 H         1 UNK         0.0600 
    159 H159        1.4756  -16.3349  -43.7690 H         1 UNK         0.3000 
    160 H160        1.4789  -16.3963  -47.3470 H         1 UNK         0.0600 
    161 H161        1.8881  -13.9954  -46.8837 H         1 UNK         0.0600 
    162 H162        0.2005  -14.3889  -46.5825 H         1 UNK         0.0600 
    163 H163        1.3059  -14.1814  -45.2327 H         1 UNK         0.0600 
    164 H164        3.3455  -15.5485  -45.3123 H         1 UNK         0.3000 
    165 H165        5.2916  -18.5353  -45.2809 H         1 UNK         0.0600 
    166 H166        7.0452  -16.9145  -45.9317 H         1 UNK         0.0600 
    167 H167        6.0131  -17.2659  -47.3086 H         1 UNK         0.0600 
    168 H168        5.8249  -15.7470  -46.4404 H         1 UNK         0.0600 
    169 H169        5.5968  -16.0019  -43.9791 H         1 UNK         0.3000 
    170 H170        3.8302  -16.8980  -40.9941 H         1 UNK         0.0600 
    171 H171        6.1169  -17.9158  -40.8616 H         1 UNK         0.0600 
    172 H172        6.8030  -16.4691  -41.5913 H         1 UNK         0.0600 
    173 H173        6.0269  -16.3835  -40.0097 H         1 UNK         0.0600 
    174 H174        5.1329  -14.5315  -41.3401 H         1 UNK         0.3000 
    175 H175        3.8412  -12.6724  -41.3179 H         1 UNK         0.0600 
    176 H176        3.4222  -12.5360  -44.3615 H         1 UNK         0.0600 
    177 H177        3.9197  -11.1947  -43.3300 H         1 UNK         0.0600 
    178 H178        4.9845  -12.5732  -43.5524 H         1 UNK         0.0600 
    179 H179        1.5591  -11.9617  -42.8551 H         1 UNK         0.3000 
    180 H180       -1.0461  -13.2614  -41.2309 H         1 UNK         0.0600 
    181 H181       -0.1496  -10.5850  -40.0307 H         1 UNK         0.0600 
    182 H182       -0.6427  -12.0074  -39.1204 H         1 UNK         0.0600 
    183 H183       -1.8134  -11.1648  -40.1199 H         1 UNK         0.0600 
    184 H184       -0.6149  -10.6346  -42.4268 H         1 UNK         0.3000 
    185 H185       -1.7328  -10.4198  -44.5341 H         1 UNK         0.0600 
    186 H186        0.2064   -9.8987  -46.0625 H         1 UNK         0.0600 
    187 H187        0.7428  -10.0490  -44.3991 H         1 UNK         0.0600 
    188 H188        1.0229  -11.3663  -45.5339 H         1 UNK         0.0600 
    189 H189       -1.3035  -12.8522  -46.1414 H         1 UNK         0.3000 
    190 H190       -1.9486  -21.2059  -44.7264 H         1 UNK         0.3000 
    191 H191       -4.1949  -22.7304  -43.6889 H         1 UNK         0.0600 
    192 H192       -1.2034  -22.7950  -43.0407 H         1 UNK         0.0600 
    193 H193       -2.4707  -23.5742  -42.1007 H         1 UNK         0.0600 
    194 H194       -2.4198  -21.8247  -42.2110 H         1 UNK         0.0600 
    195 H195       -2.4229  -23.2698  -46.4920 H         1 UNK         0.3000 
    196 H196       -1.7903  -26.0435  -46.2955 H         1 UNK         0.0600 
    197 H197       -1.5185  -25.8760  -48.7618 H         1 UNK         0.0600 
    198 H198       -0.7993  -24.4799  -47.9793 H         1 UNK         0.0600 
    199 H199       -2.3641  -24.3357  -48.7709 H         1 UNK         0.0600 
    200 H200       -2.7398  -27.7149  -47.7657 H         1 UNK         0.3000 
    201 H201       -5.1206  -28.5687  -46.7755 H         1 UNK         0.0600 
    202 H202       -3.4082  -30.0354  -47.7795 H         1 UNK         0.0600 
    203 H203       -3.7594  -29.4055  -49.3898 H         1 UNK         0.0600 
    204 H204       -4.9625  -30.3576  -48.5283 H         1 UNK         0.0600 
    205 H205       -4.7917  -26.6690  -49.7221 H         1 UNK         0.3000 
    206 H206       -7.7389  -26.3309  -49.8260 H         1 UNK         0.0600 
    207 H207       -7.0527  -27.9233  -51.6887 H         1 UNK         0.0600 
    208 H208       -7.7517  -26.4187  -52.2628 H         1 UNK         0.0600 
    209 H209       -6.0150  -26.6550  -52.3418 H         1 UNK         0.0600 
    210 H210       -5.5547  -24.8760  -48.5340 H         1 UNK         0.3000 
    211 H211       -4.6582  -22.8891  -48.2312 H         1 UNK         0.0600 
    212 H212       -7.2012  -21.8595  -49.6227 H         1 UNK         0.0600 
    213 H213       -6.2013  -20.9739  -48.4681 H         1 UNK         0.0600 
    214 H214       -7.0959  -22.3765  -47.9449 H         1 UNK         0.0600 
    215 H215       -5.5697  -20.7142  -50.4797 H         1 UNK         0.3000 
    216 H216       -3.0435  -20.4336  -51.6509 H         1 UNK         0.0600 
    217 H217       -4.1788  -18.7239  -53.0766 H         1 UNK         0.0600 
    218 H218       -4.6791  -18.5777  -51.4028 H         1 UNK         0.0600 
    219 H219       -5.7533  -19.3347  -52.5786 H         1 UNK         0.0600 
    220 H220       -5.7478  -22.4218  -52.7469 H         1 UNK         0.3000 
    221 H221       -4.8032  -22.7219  -55.4769 H         1 UNK         0.0600 
    222 H222       -6.8315  -24.3891  -53.8999 H         1 UNK         0.0600 
    223 H223       -7.2156  -22.9591  -54.8579 H         1 UNK         0.0600 
    224 H224       -6.5933  -24.4042  -55.6392 H         1 UNK         0.0600 
    225 H225       -4.1248  -24.3048  -52.4022 H         1 UNK         0.3000 
    226 H226       -2.7699  -26.6198  -53.6606 H         1 UNK         0.0600 
    227 H227       -3.9015  -27.1718  -51.6157 H         1 UNK         0.0600 
    228 H228       -2.1987  -27.1406  -51.2249 H         1 UNK         0.0600 
    229 H229       -3.2168  -25.7866  -50.7538 H         1 UNK         0.0600 
    230 H230       -2.0028  -23.6458  -51.8082 H         1 UNK         0.3000 
    231 H231        0.8290  -24.0430  -51.8238 H         1 UNK         0.0600 
    232 H232        0.8651  -21.7132  -50.9507 H         1 UNK         0.0600 
    233 H233       -0.3432  -22.6919  -50.1302 H         1 UNK         0.0600 
    234 H234       -0.8410  -21.5192  -51.3478 H         1 UNK         0.0600 
    235 H235       -1.3484  -22.4396  -54.0932 H         1 UNK         0.3000 
    236 H236       -1.1641  -21.4393  -56.0394 H         1 UNK         0.0600 
    237 H237        0.6179  -22.0247  -57.6266 H         1 UNK         0.0600 
    238 H238        0.1116  -23.4696  -56.7665 H         1 UNK         0.0600 
    239 H239        1.6248  -22.6717  -56.3398 H         1 UNK         0.0600 
    240 H240       -0.6358  -19.9893  -53.7345 H         1 UNK         0.3000 
    241 H241        1.6948  -18.3053  -54.0854 H         1 UNK         0.0600 
    242 H242       -1.3251  -18.0367  -55.6338 H         1 UNK         0.3800 
    243 H243       -1.2597  -16.3141  -55.9036 H         1 UNK         0.3800 
    244 H244        1.0569  -17.2938  -51.9540 H         1 UNK         0.0800 
    245 H245        1.0841  -19.0255  -51.8485 H         1 UNK         0.0800 
    246 H246       -0.5306  -17.1148  -49.6142 H         1 UNK         0.0800 
    247 H247       -0.6379  -15.9886  -50.9496 H         1 UNK         0.0800 
@<TRIPOS>BOND
     1    1    2 1    
     2    1  127 1    
     3    1  128 1    
     4    1  129 1    
     5    2    3 2    
     6    2    4 am   BACKBONE|DICT|INTERRES
     7    4    5 1    
     8    4  130 1    
     9    5    6 1    
    10    5   65 1    
    11    5  131 1    
    12    6    7 1    
    13    6  132 1    
    14    6  133 1    
    15    7    8 1    
    16    8    9 1    
    17    8  134 1    
    18    8  135 1    
    19    9   10 ar   
    20    9   14 ar   
    21   10   11 ar   
    22   10  136 1    
    23   11   12 ar   
    24   11  126 1    
    25   12   13 ar   
    26   12  137 1    
    27   13   14 ar   
    28   13   15 1    
    29   14  138 1    
    30   15   16 1    
    31   15  139 1    
    32   15  140 1    
    33   16   17 1    
    34   17   18 1    
    35   17  141 1    
    36   17  142 1    
    37   18   19 1    
    38   18   67 1    
    39   18  143 1    
    40   19   20 am   BACKBONE|DICT|INTERRES
    41   19  144 1    
    42   20   21 2    
    43   20   22 1    
    44   22   23 1    
    45   22   24 1    
    46   22  145 1    
    47   23  146 1    
    48   23  147 1    
    49   23  148 1    
    50   24   25 am   BACKBONE|DICT|INTERRES
    51   24  149 1    
    52   25   26 2    
    53   25   27 1    
    54   27   28 1    
    55   27   29 1    
    56   27  150 1    
    57   28  151 1    
    58   28  152 1    
    59   28  153 1    
    60   29   30 am   BACKBONE|DICT|INTERRES
    61   29  154 1    
    62   30   31 2    
    63   30   32 1    
    64   32   33 1    
    65   32   34 1    
    66   32  155 1    
    67   33  156 1    
    68   33  157 1    
    69   33  158 1    
    70   34   35 am   BACKBONE|DICT|INTERRES
    71   34  159 1    
    72   35   36 2    
    73   35   37 1    
    74   37   38 1    
    75   37   39 1    
    76   37  160 1    
    77   38  161 1    
    78   38  162 1    
    79   38  163 1    
    80   39   40 am   BACKBONE|DICT|INTERRES
    81   39  164 1    
    82   40   41 2    
    83   40   42 1    
    84   42   43 1    
    85   42   44 1    
    86   42  165 1    
    87   43  166 1    
    88   43  167 1    
    89   43  168 1    
    90   44   45 am   BACKBONE|DICT|INTERRES
    91   44  169 1    
    92   45   46 2    
    93   45   47 1    
    94   47   48 1    
    95   47   49 1    
    96   47  170 1    
    97   48  171 1    
    98   48  172 1    
    99   48  173 1    
   100   49   50 am   BACKBONE|DICT|INTERRES
   101   49  174 1    
   102   50   51 2    
   103   50   52 1    
   104   52   53 1    
   105   52   54 1    
   106   52  175 1    
   107   53  176 1    
   108   53  177 1    
   109   53  178 1    
   110   54   55 am   BACKBONE|DICT|INTERRES
   111   54  179 1    
   112   55   56 2    
   113   55   57 1    
   114   57   58 1    
   115   57   59 1    
   116   57  180 1    
   117   58  181 1    
   118   58  182 1    
   119   58  183 1    
   120   59   60 am   BACKBONE|DICT|INTERRES
   121   59  184 1    
   122   60   61 2    
   123   60   62 1    
   124   62   63 1    
   125   62   64 1    
   126   62  185 1    
   127   63  186 1    
   128   63  187 1    
   129   63  188 1    
   130   64   65 am   BACKBONE|DICT|INTERRES
   131   64  189 1    
   132   65   66 2    
   133   67   68 2    
   134   67   69 am   BACKBONE|DICT|INTERRES
   135   69   70 1    
   136   69  190 1    
   137   70   71 1    
   138   70   72 1    
   139   70  191 1    
   140   71  192 1    
   141   71  193 1    
   142   71  194 1    
   143   72   73 2    
   144   72   74 am   BACKBONE|DICT|INTERRES
   145   74   75 1    
   146   74  195 1    
   147   75   76 1    
   148   75   77 1    
   149   75  196 1    
   150   76  197 1    
   151   76  198 1    
   152   76  199 1    
   153   77   78 2    
   154   77   79 am   BACKBONE|DICT|INTERRES
   155   79   80 1    
   156   79  200 1    
   157   80   81 1    
   158   80   82 1    
   159   80  201 1    
   160   81  202 1    
   161   81  203 1    
   162   81  204 1    
   163   82   83 2    
   164   82   84 am   BACKBONE|DICT|INTERRES
   165   84   85 1    
   166   84  205 1    
   167   85   86 1    
   168   85   87 1    
   169   85  206 1    
   170   86  207 1    
   171   86  208 1    
   172   86  209 1    
   173   87   88 2    
   174   87   89 am   BACKBONE|DICT|INTERRES
   175   89   90 1    
   176   89  210 1    
   177   90   91 1    
   178   90   92 1    
   179   90  211 1    
   180   91  212 1    
   181   91  213 1    
   182   91  214 1    
   183   92   93 2    
   184   92   94 am   BACKBONE|DICT|INTERRES
   185   94   95 1    
   186   94  215 1    
   187   95   96 1    
   188   95   97 1    
   189   95  216 1    
   190   96  217 1    
   191   96  218 1    
   192   96  219 1    
   193   97   98 2    
   194   97   99 am   BACKBONE|DICT|INTERRES
   195   99  100 1    
   196   99  220 1    
   197  100  101 1    
   198  100  102 1    
   199  100  221 1    
   200  101  222 1    
   201  101  223 1    
   202  101  224 1    
   203  102  103 2    
   204  102  104 am   BACKBONE|DICT|INTERRES
   205  104  105 1    
   206  104  225 1    
   207  105  106 1    
   208  105  107 1    
   209  105  226 1    
   210  106  227 1    
   211  106  228 1    
   212  106  229 1    
   213  107  108 2    
   214  107  109 am   BACKBONE|DICT|INTERRES
   215  109  110 1    
   216  109  230 1    
   217  110  111 1    
   218  110  112 1    
   219  110  231 1    
   220  111  232 1    
   221  111  233 1    
   222  111  234 1    
   223  112  113 2    
   224  112  114 am   BACKBONE|DICT|INTERRES
   225  114  115 1    
   226  114  235 1    
   227  115  116 1    
   228  115  117 1    
   229  115  236 1    
   230  116  237 1    
   231  116  238 1    
   232  116  239 1    
   233  117  118 2    
   234  117  119 am   BACKBONE|DICT|INTERRES
   235  119  120 1    
   236  119  240 1    
   237  120  121 1    
   238  120  124 1    
   239  120  241 1    
   240  121  122 am   BACKBONE|DICT|INTERRES
   241  121  123 2    
   242  122  242 1    
   243  122  243 1    
   244  124  125 1    
   245  124  244 1    
   246  124  245 1    
   247  125  126 1    
   248  126  246 1    
   249  126  247 1    
@<TRIPOS>SUBSTRUCTURE
     1 UNK         1 GROUP             0       ****    0 ROOT    
