@<TRIPOS>MOLECULE
3R540
247   249    1
SMALL
USER_CHARGES


@<TRIPOS>ATOM
      1 CA          0.7113  -11.7802  -49.5235 C.3       0 UNK        -0.1800 
      2 C           0.5427  -12.1921  -48.0689 C.2       0 UNK         0.5000 
      3 O           1.4459  -12.8015  -47.4966 O.2       0 UNK        -0.5000 
      4 N          -0.6087  -11.8703  -47.4686 N.am      1 UNK        -0.5000 
      5 CA         -0.9492  -12.1649  -46.0727 C.3       1 UNK         0.1400 
      6 C6         -2.4827  -12.2874  -45.8637 C.3       23 UNK        -0.0398 
      7 S7         -3.2540  -13.5629  -46.9200 S.3       23 UNK        -0.2404 
      8 C8         -2.8659  -15.0480  -45.9504 C.3       23 UNK        -0.0205 
      9 C9         -3.2791  -16.3304  -46.6536 C.ar      23 UNK        -0.0193 
     10 C10        -2.5839  -16.7590  -47.7868 C.ar      23 UNK        -0.1150 
     11 C11        -2.8960  -17.9765  -48.3961 C.ar      23 UNK        -0.0193 
     12 C12        -3.9076  -18.7751  -47.8585 C.ar      23 UNK        -0.1150 
     13 C13        -4.6104  -18.3585  -46.7236 C.ar      23 UNK        -0.0193 
     14 C14        -4.3045  -17.1264  -46.1359 C.ar      23 UNK        -0.1150 
     15 C15        -5.6708  -19.2631  -46.1115 C.3       23 UNK        -0.0205 
     16 S16        -5.2594  -19.8214  -44.4194 S.3       23 UNK        -0.2404 
     17 C17        -3.4711  -20.1948  -44.4998 C.3       23 UNK        -0.0398 
     18 CA         -3.1132  -21.4170  -45.3787 C.3       11 UNK         0.1400 
     19 N          -1.7414  -21.3310  -45.8955 N.am      11 UNK        -0.5000 
     20 C          -1.2300  -22.1232  -46.8505 C.2       10 UNK         0.5000 
     21 O          -1.8851  -23.0022  -47.4122 O.2       10 UNK        -0.5000 
     22 CA          0.2506  -21.9383  -47.2348 C.3       10 UNK         0.1400 
     23 CB          0.3751  -21.3853  -48.6619 C.3       10 UNK        -0.1800 
     24 N           0.9775  -21.0640  -46.3130 N.am      10 UNK        -0.5000 
     25 C           1.4834  -21.4578  -45.1337 C.2       9 UNK         0.5000 
     26 O           1.4094  -22.6141  -44.7176 O.2       9 UNK        -0.5000 
     27 CA          2.1443  -20.3773  -44.2496 C.3       9 UNK         0.1400 
     28 CB          3.6582  -20.3263  -44.5008 C.3       9 UNK        -0.1800 
     29 N           1.5850  -19.0396  -44.4518 N.am      9 UNK        -0.5000 
     30 C           0.3057  -18.7062  -44.2294 C.2       8 UNK         0.5000 
     31 O          -0.5125  -19.4746  -43.7259 O.2       8 UNK        -0.5000 
     32 CA         -0.1638  -17.3176  -44.7056 C.3       8 UNK         0.1400 
     33 CB         -0.3397  -16.3717  -43.5084 C.3       8 UNK        -0.1800 
     34 N           0.7049  -16.6985  -45.7158 N.am      8 UNK        -0.5000 
     35 C           0.9510  -17.2183  -46.9308 C.2       7 UNK         0.5000 
     36 O           0.4870  -18.2937  -47.3083 O.2       7 UNK        -0.5000 
     37 CA          1.8964  -16.4504  -47.8740 C.3       7 UNK         0.1400 
     38 CB          1.0909  -15.7073  -48.9492 C.3       7 UNK        -0.1800 
     39 N           2.7839  -15.5143  -47.1796 N.am      7 UNK        -0.5000 
     40 C           3.7927  -15.8951  -46.3811 C.2       6 UNK         0.5000 
     41 O           4.0704  -17.0752  -46.1586 O.2       6 UNK        -0.5000 
     42 CA          4.6107  -14.7956  -45.6716 C.3       6 UNK         0.1400 
     43 CB          4.5796  -13.4245  -46.3747 C.3       6 UNK        -0.1800 
     44 N           4.2329  -14.6592  -44.2627 N.am      6 UNK        -0.5000 
     45 C           3.0032  -14.4776  -43.7624 C.2       5 UNK         0.5000 
     46 O           1.9902  -14.3363  -44.4490 O.2       5 UNK        -0.5000 
     47 CA          2.8848  -14.4431  -42.2306 C.3       5 UNK         0.1400 
     48 CB          3.2478  -15.7978  -41.5853 C.3       5 UNK        -0.1800 
     49 N           3.6191  -13.3246  -41.6334 N.am      5 UNK        -0.5000 
     50 C           4.9424  -13.1416  -41.5098 C.2       4 UNK         0.5000 
     51 O           5.7782  -13.9707  -41.8740 O.2       4 UNK        -0.5000 
     52 CA          5.4151  -11.7962  -40.9099 C.3       4 UNK         0.1400 
     53 CB          6.6931  -11.2871  -41.6000 C.3       4 UNK        -0.1800 
     54 N           4.3923  -10.7526  -41.0094 N.am      4 UNK        -0.5000 
     55 C           3.4314  -10.4946  -40.1112 C.2       3 UNK         0.5000 
     56 O           3.3460  -11.0556  -39.0192 O.2       3 UNK        -0.5000 
     57 CA          2.3521   -9.4756  -40.5374 C.3       3 UNK         0.1400 
     58 CB          2.6891   -8.0764  -40.0008 C.3       3 UNK        -0.1800 
     59 N           2.1800   -9.4048  -41.9943 N.am      3 UNK        -0.5000 
     60 C           1.7144  -10.4062  -42.7542 C.2       2 UNK         0.5000 
     61 O           1.2942  -11.4701  -42.2936 O.2       2 UNK        -0.5000 
     62 CA          1.8374  -10.2067  -44.2759 C.3       2 UNK         0.1400 
     63 CB          3.3025  -10.3830  -44.7092 C.3       2 UNK        -0.1800 
     64 N           1.0189  -11.1462  -45.0392 N.am      2 UNK        -0.5000 
     65 C          -0.3130  -11.1024  -45.1502 C.2       1 UNK         0.5000 
     66 O          -1.0136  -10.2404  -44.6152 O.2       1 UNK        -0.5000 
     67 C          -3.3722  -22.7460  -44.6390 C.2       11 UNK         0.5000 
     68 O          -4.4814  -23.2741  -44.7095 O.2       11 UNK        -0.5000 
     69 N          -2.3241  -23.3088  -44.0180 N.am      12 UNK        -0.5000 
     70 CA         -2.3292  -24.6311  -43.3852 C.3       12 UNK         0.1400 
     71 CB         -0.9991  -24.8285  -42.6427 C.3       12 UNK        -0.1800 
     72 C          -2.5699  -25.7886  -44.3779 C.2       12 UNK         0.5000 
     73 O          -3.0747  -26.8366  -43.9747 O.2       12 UNK        -0.5000 
     74 N          -2.2278  -25.5673  -45.6541 N.am      13 UNK        -0.5000 
     75 CA         -2.4762  -26.4765  -46.7721 C.3       13 UNK         0.1400 
     76 CB         -1.2008  -26.5423  -47.6304 C.3       13 UNK        -0.1800 
     77 C          -3.6790  -26.0250  -47.6254 C.2       13 UNK         0.5000 
     78 O          -3.9335  -26.6359  -48.6633 O.2       13 UNK        -0.5000 
     79 N          -4.3689  -24.9478  -47.2157 N.am      14 UNK        -0.5000 
     80 CA         -5.4655  -24.2718  -47.9183 C.3       14 UNK         0.1400 
     81 CB         -6.7337  -25.1499  -47.9053 C.3       14 UNK        -0.1800 
     82 C          -5.0694  -23.8056  -49.3362 C.2       14 UNK         0.5000 
     83 O          -5.8381  -23.9861  -50.2810 O.2       14 UNK        -0.5000 
     84 N          -3.8491  -23.2604  -49.4653 N.am      15 UNK        -0.5000 
     85 CA         -3.1914  -22.8686  -50.7183 C.3       15 UNK         0.1400 
     86 CB         -3.9010  -21.6633  -51.3650 C.3       15 UNK        -0.1800 
     87 C          -3.0243  -24.0665  -51.6777 C.2       15 UNK         0.5000 
     88 O          -3.3451  -23.9693  -52.8662 O.2       15 UNK        -0.5000 
     89 N          -2.5552  -25.1862  -51.1055 N.am      16 UNK        -0.5000 
     90 CA         -2.3981  -26.5111  -51.7133 C.3       16 UNK         0.1400 
     91 CB         -1.3019  -26.4876  -52.7986 C.3       16 UNK        -0.1800 
     92 C          -3.7428  -27.0658  -52.2217 C.2       16 UNK         0.5000 
     93 O          -3.8515  -27.4505  -53.3846 O.2       16 UNK        -0.5000 
     94 N          -4.7631  -27.0349  -51.3517 N.am      17 UNK        -0.5000 
     95 CA         -6.1696  -27.3556  -51.6336 C.3       17 UNK         0.1400 
     96 CB         -6.3467  -28.8748  -51.8316 C.3       17 UNK        -0.1800 
     97 C          -6.7377  -26.5211  -52.8045 C.2       17 UNK         0.5000 
     98 O          -7.4202  -27.0523  -53.6821 O.2       17 UNK        -0.5000 
     99 N          -6.3882  -25.2277  -52.8030 N.am      18 UNK        -0.5000 
    100 CA        -6.6533  -24.2038  -53.8148 C.3       18 UNK         0.1400 
    101 CB        -8.1676  -23.9435  -53.9481 C.3       18 UNK        -0.1800 
    102 C         -5.9749  -24.4399  -55.1837 C.2       18 UNK         0.5000 
    103 O         -6.2905  -23.7152  -56.1285 O.2       18 UNK        -0.5000 
    104 N         -5.0490  -25.4067  -55.2915 N.am      19 UNK        -0.5000 
    105 CA        -4.3119  -25.6855  -56.5274 C.3       19 UNK         0.1400 
    106 CB        -3.7256  -27.1044  -56.4937 C.3       19 UNK        -0.1800 
    107 C         -3.2035  -24.6530  -56.7937 C.2       19 UNK         0.5000 
    108 O         -2.9627  -24.3195  -57.9549 O.2       19 UNK        -0.5000 
    109 N         -2.5608  -24.1532  -55.7274 N.am      20 UNK        -0.5000 
    110 CA        -1.5966  -23.0543  -55.8094 C.3       20 UNK         0.1400 
    111 CB        -0.5848  -23.1472  -54.6563 C.3       20 UNK        -0.1800 
    112 C         -2.3156  -21.6957  -55.7984 C.2       20 UNK         0.5000 
    113 O         -1.8458  -20.7581  -56.4428 O.2       20 UNK        -0.5000 
    114 N         -3.4394  -21.6204  -55.0676 N.am      21 UNK        -0.5000 
    115 CA        -4.4065  -20.5170  -54.9469 C.3       21 UNK         0.1400 
    116 CB        -5.0447  -20.1983  -56.3120 C.3       21 UNK        -0.1800 
    117 C         -3.8853  -19.2291  -54.2720 C.2       21 UNK         0.5000 
    118 O         -4.6837  -18.5233  -53.6585 O.2       21 UNK        -0.5000 
    119 N         -2.5819  -18.9558  -54.3998 N.am      22 UNK        -0.5000 
    120 CA        -1.7892  -17.8581  -53.8168 C.3       22 UNK         0.1400 
    121 C         -2.2005  -16.3997  -54.1914 C.2       22 UNK         0.5000 
    122 N         -3.1261  -16.1838  -55.1173 N.am      22 UNK        -0.7600 
    123 O         -1.6306  -15.4423  -53.6746 O.2       22 UNK        -0.5000 
    124 C124       -1.4593  -18.0691  -52.3102 C.3       23 UNK        -0.0398 
    125 S125       -2.7950  -17.6774  -51.1303 S.3       23 UNK        -0.2404 
    126 C126       -2.1239  -18.4311  -49.6218 C.3       23 UNK        -0.0205 
    127 H127       -0.1573  -11.2356  -49.8943 H         1 UNK         0.0600 
    128 H128        0.8524  -12.6623  -50.1478 H         1 UNK         0.0600 
    129 H129        1.5871  -11.1405  -49.6317 H         1 UNK         0.0600 
    130 H130       -1.3113  -11.3635  -47.9873 H         1 UNK         0.3000 
    131 H131       -0.5030  -13.1234  -45.7983 H         1 UNK         0.0600 
    132 H132       -2.7104  -12.5108  -44.8198 H         1 UNK         0.0800 
    133 H133       -2.9746  -11.3381  -46.0828 H         1 UNK         0.0800 
    134 H134       -1.7905  -15.0823  -45.7857 H         1 UNK         0.0800 
    135 H135       -3.3334  -14.9755  -44.9671 H         1 UNK         0.0800 
    136 H136       -1.7908  -16.1467  -48.1904 H         1 UNK         0.1150 
    137 H137       -4.1383  -19.7255  -48.3189 H         1 UNK         0.1150 
    138 H138       -4.8378  -16.8116  -45.2498 H         1 UNK         0.1150 
    139 H139       -6.6215  -18.7290  -46.0846 H         1 UNK         0.0800 
    140 H140       -5.8359  -20.1411  -46.7378 H         1 UNK         0.0800 
    141 H141       -3.1008  -20.3253  -43.4812 H         1 UNK         0.0800 
    142 H142       -2.9621  -19.3043  -44.8673 H         1 UNK         0.0800 
    143 H143       -3.7648  -21.4120  -46.2543 H         1 UNK         0.0600 
    144 H144       -1.1376  -20.6516  -45.4505 H         1 UNK         0.3000 
    145 H145        0.7126  -22.9277  -47.2207 H         1 UNK         0.0600 
    146 H146        1.4198  -21.2604  -48.9468 H         1 UNK         0.0600 
    147 H147       -0.0778  -22.0633  -49.3854 H         1 UNK         0.0600 
    148 H148       -0.1161  -20.4187  -48.7632 H         1 UNK         0.0600 
    149 H149        1.0292  -20.0846  -46.5770 H         1 UNK         0.3000 
    150 H150        1.9769  -20.6564  -43.2073 H         1 UNK         0.0600 
    151 H151        4.1159  -21.3025  -44.3353 H         1 UNK         0.0600 
    152 H152        4.1462  -19.6202  -43.8287 H         1 UNK         0.0600 
    153 H153        3.8853  -20.0248  -45.5244 H         1 UNK         0.0600 
    154 H154        2.1903  -18.3574  -44.8880 H         1 UNK         0.3000 
    155 H155       -1.1410  -17.4619  -45.1681 H         1 UNK         0.0600 
    156 H156       -1.1101  -16.7434  -42.8316 H         1 UNK         0.0600 
    157 H157       -0.6347  -15.3699  -43.8178 H         1 UNK         0.0600 
    158 H158        0.5790  -16.2811  -42.9333 H         1 UNK         0.0600 
    159 H159        1.1483  -15.8205  -45.4597 H         1 UNK         0.3000 
    160 H160        2.5227  -17.1889  -48.3787 H         1 UNK         0.0600 
    161 H161        0.3423  -15.0511  -48.5064 H         1 UNK         0.0600 
    162 H162        0.5637  -16.4096  -49.5950 H         1 UNK         0.0600 
    163 H163        1.7374  -15.1042  -49.5866 H         1 UNK         0.0600 
    164 H164        2.5506  -14.5282  -47.2532 H         1 UNK         0.3000 
    165 H165        5.6459  -15.1397  -45.6823 H         1 UNK         0.0600 
    166 H166        5.3375  -12.7607  -45.9590 H         1 UNK         0.0600 
    167 H167        4.7832  -13.5181  -47.4421 H         1 UNK         0.0600 
    168 H168        3.6185  -12.9293  -46.2591 H         1 UNK         0.0600 
    169 H169        4.9907  -14.7294  -43.5912 H         1 UNK         0.3000 
    170 H170        1.8339  -14.2529  -42.0060 H         1 UNK         0.0600 
    171 H171        2.6441  -16.6060  -41.9976 H         1 UNK         0.0600 
    172 H172        4.2898  -16.0726  -41.7463 H         1 UNK         0.0600 
    173 H173        3.0713  -15.7779  -40.5099 H         1 UNK         0.0600 
    174 H174        3.0237  -12.5535  -41.3596 H         1 UNK         0.3000 
    175 H175        5.6475  -11.9773  -39.8586 H         1 UNK         0.0600 
    176 H176        6.5397  -11.1373  -42.6695 H         1 UNK         0.0600 
    177 H177        7.0217  -10.3399  -41.1718 H         1 UNK         0.0600 
    178 H178        7.5149  -11.9944  -41.4810 H         1 UNK         0.0600 
    179 H179        4.3720  -10.2374  -41.8766 H         1 UNK         0.3000 
    180 H180        1.4045   -9.7939  -40.0977 H         1 UNK         0.0600 
    181 H181        3.6224   -7.6977  -40.4194 H         1 UNK         0.0600 
    182 H182        2.7982   -8.0906  -38.9155 H         1 UNK         0.0600 
    183 H183        1.8999   -7.3624  -40.2370 H         1 UNK         0.0600 
    184 H184        2.5037   -8.5589  -42.4419 H         1 UNK         0.3000 
    185 H185        1.5151   -9.1927  -44.5217 H         1 UNK         0.0600 
    186 H186        3.9408   -9.6165  -44.2688 H         1 UNK         0.0600 
    187 H187        3.6965  -11.3526  -44.4019 H         1 UNK         0.0600 
    188 H188        3.4085  -10.3051  -45.7916 H         1 UNK         0.0600 
    189 H189        1.5061  -11.8936  -45.5204 H         1 UNK         0.3000 
    190 H190       -1.4417  -22.8167  -44.0217 H         1 UNK         0.3000 
    191 H191       -3.1396  -24.6510  -42.6536 H         1 UNK         0.0600 
    192 H192       -0.1484  -24.7896  -43.3248 H         1 UNK         0.0600 
    193 H193       -0.8539  -24.0614  -41.8818 H         1 UNK         0.0600 
    194 H194       -0.9720  -25.7950  -42.1378 H         1 UNK         0.0600 
    195 H195       -1.8414  -24.6663  -45.9028 H         1 UNK         0.3000 
    196 H196       -2.6960  -27.4815  -46.4068 H         1 UNK         0.0600 
    197 H197       -0.3452  -26.8657  -47.0374 H         1 UNK         0.0600 
    198 H198       -0.9567  -25.5731  -48.0672 H         1 UNK         0.0600 
    199 H199       -1.3117  -27.2550  -48.4483 H         1 UNK         0.0600 
    200 H200       -4.1078  -24.5259  -46.3329 H         1 UNK         0.3000 
    201 H201       -5.6843  -23.3657  -47.3517 H         1 UNK         0.0600 
    202 H202       -7.5828  -24.6196  -48.3382 H         1 UNK         0.0600 
    203 H203       -7.0093  -25.4248  -46.8873 H         1 UNK         0.0600 
    204 H204       -6.5969  -26.0695  -48.4743 H         1 UNK         0.0600 
    205 H205       -3.2659  -23.1901  -48.6337 H         1 UNK         0.3000 
    206 H206       -2.1850  -22.5481  -50.4487 H         1 UNK         0.0600 
    207 H207       -4.0420  -20.8540  -50.6492 H         1 UNK         0.0600 
    208 H208       -4.8800  -21.9289  -51.7638 H         1 UNK         0.0600 
    209 H209       -3.3042  -21.2663  -52.1854 H         1 UNK         0.0600 
    210 H210       -2.3844  -25.1538  -50.1112 H         1 UNK         0.3000 
    211 H211       -2.0662  -27.1827  -50.9204 H         1 UNK         0.0600 
    212 H212       -0.3669  -26.0867  -52.4073 H         1 UNK         0.0600 
    213 H213       -1.0969  -27.4939  -53.1652 H         1 UNK         0.0600 
    214 H214       -1.5921  -25.8835  -53.6571 H         1 UNK         0.0600 
    215 H215       -4.5603  -26.7340  -50.4002 H         1 UNK         0.3000 
    216 H216       -6.7366  -27.0667  -50.7479 H         1 UNK         0.0600 
    217 H217       -7.4009  -29.1358  -51.9306 H         1 UNK         0.0600 
    218 H218       -5.8359  -29.2288  -52.7277 H         1 UNK         0.0600 
    219 H219       -5.9539  -29.4305  -50.9802 H         1 UNK         0.0600 
    220 H220       -5.8757  -24.8899  -51.9924 H         1 UNK         0.3000 
    221 H221       -6.2022  -23.2919  -53.4220 H         1 UNK         0.0600 
    222 H222       -8.6858  -24.7884  -54.4021 H         1 UNK         0.0600 
    223 H223       -8.6213  -23.7533  -52.9754 H         1 UNK         0.0600 
    224 H224       -8.3627  -23.0695  -54.5705 H         1 UNK         0.0600 
    225 H225       -4.8189  -25.9760  -54.4841 H         1 UNK         0.3000 
    226 H226       -5.0164  -25.6427  -57.3609 H         1 UNK         0.0600 
    227 H227       -4.4843  -27.8429  -56.2337 H         1 UNK         0.0600 
    228 H228       -3.3234  -27.3786  -57.4695 H         1 UNK         0.0600 
    229 H229       -2.9102  -27.1886  -55.7748 H         1 UNK         0.0600 
    230 H230       -2.8439  -24.4430  -54.7971 H         1 UNK         0.3000 
    231 H231       -1.0382  -23.1316  -56.7449 H         1 UNK         0.0600 
    232 H232        0.1869  -22.3834  -54.7588 H         1 UNK         0.0600 
    233 H233       -0.0829  -24.1147  -54.6480 H         1 UNK         0.0600 
    234 H234       -1.0537  -23.0021  -53.6841 H         1 UNK         0.0600 
    235 H235       -3.6693  -22.4436  -54.5256 H         1 UNK         0.3000 
    236 H236       -5.1981  -20.8988  -54.3002 H         1 UNK         0.0600 
    237 H237       -5.4826  -21.0905  -56.7597 H         1 UNK         0.0600 
    238 H238       -5.8435  -19.4632  -56.2066 H         1 UNK         0.0600 
    239 H239       -4.3187  -19.7917  -57.0165 H         1 UNK         0.0600 
    240 H240       -2.0682  -19.5694  -55.0258 H         1 UNK         0.3000 
    241 H241       -0.8330  -17.9660  -54.3301 H         1 UNK         0.0600 
    242 H242       -3.3711  -15.2381  -55.3649 H         1 UNK         0.3800 
    243 H243       -3.6146  -16.9577  -55.5376 H         1 UNK         0.3800 
    244 H244       -1.1472  -19.1020  -52.1500 H         1 UNK         0.0800 
    245 H245       -0.5965  -17.4584  -52.0394 H         1 UNK         0.0800 
    246 H246       -1.0734  -18.1615  -49.5125 H         1 UNK         0.0800 
    247 H247       -2.1571  -19.5172  -49.7145 H         1 UNK         0.0800 
@<TRIPOS>BOND
     1    1    2 1    
     2    1  127 1    
     3    1  128 1    
     4    1  129 1    
     5    2    3 2    
     6    2    4 am   BACKBONE|DICT|INTERRES
     7    4    5 1    
     8    4  130 1    
     9    5    6 1    
    10    5   65 1    
    11    5  131 1    
    12    6    7 1    
    13    6  132 1    
    14    6  133 1    
    15    7    8 1    
    16    8    9 1    
    17    8  134 1    
    18    8  135 1    
    19    9   10 ar   
    20    9   14 ar   
    21   10   11 ar   
    22   10  136 1    
    23   11   12 ar   
    24   11  126 1    
    25   12   13 ar   
    26   12  137 1    
    27   13   14 ar   
    28   13   15 1    
    29   14  138 1    
    30   15   16 1    
    31   15  139 1    
    32   15  140 1    
    33   16   17 1    
    34   17   18 1    
    35   17  141 1    
    36   17  142 1    
    37   18   19 1    
    38   18   67 1    
    39   18  143 1    
    40   19   20 am   BACKBONE|DICT|INTERRES
    41   19  144 1    
    42   20   21 2    
    43   20   22 1    
    44   22   23 1    
    45   22   24 1    
    46   22  145 1    
    47   23  146 1    
    48   23  147 1    
    49   23  148 1    
    50   24   25 am   BACKBONE|DICT|INTERRES
    51   24  149 1    
    52   25   26 2    
    53   25   27 1    
    54   27   28 1    
    55   27   29 1    
    56   27  150 1    
    57   28  151 1    
    58   28  152 1    
    59   28  153 1    
    60   29   30 am   BACKBONE|DICT|INTERRES
    61   29  154 1    
    62   30   31 2    
    63   30   32 1    
    64   32   33 1    
    65   32   34 1    
    66   32  155 1    
    67   33  156 1    
    68   33  157 1    
    69   33  158 1    
    70   34   35 am   BACKBONE|DICT|INTERRES
    71   34  159 1    
    72   35   36 2    
    73   35   37 1    
    74   37   38 1    
    75   37   39 1    
    76   37  160 1    
    77   38  161 1    
    78   38  162 1    
    79   38  163 1    
    80   39   40 am   BACKBONE|DICT|INTERRES
    81   39  164 1    
    82   40   41 2    
    83   40   42 1    
    84   42   43 1    
    85   42   44 1    
    86   42  165 1    
    87   43  166 1    
    88   43  167 1    
    89   43  168 1    
    90   44   45 am   BACKBONE|DICT|INTERRES
    91   44  169 1    
    92   45   46 2    
    93   45   47 1    
    94   47   48 1    
    95   47   49 1    
    96   47  170 1    
    97   48  171 1    
    98   48  172 1    
    99   48  173 1    
   100   49   50 am   BACKBONE|DICT|INTERRES
   101   49  174 1    
   102   50   51 2    
   103   50   52 1    
   104   52   53 1    
   105   52   54 1    
   106   52  175 1    
   107   53  176 1    
   108   53  177 1    
   109   53  178 1    
   110   54   55 am   BACKBONE|DICT|INTERRES
   111   54  179 1    
   112   55   56 2    
   113   55   57 1    
   114   57   58 1    
   115   57   59 1    
   116   57  180 1    
   117   58  181 1    
   118   58  182 1    
   119   58  183 1    
   120   59   60 am   BACKBONE|DICT|INTERRES
   121   59  184 1    
   122   60   61 2    
   123   60   62 1    
   124   62   63 1    
   125   62   64 1    
   126   62  185 1    
   127   63  186 1    
   128   63  187 1    
   129   63  188 1    
   130   64   65 am   BACKBONE|DICT|INTERRES
   131   64  189 1    
   132   65   66 2    
   133   67   68 2    
   134   67   69 am   BACKBONE|DICT|INTERRES
   135   69   70 1    
   136   69  190 1    
   137   70   71 1    
   138   70   72 1    
   139   70  191 1    
   140   71  192 1    
   141   71  193 1    
   142   71  194 1    
   143   72   73 2    
   144   72   74 am   BACKBONE|DICT|INTERRES
   145   74   75 1    
   146   74  195 1    
   147   75   76 1    
   148   75   77 1    
   149   75  196 1    
   150   76  197 1    
   151   76  198 1    
   152   76  199 1    
   153   77   78 2    
   154   77   79 am   BACKBONE|DICT|INTERRES
   155   79   80 1    
   156   79  200 1    
   157   80   81 1    
   158   80   82 1    
   159   80  201 1    
   160   81  202 1    
   161   81  203 1    
   162   81  204 1    
   163   82   83 2    
   164   82   84 am   BACKBONE|DICT|INTERRES
   165   84   85 1    
   166   84  205 1    
   167   85   86 1    
   168   85   87 1    
   169   85  206 1    
   170   86  207 1    
   171   86  208 1    
   172   86  209 1    
   173   87   88 2    
   174   87   89 am   BACKBONE|DICT|INTERRES
   175   89   90 1    
   176   89  210 1    
   177   90   91 1    
   178   90   92 1    
   179   90  211 1    
   180   91  212 1    
   181   91  213 1    
   182   91  214 1    
   183   92   93 2    
   184   92   94 am   BACKBONE|DICT|INTERRES
   185   94   95 1    
   186   94  215 1    
   187   95   96 1    
   188   95   97 1    
   189   95  216 1    
   190   96  217 1    
   191   96  218 1    
   192   96  219 1    
   193   97   98 2    
   194   97   99 am   BACKBONE|DICT|INTERRES
   195   99  100 1    
   196   99  220 1    
   197  100  101 1    
   198  100  102 1    
   199  100  221 1    
   200  101  222 1    
   201  101  223 1    
   202  101  224 1    
   203  102  103 2    
   204  102  104 am   BACKBONE|DICT|INTERRES
   205  104  105 1    
   206  104  225 1    
   207  105  106 1    
   208  105  107 1    
   209  105  226 1    
   210  106  227 1    
   211  106  228 1    
   212  106  229 1    
   213  107  108 2    
   214  107  109 am   BACKBONE|DICT|INTERRES
   215  109  110 1    
   216  109  230 1    
   217  110  111 1    
   218  110  112 1    
   219  110  231 1    
   220  111  232 1    
   221  111  233 1    
   222  111  234 1    
   223  112  113 2    
   224  112  114 am   BACKBONE|DICT|INTERRES
   225  114  115 1    
   226  114  235 1    
   227  115  116 1    
   228  115  117 1    
   229  115  236 1    
   230  116  237 1    
   231  116  238 1    
   232  116  239 1    
   233  117  118 2    
   234  117  119 am   BACKBONE|DICT|INTERRES
   235  119  120 1    
   236  119  240 1    
   237  120  121 1    
   238  120  124 1    
   239  120  241 1    
   240  121  122 am   BACKBONE|DICT|INTERRES
   241  121  123 2    
   242  122  242 1    
   243  122  243 1    
   244  124  125 1    
   245  124  244 1    
   246  124  245 1    
   247  125  126 1    
   248  126  246 1    
   249  126  247 1    
@<TRIPOS>SUBSTRUCTURE
     1 UNK         1 GROUP             0       ****    0 ROOT    
