@<TRIPOS>MOLECULE
3R540
247   249    1
SMALL
USER_CHARGES


@<TRIPOS>ATOM
      1 CA          4.6751   -9.4645  -46.3015 C.3       0 UNK        -0.1800 
      2 C           4.1239  -10.8334  -45.9328 C.2       0 UNK         0.5000 
      3 O           4.5662  -11.4378  -44.9562 O.2       0 UNK        -0.5000 
      4 N           3.1433  -11.3118  -46.7091 N.am      1 UNK        -0.5000 
      5 CA          2.5351  -12.6483  -46.6132 C.3       1 UNK         0.1400 
      6 C6          1.6492  -12.9369  -47.8552 C.3       23 UNK        -0.0398 
      7 S7          1.7295  -14.6736  -48.3997 S.3       23 UNK        -0.2404 
      8 C8          0.4514  -14.6659  -49.7053 C.3       23 UNK        -0.0205 
      9 C9          0.1975  -16.0252  -50.3585 C.ar      23 UNK        -0.0193 
     10 C10        -1.0858  -16.3300  -50.8314 C.ar      23 UNK        -0.1150 
     11 C11        -1.3430  -17.5427  -51.4811 C.ar      23 UNK        -0.0193 
     12 C12        -0.2966  -18.4496  -51.6611 C.ar      23 UNK        -0.1150 
     13 C13         0.9791  -18.1820  -51.1647 C.ar      23 UNK        -0.0193 
     14 C14         1.2248  -16.9620  -50.5306 C.ar      23 UNK        -0.1150 
     15 C15         2.0801  -19.2272  -51.2851 C.3       23 UNK        -0.0205 
     16 S16         1.5789  -20.8496  -50.6131 S.3       23 UNK        -0.2404 
     17 C17         1.0441  -20.3882  -48.9299 C.3       23 UNK        -0.0398 
     18 CA          0.4676  -21.5786  -48.1324 C.3       11 UNK         0.1400 
     19 N           0.5170  -21.3296  -46.6927 N.am      11 UNK        -0.5000 
     20 C           0.3440  -22.2652  -45.7511 C.2       10 UNK         0.5000 
     21 O           0.1454  -23.4552  -45.9985 O.2       10 UNK        -0.5000 
     22 CA          0.3505  -21.7765  -44.2906 C.3       10 UNK         0.1400 
     23 CB          1.7836  -21.5182  -43.8018 C.3       10 UNK        -0.1800 
     24 N          -0.4545  -20.5687  -44.1019 N.am      10 UNK        -0.5000 
     25 C          -1.7795  -20.5072  -44.2960 C.2       9 UNK         0.5000 
     26 O          -2.4700  -21.4716  -44.6220 O.2       9 UNK        -0.5000 
     27 CA         -2.4390  -19.1282  -44.1397 C.3       9 UNK         0.1400 
     28 CB         -2.6954  -18.8101  -42.6595 C.3       9 UNK        -0.1800 
     29 N          -1.6410  -18.0636  -44.7462 N.am      9 UNK        -0.5000 
     30 C          -1.4450  -17.9249  -46.0653 C.2       8 UNK         0.5000 
     31 O          -1.9081  -18.6853  -46.9120 O.2       8 UNK        -0.5000 
     32 CA         -0.5465  -16.7599  -46.5073 C.3       8 UNK         0.1400 
     33 CB         -1.3166  -15.4327  -46.4052 C.3       8 UNK        -0.1800 
     34 N           0.6830  -16.6717  -45.7217 N.am      8 UNK        -0.5000 
     35 C           1.6016  -17.6403  -45.6022 C.2       7 UNK         0.5000 
     36 O           1.5426  -18.7221  -46.1841 O.2       7 UNK        -0.5000 
     37 CA          2.7426  -17.3855  -44.6021 C.3       7 UNK         0.1400 
     38 CB          3.9031  -16.6336  -45.2698 C.3       7 UNK        -0.1800 
     39 N           2.2964  -16.6537  -43.4151 N.am      7 UNK        -0.5000 
     40 C           1.3695  -17.0858  -42.5500 C.2       6 UNK         0.5000 
     41 O           0.8107  -18.1815  -42.6435 O.2       6 UNK        -0.5000 
     42 CA          1.0277  -16.1297  -41.3913 C.3       6 UNK         0.1400 
     43 CB         -0.1074  -16.6558  -40.4956 C.3       6 UNK        -0.1800 
     44 N           2.2068  -15.8803  -40.5629 N.am      6 UNK        -0.5000 
     45 C           3.1330  -14.9506  -40.8164 C.2       5 UNK         0.5000 
     46 O           3.0921  -14.1890  -41.7858 O.2       5 UNK        -0.5000 
     47 CA          4.3196  -14.8703  -39.8440 C.3       5 UNK         0.1400 
     48 CB          5.5552  -15.5575  -40.4452 C.3       5 UNK        -0.1800 
     49 N           4.6303  -13.4694  -39.5759 N.am      5 UNK        -0.5000 
     50 C           3.9353  -12.6963  -38.7320 C.2       4 UNK         0.5000 
     51 O           3.0566  -13.1145  -37.9771 O.2       4 UNK        -0.5000 
     52 CA          4.2320  -11.1965  -38.7991 C.3       4 UNK         0.1400 
     53 CB          5.6981  -10.8741  -38.4495 C.3       4 UNK        -0.1800 
     54 N           3.8924  -10.7219  -40.1376 N.am      4 UNK        -0.5000 
     55 C           3.6089   -9.4543  -40.4539 C.2       3 UNK         0.5000 
     56 O           3.6475   -8.5230  -39.6485 O.2       3 UNK        -0.5000 
     57 CA          3.2119   -9.1716  -41.9148 C.3       3 UNK         0.1400 
     58 CB          4.4341   -8.7054  -42.7191 C.3       3 UNK        -0.1800 
     59 N           2.5880  -10.3136  -42.5938 N.am      3 UNK        -0.5000 
     60 C           1.3351  -10.7370  -42.3597 C.2       2 UNK         0.5000 
     61 O           0.6010  -10.2302  -41.5103 O.2       2 UNK        -0.5000 
     62 CA          0.8076  -11.8876  -43.2391 C.3       2 UNK         0.1400 
     63 CB         -0.7270  -11.9009  -43.3724 C.3       2 UNK        -0.1800 
     64 N           1.4157  -11.8381  -44.5674 N.am      2 UNK        -0.5000 
     65 C           1.7733  -12.9068  -45.2881 C.2       1 UNK         0.5000 
     66 O           1.5332  -14.0627  -44.9385 O.2       1 UNK        -0.5000 
     67 C          -0.9517  -21.9759  -48.5951 C.2       11 UNK         0.5000 
     68 O          -1.0844  -22.9205  -49.3719 O.2       11 UNK        -0.5000 
     69 N          -1.9911  -21.3101  -48.0671 N.am      12 UNK        -0.5000 
     70 CA         -3.3941  -21.6507  -48.3153 C.3       12 UNK         0.1400 
     71 CB         -4.3199  -20.5793  -47.7234 C.3       12 UNK        -0.1800 
     72 C          -3.7744  -23.0457  -47.7906 C.2       12 UNK         0.5000 
     73 O          -4.5009  -23.7646  -48.4751 O.2       12 UNK        -0.5000 
     74 N          -3.2542  -23.4238  -46.6143 N.am      13 UNK        -0.5000 
     75 CA         -3.4102  -24.7585  -46.0356 C.3       13 UNK         0.1400 
     76 CB         -2.8871  -24.7713  -44.5917 C.3       13 UNK        -0.1800 
     77 C          -2.7276  -25.8469  -46.8833 C.2       13 UNK         0.5000 
     78 O          -3.3348  -26.8905  -47.1240 O.2       13 UNK        -0.5000 
     79 N          -1.5094  -25.5674  -47.3709 N.am      14 UNK        -0.5000 
     80 CA         -0.7681  -26.4296  -48.2979 C.3       14 UNK         0.1400 
     81 CB          0.6601  -25.8910  -48.4707 C.3       14 UNK        -0.1800 
     82 C          -1.4694  -26.5852  -49.6636 C.2       14 UNK         0.5000 
     83 O          -1.4575  -27.6750  -50.2363 O.2       14 UNK        -0.5000 
     84 N          -2.1094  -25.5061  -50.1314 N.am      15 UNK        -0.5000 
     85 CA         -2.9613  -25.4582  -51.3211 C.3       15 UNK         0.1400 
     86 CB         -3.1036  -23.9896  -51.7557 C.3       15 UNK        -0.1800 
     87 C          -4.3533  -26.0973  -51.1220 C.2       15 UNK         0.5000 
     88 O          -5.1253  -26.1501  -52.0792 O.2       15 UNK        -0.5000 
     89 N          -4.6752  -26.5360  -49.8943 N.am      16 UNK        -0.5000 
     90 CA         -5.9563  -27.1085  -49.4612 C.3       16 UNK         0.1400 
     91 CB         -6.1814  -28.4886  -50.1128 C.3       16 UNK        -0.1800 
     92 C          -7.1479  -26.1455  -49.6616 C.2       16 UNK         0.5000 
     93 O          -8.2611  -26.5874  -49.9508 O.2       16 UNK        -0.5000 
     94 N          -6.8740  -24.8402  -49.5214 N.am      17 UNK        -0.5000 
     95 CA         -7.7654  -23.6930  -49.7122 C.3       17 UNK         0.1400 
     96 CB         -8.9141  -23.7147  -48.6830 C.3       17 UNK        -0.1800 
     97 C          -8.2739  -23.4974  -51.1586 C.2       17 UNK         0.5000 
     98 O          -9.1688  -22.6766  -51.3699 O.2       17 UNK        -0.5000 
     99 N          -7.7028  -24.2158  -52.1364 N.am      18 UNK        -0.5000 
    100 CA        -8.0255  -24.0670  -53.5524 C.3       18 UNK         0.1400 
    101 CB        -7.6837  -25.3652  -54.2995 C.3       18 UNK        -0.1800 
    102 C         -7.2518  -22.8747  -54.1323 C.2       18 UNK         0.5000 
    103 O         -6.0193  -22.8883  -54.1238 O.2       18 UNK        -0.5000 
    104 N         -7.9775  -21.8705  -54.6404 N.am      19 UNK        -0.5000 
    105 CA        -7.4186  -20.6315  -55.1926 C.3       19 UNK         0.1400 
    106 CB        -8.5643  -19.6790  -55.5645 C.3       19 UNK        -0.1800 
    107 C         -6.4871  -20.8534  -56.3993 C.2       19 UNK         0.5000 
    108 O         -5.5046  -20.1266  -56.5482 O.2       19 UNK        -0.5000 
    109 N         -6.7866  -21.8799  -57.2073 N.am      20 UNK        -0.5000 
    110 CA        -5.9796  -22.3058  -58.3519 C.3       20 UNK         0.1400 
    111 CB        -6.7816  -23.3217  -59.1795 C.3       20 UNK        -0.1800 
    112 C         -4.6136  -22.8962  -57.9497 C.2       20 UNK         0.5000 
    113 O         -3.6537  -22.7619  -58.7094 O.2       20 UNK        -0.5000 
    114 N         -4.5473  -23.5284  -56.7696 N.am      21 UNK        -0.5000 
    115 CA        -3.3107  -24.0448  -56.1840 C.3       21 UNK         0.1400 
    116 CB        -3.6301  -25.2574  -55.2971 C.3       21 UNK        -0.1800 
    117 C         -2.5626  -22.9542  -55.3966 C.2       21 UNK         0.5000 
    118 O         -1.3316  -22.9359  -55.4189 O.2       21 UNK        -0.5000 
    119 N         -3.3132  -22.0626  -54.7332 N.am      22 UNK        -0.5000 
    120 CA        -2.7955  -20.8770  -54.0334 C.3       22 UNK         0.1400 
    121 C         -2.1213  -19.8620  -55.0007 C.2       22 UNK         0.5000 
    122 N         -2.7800  -19.4739  -56.0859 N.am      22 UNK        -0.7600 
    123 O         -0.9922  -19.4364  -54.7797 O.2       22 UNK        -0.5000 
    124 C124       -3.8946  -20.1985  -53.1647 C.3       23 UNK        -0.0398 
    125 S125       -3.2750  -19.5578  -51.5718 S.3       23 UNK        -0.2404 
    126 C126       -2.7381  -17.8656  -52.0089 C.3       23 UNK        -0.0205 
    127 H127        5.5607   -9.2321  -45.7096 H         1 UNK         0.0600 
    128 H128        3.9285   -8.6915  -46.1205 H         1 UNK         0.0600 
    129 H129        4.9556   -9.4344  -47.3544 H         1 UNK         0.0600 
    130 H130        2.8185  -10.7417  -47.4775 H         1 UNK         0.3000 
    131 H131        3.3731  -13.3485  -46.6200 H         1 UNK         0.0600 
    132 H132        1.9821  -12.3414  -48.7067 H         1 UNK         0.0800 
    133 H133        0.6107  -12.6473  -47.6836 H         1 UNK         0.0800 
    134 H134       -0.4770  -14.2877  -49.2746 H         1 UNK         0.0800 
    135 H135        0.7450  -13.9601  -50.4832 H         1 UNK         0.0800 
    136 H136       -1.8857  -15.6139  -50.7050 H         1 UNK         0.1150 
    137 H137       -0.4810  -19.3887  -52.1628 H         1 UNK         0.1150 
    138 H138        2.2196  -16.7473  -50.1681 H         1 UNK         0.1150 
    139 H139        2.3456  -19.3440  -52.3365 H         1 UNK         0.0800 
    140 H140        2.9840  -18.8991  -50.7695 H         1 UNK         0.0800 
    141 H141        0.3253  -19.5676  -48.9614 H         1 UNK         0.0800 
    142 H142        1.9281  -19.9960  -48.4261 H         1 UNK         0.0800 
    143 H143        1.1150  -22.4396  -48.3141 H         1 UNK         0.0600 
    144 H144        0.7119  -20.3722  -46.4080 H         1 UNK         0.3000 
    145 H145       -0.0826  -22.5665  -43.6736 H         1 UNK         0.0600 
    146 H146        1.7946  -21.2219  -42.7527 H         1 UNK         0.0600 
    147 H147        2.3947  -22.4167  -43.8941 H         1 UNK         0.0600 
    148 H148        2.2701  -20.7295  -44.3759 H         1 UNK         0.0600 
    149 H149        0.0333  -19.7293  -43.8069 H         1 UNK         0.3000 
    150 H150       -3.4037  -19.1572  -44.6505 H         1 UNK         0.0600 
    151 H151       -1.7730  -18.8194  -42.0788 H         1 UNK         0.0600 
    152 H152       -3.1627  -17.8329  -42.5379 H         1 UNK         0.0600 
    153 H153       -3.3648  -19.5483  -42.2162 H         1 UNK         0.0600 
    154 H154       -1.1669  -17.4334  -44.1169 H         1 UNK         0.3000 
    155 H155       -0.2668  -16.9260  -47.5493 H         1 UNK         0.0600 
    156 H156       -2.2168  -15.4569  -47.0205 H         1 UNK         0.0600 
    157 H157       -1.6220  -15.2198  -45.3801 H         1 UNK         0.0600 
    158 H158       -0.7143  -14.5929  -46.7465 H         1 UNK         0.0600 
    159 H159        0.8696  -15.7836  -45.2614 H         1 UNK         0.3000 
    160 H160        3.1139  -18.3568  -44.2697 H         1 UNK         0.0600 
    161 H161        3.5977  -15.6481  -45.6206 H         1 UNK         0.0600 
    162 H162        4.2779  -17.1851  -46.1329 H         1 UNK         0.0600 
    163 H163        4.7367  -16.5009  -44.5800 H         1 UNK         0.0600 
    164 H164        2.6736  -15.7219  -43.2820 H         1 UNK         0.3000 
    165 H165        0.6872  -15.1909  -41.8340 H         1 UNK         0.0600 
    166 H166       -0.3226  -15.9606  -39.6839 H         1 UNK         0.0600 
    167 H167       -1.0281  -16.7762  -41.0664 H         1 UNK         0.0600 
    168 H168        0.1384  -17.6221  -40.0532 H         1 UNK         0.0600 
    169 H169        2.3294  -16.4920  -39.7686 H         1 UNK         0.3000 
    170 H170        4.0617  -15.3712  -38.9082 H         1 UNK         0.0600 
    171 H171        5.8549  -15.0980  -41.3881 H         1 UNK         0.0600 
    172 H172        6.4043  -15.5085  -39.7632 H         1 UNK         0.0600 
    173 H173        5.3572  -16.6118  -40.6429 H         1 UNK         0.0600 
    174 H174        5.3179  -13.0421  -40.1787 H         1 UNK         0.3000 
    175 H175        3.5840  -10.7025  -38.0716 H         1 UNK         0.0600 
    176 H176        5.8601   -9.7982  -38.3841 H         1 UNK         0.0600 
    177 H177        6.3915  -11.2683  -39.1929 H         1 UNK         0.0600 
    178 H178        5.9714  -11.3004  -37.4835 H         1 UNK         0.0600 
    179 H179        3.7844  -11.4325  -40.8490 H         1 UNK         0.3000 
    180 H180        2.4923   -8.3500  -41.8980 H         1 UNK         0.0600 
    181 H181        4.1372   -8.3404  -43.7010 H         1 UNK         0.0600 
    182 H182        5.1575   -9.5097  -42.8584 H         1 UNK         0.0600 
    183 H183        4.9474   -7.8850  -42.2155 H         1 UNK         0.0600 
    184 H184        3.1535  -10.8038  -43.2765 H         1 UNK         0.3000 
    185 H185        1.1072  -12.8070  -42.7350 H         1 UNK         0.0600 
    186 H186       -1.2071  -11.9892  -42.3972 H         1 UNK         0.0600 
    187 H187       -1.0950  -10.9883  -43.8423 H         1 UNK         0.0600 
    188 H188       -1.0623  -12.7465  -43.9734 H         1 UNK         0.0600 
    189 H189        1.6387  -10.9190  -44.9227 H         1 UNK         0.3000 
    190 H190       -1.8227  -20.5022  -47.4735 H         1 UNK         0.3000 
    191 H191       -3.5439  -21.6553  -49.3956 H         1 UNK         0.0600 
    192 H192       -4.1821  -20.4779  -46.6470 H         1 UNK         0.0600 
    193 H193       -4.1362  -19.6070  -48.1809 H         1 UNK         0.0600 
    194 H194       -5.3674  -20.8267  -47.9003 H         1 UNK         0.0600 
    195 H195       -2.7229  -22.7497  -46.0707 H         1 UNK         0.3000 
    196 H196       -4.4783  -24.9844  -46.0069 H         1 UNK         0.0600 
    197 H197       -3.0106  -25.7565  -44.1405 H         1 UNK         0.0600 
    198 H198       -3.4306  -24.0591  -43.9708 H         1 UNK         0.0600 
    199 H199       -1.8285  -24.5174  -44.5411 H         1 UNK         0.0600 
    200 H200       -1.0601  -24.7002  -47.0940 H         1 UNK         0.3000 
    201 H201       -0.7024  -27.4216  -47.8463 H         1 UNK         0.0600 
    202 H202        1.1763  -25.8275  -47.5126 H         1 UNK         0.0600 
    203 H203        0.6666  -24.8978  -48.9195 H         1 UNK         0.0600 
    204 H204        1.2479  -26.5454  -49.1154 H         1 UNK         0.0600 
    205 H205       -1.9882  -24.6271  -49.6359 H         1 UNK         0.3000 
    206 H206       -2.4680  -26.0066  -52.1257 H         1 UNK         0.0600 
    207 H207       -3.7557  -23.8890  -52.6214 H         1 UNK         0.0600 
    208 H208       -3.5350  -23.3774  -50.9661 H         1 UNK         0.0600 
    209 H209       -2.1381  -23.5596  -52.0227 H         1 UNK         0.0600 
    210 H210       -3.9870  -26.4263  -49.1600 H         1 UNK         0.3000 
    211 H211       -5.8710  -27.2618  -48.3847 H         1 UNK         0.0600 
    212 H212       -6.3403  -28.4078  -51.1886 H         1 UNK         0.0600 
    213 H213       -7.0561  -28.9836  -49.6894 H         1 UNK         0.0600 
    214 H214       -5.3271  -29.1453  -49.9480 H         1 UNK         0.0600 
    215 H215       -5.9225  -24.5882  -49.2556 H         1 UNK         0.3000 
    216 H216       -7.1546  -22.8150  -49.4972 H         1 UNK         0.0600 
    217 H217       -9.4824  -22.7843  -48.7091 H         1 UNK         0.0600 
    218 H218       -8.5320  -23.8298  -47.6686 H         1 UNK         0.0600 
    219 H219       -9.6141  -24.5285  -48.8734 H         1 UNK         0.0600 
    220 H220       -6.9392  -24.8426  -51.9121 H         1 UNK         0.3000 
    221 H221       -9.0980  -23.8928  -53.6633 H         1 UNK         0.0600 
    222 H222       -6.6235  -25.6071  -54.2320 H         1 UNK         0.0600 
    223 H223       -8.2421  -26.2094  -53.8947 H         1 UNK         0.0600 
    224 H224       -7.9345  -25.2847  -55.3577 H         1 UNK         0.0600 
    225 H225       -8.9851  -21.9285  -54.6005 H         1 UNK         0.3000 
    226 H226       -6.8263  -20.1593  -54.4065 H         1 UNK         0.0600 
    227 H227       -9.1755  -19.4384  -54.6945 H         1 UNK         0.0600 
    228 H228       -8.1777  -18.7379  -55.9582 H         1 UNK         0.0600 
    229 H229       -9.2162  -20.1102  -56.3252 H         1 UNK         0.0600 
    230 H230       -7.6147  -22.4211  -57.0071 H         1 UNK         0.3000 
    231 H231       -5.7895  -21.4299  -58.9760 H         1 UNK         0.0600 
    232 H232       -7.0220  -24.2137  -58.5995 H         1 UNK         0.0600 
    233 H233       -6.2180  -23.6425  -60.0567 H         1 UNK         0.0600 
    234 H234       -7.7169  -22.8898  -59.5363 H         1 UNK         0.0600 
    235 H235       -5.3685  -23.5531  -56.1810 H         1 UNK         0.3000 
    236 H236       -2.6479  -24.3878  -56.9815 H         1 UNK         0.0600 
    237 H237       -4.0476  -26.0744  -55.8854 H         1 UNK         0.0600 
    238 H238       -2.7315  -25.6341  -54.8072 H         1 UNK         0.0600 
    239 H239       -4.3501  -25.0101  -54.5190 H         1 UNK         0.0600 
    240 H240       -4.3179  -22.2026  -54.7071 H         1 UNK         0.3000 
    241 H241       -2.0157  -21.2468  -53.3642 H         1 UNK         0.0600 
    242 H242       -3.7284  -19.7946  -56.2722 H         1 UNK         0.3800 
    243 H243       -2.3433  -18.8264  -56.7218 H         1 UNK         0.3800 
    244 H244       -4.4265  -19.4148  -53.7070 H         1 UNK         0.0800 
    245 H245       -4.6588  -20.9297  -52.8990 H         1 UNK         0.0800 
    246 H246       -3.4711  -17.1610  -51.6137 H         1 UNK         0.0800 
    247 H247       -2.7342  -17.7307  -53.0904 H         1 UNK         0.0800 
@<TRIPOS>BOND
     1    1    2 1    
     2    1  127 1    
     3    1  128 1    
     4    1  129 1    
     5    2    3 2    
     6    2    4 am   BACKBONE|DICT|INTERRES
     7    4    5 1    
     8    4  130 1    
     9    5    6 1    
    10    5   65 1    
    11    5  131 1    
    12    6    7 1    
    13    6  132 1    
    14    6  133 1    
    15    7    8 1    
    16    8    9 1    
    17    8  134 1    
    18    8  135 1    
    19    9   10 ar   
    20    9   14 ar   
    21   10   11 ar   
    22   10  136 1    
    23   11   12 ar   
    24   11  126 1    
    25   12   13 ar   
    26   12  137 1    
    27   13   14 ar   
    28   13   15 1    
    29   14  138 1    
    30   15   16 1    
    31   15  139 1    
    32   15  140 1    
    33   16   17 1    
    34   17   18 1    
    35   17  141 1    
    36   17  142 1    
    37   18   19 1    
    38   18   67 1    
    39   18  143 1    
    40   19   20 am   BACKBONE|DICT|INTERRES
    41   19  144 1    
    42   20   21 2    
    43   20   22 1    
    44   22   23 1    
    45   22   24 1    
    46   22  145 1    
    47   23  146 1    
    48   23  147 1    
    49   23  148 1    
    50   24   25 am   BACKBONE|DICT|INTERRES
    51   24  149 1    
    52   25   26 2    
    53   25   27 1    
    54   27   28 1    
    55   27   29 1    
    56   27  150 1    
    57   28  151 1    
    58   28  152 1    
    59   28  153 1    
    60   29   30 am   BACKBONE|DICT|INTERRES
    61   29  154 1    
    62   30   31 2    
    63   30   32 1    
    64   32   33 1    
    65   32   34 1    
    66   32  155 1    
    67   33  156 1    
    68   33  157 1    
    69   33  158 1    
    70   34   35 am   BACKBONE|DICT|INTERRES
    71   34  159 1    
    72   35   36 2    
    73   35   37 1    
    74   37   38 1    
    75   37   39 1    
    76   37  160 1    
    77   38  161 1    
    78   38  162 1    
    79   38  163 1    
    80   39   40 am   BACKBONE|DICT|INTERRES
    81   39  164 1    
    82   40   41 2    
    83   40   42 1    
    84   42   43 1    
    85   42   44 1    
    86   42  165 1    
    87   43  166 1    
    88   43  167 1    
    89   43  168 1    
    90   44   45 am   BACKBONE|DICT|INTERRES
    91   44  169 1    
    92   45   46 2    
    93   45   47 1    
    94   47   48 1    
    95   47   49 1    
    96   47  170 1    
    97   48  171 1    
    98   48  172 1    
    99   48  173 1    
   100   49   50 am   BACKBONE|DICT|INTERRES
   101   49  174 1    
   102   50   51 2    
   103   50   52 1    
   104   52   53 1    
   105   52   54 1    
   106   52  175 1    
   107   53  176 1    
   108   53  177 1    
   109   53  178 1    
   110   54   55 am   BACKBONE|DICT|INTERRES
   111   54  179 1    
   112   55   56 2    
   113   55   57 1    
   114   57   58 1    
   115   57   59 1    
   116   57  180 1    
   117   58  181 1    
   118   58  182 1    
   119   58  183 1    
   120   59   60 am   BACKBONE|DICT|INTERRES
   121   59  184 1    
   122   60   61 2    
   123   60   62 1    
   124   62   63 1    
   125   62   64 1    
   126   62  185 1    
   127   63  186 1    
   128   63  187 1    
   129   63  188 1    
   130   64   65 am   BACKBONE|DICT|INTERRES
   131   64  189 1    
   132   65   66 2    
   133   67   68 2    
   134   67   69 am   BACKBONE|DICT|INTERRES
   135   69   70 1    
   136   69  190 1    
   137   70   71 1    
   138   70   72 1    
   139   70  191 1    
   140   71  192 1    
   141   71  193 1    
   142   71  194 1    
   143   72   73 2    
   144   72   74 am   BACKBONE|DICT|INTERRES
   145   74   75 1    
   146   74  195 1    
   147   75   76 1    
   148   75   77 1    
   149   75  196 1    
   150   76  197 1    
   151   76  198 1    
   152   76  199 1    
   153   77   78 2    
   154   77   79 am   BACKBONE|DICT|INTERRES
   155   79   80 1    
   156   79  200 1    
   157   80   81 1    
   158   80   82 1    
   159   80  201 1    
   160   81  202 1    
   161   81  203 1    
   162   81  204 1    
   163   82   83 2    
   164   82   84 am   BACKBONE|DICT|INTERRES
   165   84   85 1    
   166   84  205 1    
   167   85   86 1    
   168   85   87 1    
   169   85  206 1    
   170   86  207 1    
   171   86  208 1    
   172   86  209 1    
   173   87   88 2    
   174   87   89 am   BACKBONE|DICT|INTERRES
   175   89   90 1    
   176   89  210 1    
   177   90   91 1    
   178   90   92 1    
   179   90  211 1    
   180   91  212 1    
   181   91  213 1    
   182   91  214 1    
   183   92   93 2    
   184   92   94 am   BACKBONE|DICT|INTERRES
   185   94   95 1    
   186   94  215 1    
   187   95   96 1    
   188   95   97 1    
   189   95  216 1    
   190   96  217 1    
   191   96  218 1    
   192   96  219 1    
   193   97   98 2    
   194   97   99 am   BACKBONE|DICT|INTERRES
   195   99  100 1    
   196   99  220 1    
   197  100  101 1    
   198  100  102 1    
   199  100  221 1    
   200  101  222 1    
   201  101  223 1    
   202  101  224 1    
   203  102  103 2    
   204  102  104 am   BACKBONE|DICT|INTERRES
   205  104  105 1    
   206  104  225 1    
   207  105  106 1    
   208  105  107 1    
   209  105  226 1    
   210  106  227 1    
   211  106  228 1    
   212  106  229 1    
   213  107  108 2    
   214  107  109 am   BACKBONE|DICT|INTERRES
   215  109  110 1    
   216  109  230 1    
   217  110  111 1    
   218  110  112 1    
   219  110  231 1    
   220  111  232 1    
   221  111  233 1    
   222  111  234 1    
   223  112  113 2    
   224  112  114 am   BACKBONE|DICT|INTERRES
   225  114  115 1    
   226  114  235 1    
   227  115  116 1    
   228  115  117 1    
   229  115  236 1    
   230  116  237 1    
   231  116  238 1    
   232  116  239 1    
   233  117  118 2    
   234  117  119 am   BACKBONE|DICT|INTERRES
   235  119  120 1    
   236  119  240 1    
   237  120  121 1    
   238  120  124 1    
   239  120  241 1    
   240  121  122 am   BACKBONE|DICT|INTERRES
   241  121  123 2    
   242  122  242 1    
   243  122  243 1    
   244  124  125 1    
   245  124  244 1    
   246  124  245 1    
   247  125  126 1    
   248  126  246 1    
   249  126  247 1    
@<TRIPOS>SUBSTRUCTURE
     1 UNK         1 GROUP             0       ****    0 ROOT    
