@<TRIPOS>MOLECULE
3R540
247   249    1
SMALL
USER_CHARGES


@<TRIPOS>ATOM
      1 CA         -3.5652  -17.1129  -45.7334 C.3       0 UNK        -0.1800 
      2 C          -2.7325  -16.1091  -46.5190 C.2       0 UNK         0.5000 
      3 O          -1.5682  -16.3790  -46.8040 O.2       0 UNK        -0.5000 
      4 N          -3.3195  -14.9512  -46.8525 N.am      1 UNK        -0.5000 
      5 CA         -2.7802  -13.8492  -47.6705 C.3       1 UNK         0.1400 
      6 C6         -2.4222  -14.2595  -49.1235 C.3       23 UNK        -0.0398 
      7 S7         -3.8853  -14.7765  -50.0806 S.3       23 UNK        -0.2404 
      8 C8         -3.1312  -15.8731  -51.3222 C.3       23 UNK        -0.0205 
      9 C9         -2.8943  -17.2720  -50.7754 C.ar      23 UNK        -0.0193 
     10 C10        -3.9723  -18.1510  -50.6369 C.ar      23 UNK        -0.1150 
     11 C11        -3.7781  -19.4551  -50.1665 C.ar      23 UNK        -0.0193 
     12 C12        -2.4873  -19.8607  -49.8234 C.ar      23 UNK        -0.1150 
     13 C13        -1.4003  -18.9906  -49.9417 C.ar      23 UNK        -0.0193 
     14 C14        -1.6086  -17.6960  -50.4250 C.ar      23 UNK        -0.1150 
     15 C15        -0.0046  -19.4658  -49.5576 C.3       23 UNK        -0.0205 
     16 S16         0.5058  -18.9366  -47.8872 S.3       23 UNK        -0.2404 
     17 C17        -0.8234  -19.6128  -46.8344 C.3       23 UNK        -0.0398 
     18 CA         -0.6233  -21.1100  -46.4953 C.3       11 UNK         0.1400 
     19 N           0.3680  -21.2973  -45.4298 N.am      11 UNK        -0.5000 
     20 C           0.8434  -22.4767  -45.0064 C.2       10 UNK         0.5000 
     21 O           0.5343  -23.5610  -45.4979 O.2       10 UNK        -0.5000 
     22 CA          1.7664  -22.4473  -43.7737 C.3       10 UNK         0.1400 
     23 CB          3.1931  -22.0222  -44.1519 C.3       10 UNK        -0.1800 
     24 N           1.2463  -21.5822  -42.7124 N.am      10 UNK        -0.5000 
     25 C           0.0945  -21.8045  -42.0623 C.2       9 UNK         0.5000 
     26 O          -0.6112  -22.7943  -42.2508 O.2       9 UNK        -0.5000 
     27 CA         -0.3778  -20.7263  -41.0715 C.3       9 UNK         0.1400 
     28 CB          0.3154  -20.8959  -39.7118 C.3       9 UNK        -0.1800 
     29 N          -0.1702  -19.3674  -41.5725 N.am      9 UNK        -0.5000 
     30 C          -0.7767  -18.8521  -42.6521 C.2       8 UNK         0.5000 
     31 O          -1.6246  -19.4541  -43.3093 O.2       8 UNK        -0.5000 
     32 CA         -0.3201  -17.4538  -43.1093 C.3       8 UNK         0.1400 
     33 CB         -1.0075  -16.3525  -42.2908 C.3       8 UNK        -0.1800 
     34 N           1.1314  -17.2889  -43.0380 N.am      8 UNK        -0.5000 
     35 C           2.0079  -18.0137  -43.7480 C.2       7 UNK         0.5000 
     36 O           1.6811  -18.8725  -44.5651 O.2       7 UNK        -0.5000 
     37 CA          3.4983  -17.7869  -43.4487 C.3       7 UNK         0.1400 
     38 CB          4.0283  -16.5413  -44.1706 C.3       7 UNK        -0.1800 
     39 N           3.7482  -17.6681  -42.0135 N.am      7 UNK        -0.5000 
     40 C           3.6605  -18.6882  -41.1490 C.2       6 UNK         0.5000 
     41 O           3.3971  -19.8445  -41.4792 O.2       6 UNK        -0.5000 
     42 CA          3.8637  -18.3466  -39.6619 C.3       6 UNK         0.1400 
     43 CB          5.3593  -18.2938  -39.3162 C.3       6 UNK        -0.1800 
     44 N           3.2318  -17.0807  -39.2840 N.am      6 UNK        -0.5000 
     45 C           1.9074  -16.8751  -39.2696 C.2       5 UNK         0.5000 
     46 O           1.0796  -17.7364  -39.5604 O.2       5 UNK        -0.5000 
     47 CA          1.4258  -15.4593  -38.9086 C.3       5 UNK         0.1400 
     48 CB          1.3110  -15.3005  -37.3852 C.3       5 UNK        -0.1800 
     49 N           2.2742  -14.3932  -39.4466 N.am      5 UNK        -0.5000 
     50 C           2.4867  -14.1719  -40.7498 C.2       4 UNK         0.5000 
     51 O           2.0590  -14.8967  -41.6514 O.2       4 UNK        -0.5000 
     52 CA          3.3425  -12.9472  -41.1071 C.3       4 UNK         0.1400 
     53 CB          4.7171  -13.3778  -41.6416 C.3       4 UNK        -0.1800 
     54 N           2.6636  -12.1349  -42.1129 N.am      4 UNK        -0.5000 
     55 C           1.6382  -11.3104  -41.8567 C.2       3 UNK         0.5000 
     56 O           1.2085  -11.0857  -40.7244 O.2       3 UNK        -0.5000 
     57 CA          0.9847  -10.6159  -43.0665 C.3       3 UNK         0.1400 
     58 CB          1.6426   -9.2512  -43.3232 C.3       3 UNK        -0.1800 
     59 N           1.0616  -11.4225  -44.2864 N.am      3 UNK        -0.5000 
     60 C           0.2710  -12.4719  -44.5441 C.2       2 UNK         0.5000 
     61 O          -0.6353  -12.8504  -43.7984 O.2       2 UNK        -0.5000 
     62 CA          0.5759  -13.2409  -45.8423 C.3       2 UNK         0.1400 
     63 CB          1.5523  -14.3910  -45.5621 C.3       2 UNK        -0.1800 
     64 N          -0.6252  -13.7883  -46.4672 N.am      2 UNK        -0.5000 
     65 C          -1.6076  -13.0748  -47.0261 C.2       1 UNK         0.5000 
     66 O          -1.6071  -11.8432  -47.0717 O.2       1 UNK        -0.5000 
     67 C          -1.9802  -21.7762  -46.1763 C.2       11 UNK         0.5000 
     68 O          -2.6328  -22.2815  -47.0889 O.2       11 UNK        -0.5000 
     69 N          -2.3896  -21.7751  -44.9008 N.am      12 UNK        -0.5000 
     70 CA         -3.5906  -22.4651  -44.4315 C.3       12 UNK         0.1400 
     71 CB         -3.9797  -21.9379  -43.0421 C.3       12 UNK        -0.1800 
     72 C          -3.4179  -23.9964  -44.4143 C.2       12 UNK         0.5000 
     73 O          -4.3553  -24.7138  -44.7656 O.2       12 UNK        -0.5000 
     74 N          -2.2308  -24.4685  -44.0080 N.am      13 UNK        -0.5000 
     75 CA         -1.8757  -25.8861  -43.9325 C.3       13 UNK         0.1400 
     76 CB         -0.5857  -26.0498  -43.1139 C.3       13 UNK        -0.1800 
     77 C          -1.7336  -26.5515  -45.3139 C.2       13 UNK         0.5000 
     78 O          -2.2107  -27.6732  -45.4938 O.2       13 UNK        -0.5000 
     79 N          -1.0939  -25.8561  -46.2605 N.am      14 UNK        -0.5000 
     80 CA         -0.9030  -26.2942  -47.6386 C.3       14 UNK         0.1400 
     81 CB          0.4921  -26.9232  -47.7941 C.3       14 UNK        -0.1800 
     82 C          -1.0849  -25.0765  -48.5509 C.2       14 UNK         0.5000 
     83 O          -0.2863  -24.1426  -48.4734 O.2       14 UNK        -0.5000 
     84 N          -2.1450  -25.1002  -49.3706 N.am      15 UNK        -0.5000 
     85 CA         -2.5792  -23.9855  -50.2129 C.3       15 UNK         0.1400 
     86 CB         -3.9095  -24.3359  -50.8978 C.3       15 UNK        -0.1800 
     87 C          -1.5213  -23.5350  -51.2335 C.2       15 UNK         0.5000 
     88 O          -1.0351  -22.4105  -51.1396 O.2       15 UNK        -0.5000 
     89 N          -1.1993  -24.4118  -52.1963 N.am      16 UNK        -0.5000 
     90 CA         -0.2081  -24.2710  -53.2784 C.3       16 UNK         0.1400 
     91 CB          1.2144  -24.1733  -52.6955 C.3       16 UNK        -0.1800 
     92 C          -0.4541  -23.1327  -54.2983 C.2       16 UNK         0.5000 
     93 O          -0.0685  -23.2768  -55.4599 O.2       16 UNK        -0.5000 
     94 N          -1.0780  -22.0305  -53.8675 N.am      17 UNK        -0.5000 
     95 CA         -1.3793  -20.8168  -54.6227 C.3       17 UNK         0.1400 
     96 CB         -1.6918  -19.6858  -53.6272 C.3       17 UNK        -0.1800 
     97 C          -2.5013  -21.0173  -55.6614 C.2       17 UNK         0.5000 
     98 O          -3.5665  -20.4016  -55.5679 O.2       17 UNK        -0.5000 
     99 N          -2.2287  -21.8596  -56.6645 N.am      18 UNK        -0.5000 
    100 CA        -3.0877  -22.1089  -57.8243 C.3       18 UNK         0.1400 
    101 CB        -2.4909  -23.2513  -58.6584 C.3       18 UNK        -0.1800 
    102 C         -3.3035  -20.8546  -58.6936 C.2       18 UNK         0.5000 
    103 O         -4.3738  -20.7026  -59.2807 O.2       18 UNK        -0.5000 
    104 N         -2.3149  -19.9481  -58.7076 N.am      19 UNK        -0.5000 
    105 CA        -2.3824  -18.6345  -59.3549 C.3       19 UNK         0.1400 
    106 CB        -0.9818  -18.0035  -59.3495 C.3       19 UNK        -0.1800 
    107 C         -3.4052  -17.6813  -58.7015 C.2       19 UNK         0.5000 
    108 O         -3.9452  -16.8125  -59.3867 O.2       19 UNK        -0.5000 
    109 N         -3.6719  -17.8776  -57.4024 N.am      20 UNK        -0.5000 
    110 CA        -4.7087  -17.1789  -56.6391 C.3       20 UNK         0.1400 
    111 CB        -4.1955  -16.9530  -55.2058 C.3       20 UNK        -0.1800 
    112 C         -6.0394  -17.9609  -56.6218 C.2       20 UNK         0.5000 
    113 O         -6.9939  -17.5042  -55.9919 O.2       20 UNK        -0.5000 
    114 N         -6.0720  -19.1293  -57.2841 N.am      21 UNK        -0.5000 
    115 CA        -7.1556  -20.1163  -57.3215 C.3       21 UNK         0.1400 
    116 CB        -8.4030  -19.5406  -58.0242 C.3       21 UNK        -0.1800 
    117 C         -7.4669  -20.7292  -55.9386 C.2       21 UNK         0.5000 
    118 O         -8.6051  -21.1325  -55.6913 O.2       21 UNK        -0.5000 
    119 N         -6.4550  -20.7906  -55.0609 N.am      22 UNK        -0.5000 
    120 CA        -6.5781  -21.2990  -53.6858 C.3       22 UNK         0.1400 
    121 C         -6.4900  -22.8485  -53.5641 C.2       22 UNK         0.5000 
    122 N         -6.0712  -23.5723  -54.5954 N.am      22 UNK        -0.7600 
    123 O         -6.8263  -23.4075  -52.5248 O.2       22 UNK        -0.5000 
    124 C124       -5.5871  -20.5775  -52.7316 C.3       23 UNK        -0.0398 
    125 S125       -6.3414  -20.2043  -51.1121 S.3       23 UNK        -0.2404 
    126 C126       -4.9328  -20.4383  -49.9767 C.3       23 UNK        -0.0205 
    127 H127       -4.5565  -16.7241  -45.5000 H         1 UNK         0.0600 
    128 H128       -3.0692  -17.3644  -44.7962 H         1 UNK         0.0600 
    129 H129       -3.6867  -18.0294  -46.3107 H         1 UNK         0.0600 
    130 H130       -4.2708  -14.8024  -46.5472 H         1 UNK         0.3000 
    131 H131       -3.5973  -13.1284  -47.7349 H         1 UNK         0.0600 
    132 H132       -1.9701  -13.4240  -49.6615 H         1 UNK         0.0800 
    133 H133       -1.6790  -15.0576  -49.1243 H         1 UNK         0.0800 
    134 H134       -2.2025  -15.4345  -51.6907 H         1 UNK         0.0800 
    135 H135       -3.7978  -15.9370  -52.1834 H         1 UNK         0.0800 
    136 H136       -4.9635  -17.8076  -50.8953 H         1 UNK         0.1150 
    137 H137       -2.3243  -20.8580  -49.4425 H         1 UNK         0.1150 
    138 H138       -0.7701  -17.0215  -50.5237 H         1 UNK         0.1150 
    139 H139        0.0554  -20.5532  -49.6158 H         1 UNK         0.0800 
    140 H140        0.7176  -19.0877  -50.2823 H         1 UNK         0.0800 
    141 H141       -1.7815  -19.4233  -47.3156 H         1 UNK         0.0800 
    142 H142       -0.8579  -19.0217  -45.9191 H         1 UNK         0.0800 
    143 H143       -0.2402  -21.6181  -47.3824 H         1 UNK         0.0600 
    144 H144        0.7232  -20.4477  -44.9972 H         1 UNK         0.3000 
    145 H145        1.8171  -23.4625  -43.3749 H         1 UNK         0.0600 
    146 H146        3.2238  -21.0105  -44.5549 H         1 UNK         0.0600 
    147 H147        3.8566  -22.0576  -43.2877 H         1 UNK         0.0600 
    148 H148        3.6083  -22.6882  -44.9092 H         1 UNK         0.0600 
    149 H149        1.7989  -20.7665  -42.4731 H         1 UNK         0.3000 
    150 H150       -1.4506  -20.8633  -40.9215 H         1 UNK         0.0600 
    151 H151        0.1681  -21.9034  -39.3208 H         1 UNK         0.0600 
    152 H152       -0.0872  -20.2001  -38.9756 H         1 UNK         0.0600 
    153 H153        1.3896  -20.7240  -39.7823 H         1 UNK         0.0600 
    154 H154        0.4700  -18.7829  -41.0421 H         1 UNK         0.3000 
    155 H155       -0.6125  -17.3300  -44.1538 H         1 UNK         0.0600 
    156 H156       -0.7534  -16.4184  -41.2331 H         1 UNK         0.0600 
    157 H157       -0.7175  -15.3625  -42.6430 H         1 UNK         0.0600 
    158 H158       -2.0924  -16.4239  -42.3750 H         1 UNK         0.0600 
    159 H159        1.4810  -16.5669  -42.4137 H         1 UNK         0.3000 
    160 H160        4.0490  -18.6526  -43.8231 H         1 UNK         0.0600 
    161 H161        3.8467  -16.6050  -45.2443 H         1 UNK         0.0600 
    162 H162        3.5448  -15.6359  -43.8077 H         1 UNK         0.0600 
    163 H163        5.1028  -16.4287  -44.0268 H         1 UNK         0.0600 
    164 H164        3.9129  -16.7398  -41.6545 H         1 UNK         0.3000 
    165 H165        3.4056  -19.1439  -39.0726 H         1 UNK         0.0600 
    166 H166        5.5116  -18.1311  -38.2490 H         1 UNK         0.0600 
    167 H167        5.8523  -19.2321  -39.5743 H         1 UNK         0.0600 
    168 H168        5.8711  -17.4950  -39.8544 H         1 UNK         0.0600 
    169 H169        3.8424  -16.3174  -39.0327 H         1 UNK         0.3000 
    170 H170        0.4297  -15.3337  -39.3375 H         1 UNK         0.0600 
    171 H171        0.6674  -16.0719  -36.9598 H         1 UNK         0.0600 
    172 H172        2.2831  -15.3777  -36.8967 H         1 UNK         0.0600 
    173 H173        0.8771  -14.3360  -37.1206 H         1 UNK         0.0600 
    174 H174        2.6663  -13.7516  -38.7725 H         1 UNK         0.3000 
    175 H175        3.5000  -12.3425  -40.2113 H         1 UNK         0.0600 
    176 H176        4.6338  -13.9460  -42.5677 H         1 UNK         0.0600 
    177 H177        5.3494  -12.5119  -41.8389 H         1 UNK         0.0600 
    178 H178        5.2408  -14.0031  -40.9174 H         1 UNK         0.0600 
    179 H179        2.9239  -12.2948  -43.0737 H         1 UNK         0.3000 
    180 H180       -0.0664  -10.4444  -42.8238 H         1 UNK         0.0600 
    181 H181        2.6977   -9.3531  -43.5806 H         1 UNK         0.0600 
    182 H182        1.5806   -8.6159  -42.4387 H         1 UNK         0.0600 
    183 H183        1.1472   -8.7216  -44.1372 H         1 UNK         0.0600 
    184 H184        1.7757  -11.1659  -44.9529 H         1 UNK         0.3000 
    185 H185        1.0400  -12.5575  -46.5564 H         1 UNK         0.0600 
    186 H186        1.7856  -14.9471  -46.4704 H         1 UNK         0.0600 
    187 H187        2.4924  -14.0109  -45.1620 H         1 UNK         0.0600 
    188 H188        1.1421  -15.0931  -44.8357 H         1 UNK         0.0600 
    189 H189       -0.7297  -14.8008  -46.4687 H         1 UNK         0.3000 
    190 H190       -1.8550  -21.2578  -44.2110 H         1 UNK         0.3000 
    191 H191       -4.4083  -22.2306  -45.1165 H         1 UNK         0.0600 
    192 H192       -3.2074  -22.1402  -42.3004 H         1 UNK         0.0600 
    193 H193       -4.9003  -22.4063  -42.6921 H         1 UNK         0.0600 
    194 H194       -4.1492  -20.8612  -43.0627 H         1 UNK         0.0600 
    195 H195       -1.5334  -23.8089  -43.6769 H         1 UNK         0.3000 
    196 H196       -2.6768  -26.4020  -43.3990 H         1 UNK         0.0600 
    197 H197       -0.3115  -27.1014  -43.0225 H         1 UNK         0.0600 
    198 H198       -0.7072  -25.6563  -42.1045 H         1 UNK         0.0600 
    199 H199        0.2539  -25.5302  -43.5759 H         1 UNK         0.0600 
    200 H200       -0.7037  -24.9423  -46.0354 H         1 UNK         0.3000 
    201 H201       -1.6514  -27.0437  -47.9049 H         1 UNK         0.0600 
    202 H202        0.5939  -27.8126  -47.1722 H         1 UNK         0.0600 
    203 H203        1.2813  -26.2253  -47.5107 H         1 UNK         0.0600 
    204 H204        0.6716  -27.2235  -48.8270 H         1 UNK         0.0600 
    205 H205       -2.7442  -25.9125  -49.3644 H         1 UNK         0.3000 
    206 H206       -2.7672  -23.1385  -49.5532 H         1 UNK         0.0600 
    207 H207       -4.7064  -24.4665  -50.1655 H         1 UNK         0.0600 
    208 H208       -4.2206  -23.5367  -51.5711 H         1 UNK         0.0600 
    209 H209       -3.8423  -25.2518  -51.4854 H         1 UNK         0.0600 
    210 H210       -1.6832  -25.2984  -52.1857 H         1 UNK         0.3000 
    211 H211       -0.2640  -25.2008  -53.8466 H         1 UNK         0.0600 
    212 H212        1.3540  -23.2600  -52.1162 H         1 UNK         0.0600 
    213 H213        1.9627  -24.1732  -53.4891 H         1 UNK         0.0600 
    214 H214        1.4321  -25.0193  -52.0436 H         1 UNK         0.0600 
    215 H215       -1.2806  -21.9970  -52.8712 H         1 UNK         0.3000 
    216 H216       -0.4808  -20.5305  -55.1728 H         1 UNK         0.0600 
    217 H217       -1.8586  -18.7408  -54.1443 H         1 UNK         0.0600 
    218 H218       -0.8639  -19.5309  -52.9352 H         1 UNK         0.0600 
    219 H219       -2.5810  -19.9006  -53.0343 H         1 UNK         0.0600 
    220 H220       -1.3550  -22.3759  -56.6155 H         1 UNK         0.3000 
    221 H221       -4.0649  -22.4261  -57.4550 H         1 UNK         0.0600 
    222 H222       -1.4988  -22.9989  -59.0350 H         1 UNK         0.0600 
    223 H223       -2.4034  -24.1646  -58.0695 H         1 UNK         0.0600 
    224 H224       -3.1220  -23.4787  -59.5186 H         1 UNK         0.0600 
    225 H225       -1.4661  -20.1619  -58.2050 H         1 UNK         0.3000 
    226 H226       -2.6878  -18.7845  -60.3926 H         1 UNK         0.0600 
    227 H227       -0.2632  -18.6326  -59.8751 H         1 UNK         0.0600 
    228 H228       -0.9884  -17.0336  -59.8487 H         1 UNK         0.0600 
    229 H229       -0.6141  -17.8476  -58.3344 H         1 UNK         0.0600 
    230 H230       -3.2114  -18.6371  -56.9190 H         1 UNK         0.3000 
    231 H231       -4.9062  -16.2028  -57.0867 H         1 UNK         0.0600 
    232 H232       -4.8948  -16.3436  -54.6322 H         1 UNK         0.0600 
    233 H233       -3.2372  -16.4336  -55.2037 H         1 UNK         0.0600 
    234 H234       -4.0703  -17.8933  -54.6687 H         1 UNK         0.0600 
    235 H235       -5.2413  -19.3999  -57.7943 H         1 UNK         0.3000 
    236 H236       -6.7901  -20.9410  -57.9343 H         1 UNK         0.0600 
    237 H237       -9.1484  -20.3177  -58.1967 H         1 UNK         0.0600 
    238 H238       -8.1473  -19.1179  -58.9958 H         1 UNK         0.0600 
    239 H239       -8.8789  -18.7587  -57.4320 H         1 UNK         0.0600 
    240 H240       -5.5303  -20.4780  -55.3416 H         1 UNK         0.3000 
    241 H241       -7.5888  -21.0473  -53.3582 H         1 UNK         0.0600 
    242 H242       -5.8094  -23.1278  -55.4593 H         1 UNK         0.3800 
    243 H243       -6.0325  -24.5758  -54.5125 H         1 UNK         0.3800 
    244 H244       -4.6666  -21.1498  -52.6036 H         1 UNK         0.0800 
    245 H245       -5.2771  -19.6196  -53.1524 H         1 UNK         0.0800 
    246 H246       -4.5757  -21.4635  -50.0797 H         1 UNK         0.0800 
    247 H247       -5.2953  -20.3422  -48.9526 H         1 UNK         0.0800 
@<TRIPOS>BOND
     1    1    2 1    
     2    1  127 1    
     3    1  128 1    
     4    1  129 1    
     5    2    3 2    
     6    2    4 am   BACKBONE|DICT|INTERRES
     7    4    5 1    
     8    4  130 1    
     9    5    6 1    
    10    5   65 1    
    11    5  131 1    
    12    6    7 1    
    13    6  132 1    
    14    6  133 1    
    15    7    8 1    
    16    8    9 1    
    17    8  134 1    
    18    8  135 1    
    19    9   10 ar   
    20    9   14 ar   
    21   10   11 ar   
    22   10  136 1    
    23   11   12 ar   
    24   11  126 1    
    25   12   13 ar   
    26   12  137 1    
    27   13   14 ar   
    28   13   15 1    
    29   14  138 1    
    30   15   16 1    
    31   15  139 1    
    32   15  140 1    
    33   16   17 1    
    34   17   18 1    
    35   17  141 1    
    36   17  142 1    
    37   18   19 1    
    38   18   67 1    
    39   18  143 1    
    40   19   20 am   BACKBONE|DICT|INTERRES
    41   19  144 1    
    42   20   21 2    
    43   20   22 1    
    44   22   23 1    
    45   22   24 1    
    46   22  145 1    
    47   23  146 1    
    48   23  147 1    
    49   23  148 1    
    50   24   25 am   BACKBONE|DICT|INTERRES
    51   24  149 1    
    52   25   26 2    
    53   25   27 1    
    54   27   28 1    
    55   27   29 1    
    56   27  150 1    
    57   28  151 1    
    58   28  152 1    
    59   28  153 1    
    60   29   30 am   BACKBONE|DICT|INTERRES
    61   29  154 1    
    62   30   31 2    
    63   30   32 1    
    64   32   33 1    
    65   32   34 1    
    66   32  155 1    
    67   33  156 1    
    68   33  157 1    
    69   33  158 1    
    70   34   35 am   BACKBONE|DICT|INTERRES
    71   34  159 1    
    72   35   36 2    
    73   35   37 1    
    74   37   38 1    
    75   37   39 1    
    76   37  160 1    
    77   38  161 1    
    78   38  162 1    
    79   38  163 1    
    80   39   40 am   BACKBONE|DICT|INTERRES
    81   39  164 1    
    82   40   41 2    
    83   40   42 1    
    84   42   43 1    
    85   42   44 1    
    86   42  165 1    
    87   43  166 1    
    88   43  167 1    
    89   43  168 1    
    90   44   45 am   BACKBONE|DICT|INTERRES
    91   44  169 1    
    92   45   46 2    
    93   45   47 1    
    94   47   48 1    
    95   47   49 1    
    96   47  170 1    
    97   48  171 1    
    98   48  172 1    
    99   48  173 1    
   100   49   50 am   BACKBONE|DICT|INTERRES
   101   49  174 1    
   102   50   51 2    
   103   50   52 1    
   104   52   53 1    
   105   52   54 1    
   106   52  175 1    
   107   53  176 1    
   108   53  177 1    
   109   53  178 1    
   110   54   55 am   BACKBONE|DICT|INTERRES
   111   54  179 1    
   112   55   56 2    
   113   55   57 1    
   114   57   58 1    
   115   57   59 1    
   116   57  180 1    
   117   58  181 1    
   118   58  182 1    
   119   58  183 1    
   120   59   60 am   BACKBONE|DICT|INTERRES
   121   59  184 1    
   122   60   61 2    
   123   60   62 1    
   124   62   63 1    
   125   62   64 1    
   126   62  185 1    
   127   63  186 1    
   128   63  187 1    
   129   63  188 1    
   130   64   65 am   BACKBONE|DICT|INTERRES
   131   64  189 1    
   132   65   66 2    
   133   67   68 2    
   134   67   69 am   BACKBONE|DICT|INTERRES
   135   69   70 1    
   136   69  190 1    
   137   70   71 1    
   138   70   72 1    
   139   70  191 1    
   140   71  192 1    
   141   71  193 1    
   142   71  194 1    
   143   72   73 2    
   144   72   74 am   BACKBONE|DICT|INTERRES
   145   74   75 1    
   146   74  195 1    
   147   75   76 1    
   148   75   77 1    
   149   75  196 1    
   150   76  197 1    
   151   76  198 1    
   152   76  199 1    
   153   77   78 2    
   154   77   79 am   BACKBONE|DICT|INTERRES
   155   79   80 1    
   156   79  200 1    
   157   80   81 1    
   158   80   82 1    
   159   80  201 1    
   160   81  202 1    
   161   81  203 1    
   162   81  204 1    
   163   82   83 2    
   164   82   84 am   BACKBONE|DICT|INTERRES
   165   84   85 1    
   166   84  205 1    
   167   85   86 1    
   168   85   87 1    
   169   85  206 1    
   170   86  207 1    
   171   86  208 1    
   172   86  209 1    
   173   87   88 2    
   174   87   89 am   BACKBONE|DICT|INTERRES
   175   89   90 1    
   176   89  210 1    
   177   90   91 1    
   178   90   92 1    
   179   90  211 1    
   180   91  212 1    
   181   91  213 1    
   182   91  214 1    
   183   92   93 2    
   184   92   94 am   BACKBONE|DICT|INTERRES
   185   94   95 1    
   186   94  215 1    
   187   95   96 1    
   188   95   97 1    
   189   95  216 1    
   190   96  217 1    
   191   96  218 1    
   192   96  219 1    
   193   97   98 2    
   194   97   99 am   BACKBONE|DICT|INTERRES
   195   99  100 1    
   196   99  220 1    
   197  100  101 1    
   198  100  102 1    
   199  100  221 1    
   200  101  222 1    
   201  101  223 1    
   202  101  224 1    
   203  102  103 2    
   204  102  104 am   BACKBONE|DICT|INTERRES
   205  104  105 1    
   206  104  225 1    
   207  105  106 1    
   208  105  107 1    
   209  105  226 1    
   210  106  227 1    
   211  106  228 1    
   212  106  229 1    
   213  107  108 2    
   214  107  109 am   BACKBONE|DICT|INTERRES
   215  109  110 1    
   216  109  230 1    
   217  110  111 1    
   218  110  112 1    
   219  110  231 1    
   220  111  232 1    
   221  111  233 1    
   222  111  234 1    
   223  112  113 2    
   224  112  114 am   BACKBONE|DICT|INTERRES
   225  114  115 1    
   226  114  235 1    
   227  115  116 1    
   228  115  117 1    
   229  115  236 1    
   230  116  237 1    
   231  116  238 1    
   232  116  239 1    
   233  117  118 2    
   234  117  119 am   BACKBONE|DICT|INTERRES
   235  119  120 1    
   236  119  240 1    
   237  120  121 1    
   238  120  124 1    
   239  120  241 1    
   240  121  122 am   BACKBONE|DICT|INTERRES
   241  121  123 2    
   242  122  242 1    
   243  122  243 1    
   244  124  125 1    
   245  124  244 1    
   246  124  245 1    
   247  125  126 1    
   248  126  246 1    
   249  126  247 1    
@<TRIPOS>SUBSTRUCTURE
     1 UNK         1 GROUP             0       ****    0 ROOT    
