@<TRIPOS>MOLECULE
3R540
247   249    1
SMALL
USER_CHARGES


@<TRIPOS>ATOM
      1 CA          2.8939  -11.3128  -45.2888 C.3       0 UNK        -0.1800 
      2 C           3.2781  -11.0385  -46.7357 C.2       0 UNK         0.5000 
      3 O           2.8440  -10.0389  -47.3085 O.2       0 UNK        -0.5000 
      4 N           4.0888  -11.9208  -47.3239 N.am      1 UNK        -0.5000 
      5 CA          4.5835  -11.8383  -48.6974 C.3       1 UNK         0.1400 
      6 C6          3.5074  -12.2187  -49.7581 C.3       23 UNK        -0.0398 
      7 S7          2.8716  -13.9222  -49.5836 S.3       23 UNK        -0.2404 
      8 C8          1.4054  -13.8820  -50.6725 C.3       23 UNK        -0.0205 
      9 C9          0.4905  -15.0971  -50.5152 C.ar      23 UNK        -0.0193 
     10 C10        -0.8933  -14.9462  -50.6535 C.ar      23 UNK        -0.1150 
     11 C11        -1.7544  -16.0436  -50.5205 C.ar      23 UNK        -0.0193 
     12 C12        -1.2202  -17.2950  -50.1971 C.ar      23 UNK        -0.1150 
     13 C13         0.1585  -17.4616  -50.0519 C.ar      23 UNK        -0.0193 
     14 C14         1.0053  -16.3680  -50.2399 C.ar      23 UNK        -0.1150 
     15 C15         0.7463  -18.8158  -49.6900 C.3       23 UNK        -0.0205 
     16 S16         1.3766  -18.8289  -47.9819 S.3       23 UNK        -0.2404 
     17 C17        -0.1522  -19.0605  -47.0194 C.3       23 UNK        -0.0398 
     18 CA         -0.3433  -20.5535  -46.6390 C.3       11 UNK         0.1400 
     19 N          -0.3247  -20.7790  -45.1926 N.am      11 UNK        -0.5000 
     20 C          -0.1245  -21.9762  -44.6243 C.2       10 UNK         0.5000 
     21 O           0.0778  -23.0108  -45.2600 O.2       10 UNK        -0.5000 
     22 CA         -0.2083  -22.0290  -43.0889 C.3       10 UNK         0.1400 
     23 CB          1.0983  -21.5249  -42.4582 C.3       10 UNK        -0.1800 
     24 N          -1.3289  -21.2470  -42.5671 N.am      10 UNK        -0.5000 
     25 C          -2.6211  -21.5195  -42.7974 C.2       9 UNK         0.5000 
     26 O          -3.0134  -22.4895  -43.4448 O.2       9 UNK        -0.5000 
     27 CA         -3.6417  -20.5017  -42.2583 C.3       9 UNK         0.1400 
     28 CB         -3.9858  -20.8033  -40.7926 C.3       9 UNK        -0.1800 
     29 N          -3.1802  -19.1169  -42.3716 N.am      9 UNK        -0.5000 
     30 C          -2.8846  -18.4880  -43.5157 C.2       8 UNK         0.5000 
     31 O          -2.9476  -19.0191  -44.6237 O.2       8 UNK        -0.5000 
     32 CA         -2.3862  -17.0403  -43.4078 C.3       8 UNK         0.1400 
     33 CB         -3.5269  -16.0677  -43.0544 C.3       8 UNK        -0.1800 
     34 N          -1.2347  -16.8876  -42.5142 N.am      8 UNK        -0.5000 
     35 C          -1.1689  -16.9816  -41.1778 C.2       7 UNK         0.5000 
     36 O          -2.1181  -17.2894  -40.4561 O.2       7 UNK        -0.5000 
     37 CA          0.2002  -16.6717  -40.5467 C.3       7 UNK         0.1400 
     38 CB          1.0683  -17.9385  -40.4922 C.3       7 UNK        -0.1800 
     39 N           0.9042  -15.6295  -41.2971 N.am      7 UNK        -0.5000 
     40 C           0.6560  -14.3161  -41.1794 C.2       6 UNK         0.5000 
     41 O          -0.0914  -13.8335  -40.3280 O.2       6 UNK        -0.5000 
     42 CA          1.3380  -13.3880  -42.2043 C.3       6 UNK         0.1400 
     43 CB          2.7481  -13.0025  -41.7315 C.3       6 UNK        -0.1800 
     44 N           1.4215  -13.9945  -43.5343 N.am      6 UNK        -0.5000 
     45 C           0.3698  -14.2339  -44.3325 C.2       5 UNK         0.5000 
     46 O          -0.7749  -13.8595  -44.0816 O.2       5 UNK        -0.5000 
     47 CA          0.6282  -15.0606  -45.6087 C.3       5 UNK         0.1400 
     48 CB          0.6292  -14.1621  -46.8490 C.3       5 UNK        -0.1800 
     49 N           1.8733  -15.8336  -45.5661 N.am      5 UNK        -0.5000 
     50 C           2.1000  -16.8728  -44.7558 C.2       4 UNK         0.5000 
     51 O           1.2424  -17.2981  -43.9781 O.2       4 UNK        -0.5000 
     52 CA          3.5122  -17.5057  -44.7671 C.3       4 UNK         0.1400 
     53 CB          3.5131  -18.9060  -44.1266 C.3       4 UNK        -0.1800 
     54 N           4.1717  -17.6017  -46.0749 N.am      4 UNK        -0.5000 
     55 C           4.6405  -16.6048  -46.8368 C.2       3 UNK         0.5000 
     56 O           4.4509  -15.4086  -46.5946 O.2       3 UNK        -0.5000 
     57 CA          5.4904  -17.0274  -48.0505 C.3       3 UNK         0.1400 
     58 CB          4.7670  -18.0265  -48.9697 C.3       3 UNK        -0.1800 
     59 N           5.8638  -15.8527  -48.8306 N.am      3 UNK        -0.5000 
     60 C           7.0799  -15.5893  -49.3241 C.2       2 UNK         0.5000 
     61 O           8.0412  -16.3513  -49.2102 O.2       2 UNK        -0.5000 
     62 CA          7.2630  -14.2558  -50.0832 C.3       2 UNK         0.1400 
     63 CB          7.4379  -14.5137  -51.5883 C.3       2 UNK        -0.1800 
     64 N           6.1488  -13.3226  -49.8971 N.am      2 UNK        -0.5000 
     65 C           5.9027  -12.6373  -48.7727 C.2       1 UNK         0.5000 
     66 O           6.6667  -12.6397  -47.8039 O.2       1 UNK        -0.5000 
     67 C          -1.6014  -21.1560  -47.2898 C.2       11 UNK         0.5000 
     68 O          -1.4965  -21.7511  -48.3609 O.2       11 UNK        -0.5000 
     69 N          -2.7555  -21.0325  -46.6182 N.am      12 UNK        -0.5000 
     70 CA         -4.0236  -21.6323  -47.0326 C.3       12 UNK         0.1400 
     71 CB         -5.1556  -21.1575  -46.1111 C.3       12 UNK        -0.1800 
     72 C          -3.9647  -23.1683  -47.0868 C.2       12 UNK         0.5000 
     73 O          -4.4687  -23.7576  -48.0442 O.2       12 UNK        -0.5000 
     74 N          -3.3156  -23.7712  -46.0792 N.am      13 UNK        -0.5000 
     75 CA         -3.0192  -25.1998  -46.0022 C.3       13 UNK         0.1400 
     76 CB         -2.4467  -25.5401  -44.6178 C.3       13 UNK        -0.1800 
     77 C          -2.0680  -25.6631  -47.1200 C.2       13 UNK         0.5000 
     78 O          -2.3436  -26.6734  -47.7674 O.2       13 UNK        -0.5000 
     79 N          -0.9806  -24.9090  -47.3380 N.am      14 UNK        -0.5000 
     80 CA          0.0268  -25.1815  -48.3651 C.3       14 UNK         0.1400 
     81 CB          1.2226  -24.2357  -48.1776 C.3       14 UNK        -0.1800 
     82 C          -0.5251  -25.0796  -49.7986 C.2       14 UNK         0.5000 
     83 O          -0.2277  -25.9403  -50.6290 O.2       14 UNK        -0.5000 
     84 N          -1.3355  -24.0470  -50.0627 N.am      15 UNK        -0.5000 
     85 CA         -1.9766  -23.7844  -51.3490 C.3       15 UNK         0.1400 
     86 CB         -2.2901  -22.2853  -51.4527 C.3       15 UNK        -0.1800 
     87 C          -3.2167  -24.6764  -51.5593 C.2       15 UNK         0.5000 
     88 O          -4.3523  -24.1902  -51.5522 O.2       15 UNK        -0.5000 
     89 N          -2.9547  -25.9797  -51.7299 N.am      16 UNK        -0.5000 
     90 CA         -3.8906  -27.0612  -52.0643 C.3       16 UNK         0.1400 
     91 CB         -4.4777  -26.8374  -53.4732 C.3       16 UNK        -0.1800 
     92 C          -4.9927  -27.3071  -51.0120 C.2       16 UNK         0.5000 
     93 O          -6.0244  -27.8944  -51.3411 O.2       16 UNK        -0.5000 
     94 N          -4.7641  -26.8446  -49.7736 N.am      17 UNK        -0.5000 
     95 CA         -5.6928  -26.8485  -48.6378 C.3       17 UNK         0.1400 
     96 CB         -5.9577  -28.2875  -48.1493 C.3       17 UNK        -0.1800 
     97 C          -6.9887  -26.0474  -48.8922 C.2       17 UNK         0.5000 
     98 O          -8.0107  -26.3218  -48.2600 O.2       17 UNK        -0.5000 
     99 N          -6.9286  -25.0811  -49.8173 N.am      18 UNK        -0.5000 
    100 CA        -8.0771  -24.3173  -50.3013 C.3       18 UNK         0.1400 
    101 CB        -8.5716  -24.9626  -51.6090 C.3       18 UNK        -0.1800 
    102 C         -7.7553  -22.8274  -50.5062 C.2       18 UNK         0.5000 
    103 O         -8.6218  -22.0992  -50.9922 O.2       18 UNK        -0.5000 
    104 N         -6.5282  -22.3982  -50.1658 N.am      19 UNK        -0.5000 
    105 CA        -5.9682  -21.0687  -50.4414 C.3       19 UNK         0.1400 
    106 CB        -6.6755  -19.9769  -49.6122 C.3       19 UNK        -0.1800 
    107 C         -5.9224  -20.7510  -51.9503 C.2       19 UNK         0.5000 
    108 O         -6.1944  -19.6203  -52.3588 O.2       19 UNK        -0.5000 
    109 N         -5.5641  -21.7621  -52.7559 N.am      20 UNK        -0.5000 
    110 CA        -5.5813  -21.7465  -54.2240 C.3       20 UNK         0.1400 
    111 CB        -5.2173  -23.1496  -54.7319 C.3       20 UNK        -0.1800 
    112 C         -4.6828  -20.6794  -54.8843 C.2       20 UNK         0.5000 
    113 O         -4.8819  -20.3619  -56.0573 O.2       20 UNK        -0.5000 
    114 N         -3.7270  -20.1352  -54.1209 N.am      21 UNK        -0.5000 
    115 CA        -2.8686  -19.0183  -54.5071 C.3       21 UNK         0.1400 
    116 CB        -1.7285  -18.9011  -53.4838 C.3       21 UNK        -0.1800 
    117 C         -3.6246  -17.6789  -54.6267 C.2       21 UNK         0.5000 
    118 O         -3.1924  -16.8245  -55.4021 O.2       21 UNK        -0.5000 
    119 N         -4.7215  -17.5181  -53.8714 N.am      22 UNK        -0.5000 
    120 CA        -5.5539  -16.3014  -53.8465 C.3       22 UNK         0.1400 
    121 C         -7.0527  -16.5736  -54.1514 C.2       22 UNK         0.5000 
    122 N         -7.5777  -17.7728  -53.9349 N.am      22 UNK        -0.7600 
    123 O         -7.7549  -15.6771  -54.6113 O.2       22 UNK        -0.5000 
    124 C124       -5.4073  -15.5129  -52.5182 C.3       23 UNK        -0.0398 
    125 S125       -3.6934  -14.9602  -52.2150 S.3       23 UNK        -0.2404 
    126 C126       -3.2609  -15.8930  -50.7082 C.3       23 UNK        -0.0205 
    127 H127        3.2261  -10.4957  -44.6487 H         1 UNK         0.0600 
    128 H128        1.8114  -11.4016  -45.1966 H         1 UNK         0.0600 
    129 H129        3.3437  -12.2360  -44.9233 H         1 UNK         0.0600 
    130 H130        4.4503  -12.7095  -46.8018 H         1 UNK         0.3000 
    131 H131        4.8721  -10.8017  -48.8829 H         1 UNK         0.0600 
    132 H132        2.6649  -11.5316  -49.6715 H         1 UNK         0.0800 
    133 H133        3.8876  -12.0781  -50.7708 H         1 UNK         0.0800 
    134 H134        0.8421  -12.9721  -50.4598 H         1 UNK         0.0800 
    135 H135        1.7315  -13.8163  -51.7110 H         1 UNK         0.0800 
    136 H136       -1.3034  -13.9719  -50.8788 H         1 UNK         0.1150 
    137 H137       -1.8764  -18.1435  -50.0640 H         1 UNK         0.1150 
    138 H138        2.0704  -16.5069  -50.1425 H         1 UNK         0.1150 
    139 H139        0.0148  -19.6149  -49.8227 H         1 UNK         0.0800 
    140 H140        1.5698  -19.0391  -50.3696 H         1 UNK         0.0800 
    141 H141       -0.9973  -18.6502  -47.5752 H         1 UNK         0.0800 
    142 H142       -0.0769  -18.4370  -46.1285 H         1 UNK         0.0800 
    143 H143        0.4932  -21.1293  -47.0414 H         1 UNK         0.0600 
    144 H144       -0.5268  -19.9859  -44.6028 H         1 UNK         0.3000 
    145 H145       -0.3544  -23.0709  -42.7962 H         1 UNK         0.0600 
    146 H146        1.0774  -21.6240  -41.3728 H         1 UNK         0.0600 
    147 H147        1.9535  -22.0969  -42.8205 H         1 UNK         0.0600 
    148 H148        1.2805  -20.4767  -42.6958 H         1 UNK         0.0600 
    149 H149       -1.1027  -20.4256  -42.0272 H         1 UNK         0.3000 
    150 H150       -4.5532  -20.5982  -42.8508 H         1 UNK         0.0600 
    151 H151       -4.3463  -21.8265  -40.6782 H         1 UNK         0.0600 
    152 H152       -4.7705  -20.1402  -40.4282 H         1 UNK         0.0600 
    153 H153       -3.1183  -20.6846  -40.1421 H         1 UNK         0.0600 
    154 H154       -3.0490  -18.5968  -41.5083 H         1 UNK         0.3000 
    155 H155       -2.0240  -16.7621  -44.3983 H         1 UNK         0.0600 
    156 H156       -4.3244  -16.1213  -43.7963 H         1 UNK         0.0600 
    157 H157       -3.1708  -15.0376  -43.0341 H         1 UNK         0.0600 
    158 H158       -3.9719  -16.2869  -42.0838 H         1 UNK         0.0600 
    159 H159       -0.3523  -16.7502  -42.9966 H         1 UNK         0.3000 
    160 H160        0.0322  -16.3289  -39.5235 H         1 UNK         0.0600 
    161 H161        2.0255  -17.7391  -40.0104 H         1 UNK         0.0600 
    162 H162        1.2709  -18.3341  -41.4871 H         1 UNK         0.0600 
    163 H163        0.5746  -18.7257  -39.9209 H         1 UNK         0.0600 
    164 H164        1.5127  -15.9439  -42.0388 H         1 UNK         0.3000 
    165 H165        0.7413  -12.4764  -42.2799 H         1 UNK         0.0600 
    166 H166        3.2064  -12.2771  -42.4032 H         1 UNK         0.0600 
    167 H167        2.7157  -12.5478  -40.7405 H         1 UNK         0.0600 
    168 H168        3.4065  -13.8700  -41.6728 H         1 UNK         0.0600 
    169 H169        2.3289  -14.3191  -43.8321 H         1 UNK         0.3000 
    170 H170       -0.1998  -15.7646  -45.7094 H         1 UNK         0.0600 
    171 H171       -0.2720  -13.5498  -46.8990 H         1 UNK         0.0600 
    172 H172        1.4880  -13.4921  -46.8619 H         1 UNK         0.0600 
    173 H173        0.6579  -14.7665  -47.7534 H         1 UNK         0.0600 
    174 H174        2.6419  -15.5183  -46.1523 H         1 UNK         0.3000 
    175 H175        4.1333  -16.8608  -44.1427 H         1 UNK         0.0600 
    176 H176        4.5170  -19.3301  -44.0993 H         1 UNK         0.0600 
    177 H177        3.1572  -18.8698  -43.0965 H         1 UNK         0.0600 
    178 H178        2.8702  -19.5964  -44.6749 H         1 UNK         0.0600 
    179 H179        4.3363  -18.5447  -46.3947 H         1 UNK         0.3000 
    180 H180        6.3857  -17.5063  -47.6492 H         1 UNK         0.0600 
    181 H181        3.8395  -17.6102  -49.3581 H         1 UNK         0.0600 
    182 H182        4.5224  -18.9520  -48.4481 H         1 UNK         0.0600 
    183 H183        5.3906  -18.2970  -49.8220 H         1 UNK         0.0600 
    184 H184        5.1455  -15.1450  -48.9055 H         1 UNK         0.3000 
    185 H185        8.1757  -13.7882  -49.7079 H         1 UNK         0.0600 
    186 H186        7.6275  -13.5860  -52.1287 H         1 UNK         0.0600 
    187 H187        8.2841  -15.1757  -51.7768 H         1 UNK         0.0600 
    188 H188        6.5527  -14.9813  -52.0215 H         1 UNK         0.0600 
    189 H189        5.4725  -13.2877  -50.6460 H         1 UNK         0.3000 
    190 H190       -2.7736  -20.4686  -45.7717 H         1 UNK         0.3000 
    191 H191       -4.2338  -21.2722  -48.0376 H         1 UNK         0.0600 
    192 H192       -4.9964  -21.4755  -45.0812 H         1 UNK         0.0600 
    193 H193       -6.1158  -21.5619  -46.4337 H         1 UNK         0.0600 
    194 H194       -5.2402  -20.0707  -46.1174 H         1 UNK         0.0600 
    195 H195       -2.9928  -23.2036  -45.3016 H         1 UNK         0.3000 
    196 H196       -3.9588  -25.7417  -46.1044 H         1 UNK         0.0600 
    197 H197       -1.5230  -24.9985  -44.4150 H         1 UNK         0.0600 
    198 H198       -2.2277  -26.6054  -44.5370 H         1 UNK         0.0600 
    199 H199       -3.1567  -25.2940  -43.8280 H         1 UNK         0.0600 
    200 H200       -0.8058  -24.1147  -46.7313 H         1 UNK         0.3000 
    201 H201        0.3794  -26.2046  -48.2192 H         1 UNK         0.0600 
    202 H202        0.9319  -23.1913  -48.2918 H         1 UNK         0.0600 
    203 H203        2.0024  -24.4413  -48.9119 H         1 UNK         0.0600 
    204 H204        1.6677  -24.3532  -47.1894 H         1 UNK         0.0600 
    205 H205       -1.5093  -23.3629  -49.3297 H         1 UNK         0.3000 
    206 H206       -1.2708  -24.0195  -52.1485 H         1 UNK         0.0600 
    207 H207       -1.3814  -21.6871  -51.3804 H         1 UNK         0.0600 
    208 H208       -2.7554  -22.0557  -52.4092 H         1 UNK         0.0600 
    209 H209       -2.9604  -21.9645  -50.6581 H         1 UNK         0.0600 
    210 H210       -1.9846  -26.2610  -51.6257 H         1 UNK         0.3000 
    211 H211       -3.2956  -27.9749  -52.0948 H         1 UNK         0.0600 
    212 H212       -5.1692  -25.9952  -53.4891 H         1 UNK         0.0600 
    213 H213       -5.0269  -27.7156  -53.8144 H         1 UNK         0.0600 
    214 H214       -3.6933  -26.6433  -54.2047 H         1 UNK         0.0600 
    215 H215       -3.8757  -26.3942  -49.5964 H         1 UNK         0.3000 
    216 H216       -5.1839  -26.3237  -47.8343 H         1 UNK         0.0600 
    217 H217       -5.0230  -28.8164  -47.9624 H         1 UNK         0.0600 
    218 H218       -6.5198  -28.2871  -47.2148 H         1 UNK         0.0600 
    219 H219       -6.5316  -28.8636  -48.8754 H         1 UNK         0.0600 
    220 H220       -6.0480  -24.9269  -50.2953 H         1 UNK         0.3000 
    221 H221       -8.8865  -24.3509  -49.5695 H         1 UNK         0.0600 
    222 H222       -7.8050  -24.9285  -52.3845 H         1 UNK         0.0600 
    223 H223       -8.8430  -26.0073  -51.4549 H         1 UNK         0.0600 
    224 H224       -9.4555  -24.4531  -51.9946 H         1 UNK         0.0600 
    225 H225       -5.8887  -23.0638  -49.7484 H         1 UNK         0.3000 
    226 H226       -4.9305  -21.0967  -50.1208 H         1 UNK         0.0600 
    227 H227       -6.6940  -20.2333  -48.5536 H         1 UNK         0.0600 
    228 H228       -6.1583  -19.0212  -49.7053 H         1 UNK         0.0600 
    229 H229       -7.7046  -19.8217  -49.9368 H         1 UNK         0.0600 
    230 H230       -5.3161  -22.6484  -52.3249 H         1 UNK         0.3000 
    231 H231       -6.6059  -21.5291  -54.5319 H         1 UNK         0.0600 
    232 H232       -5.9263  -23.8923  -54.3666 H         1 UNK         0.0600 
    233 H233       -4.2195  -23.4483  -54.4084 H         1 UNK         0.0600 
    234 H234       -5.2374  -23.1929  -55.8216 H         1 UNK         0.0600 
    235 H235       -3.6470  -20.4584  -53.1698 H         1 UNK         0.3000 
    236 H236       -2.4334  -19.2419  -55.4833 H         1 UNK         0.0600 
    237 H237       -1.0682  -18.0661  -53.7224 H         1 UNK         0.0600 
    238 H238       -2.1141  -18.7359  -52.4781 H         1 UNK         0.0600 
    239 H239       -1.1179  -19.8039  -53.4653 H         1 UNK         0.0600 
    240 H240       -5.0414  -18.2866  -53.2933 H         1 UNK         0.3000 
    241 H241       -5.2296  -15.6338  -54.6470 H         1 UNK         0.0600 
    242 H242       -7.0523  -18.5023  -53.4585 H         1 UNK         0.3800 
    243 H243       -8.5496  -17.9265  -54.1503 H         1 UNK         0.3800 
    244 H244       -6.0344  -14.6197  -52.5365 H         1 UNK         0.0800 
    245 H245       -5.7629  -16.1123  -51.6786 H         1 UNK         0.0800 
    246 H246       -3.7264  -16.8786  -50.7600 H         1 UNK         0.0800 
    247 H247       -3.6842  -15.3902  -49.8379 H         1 UNK         0.0800 
@<TRIPOS>BOND
     1    1    2 1    
     2    1  127 1    
     3    1  128 1    
     4    1  129 1    
     5    2    3 2    
     6    2    4 am   BACKBONE|DICT|INTERRES
     7    4    5 1    
     8    4  130 1    
     9    5    6 1    
    10    5   65 1    
    11    5  131 1    
    12    6    7 1    
    13    6  132 1    
    14    6  133 1    
    15    7    8 1    
    16    8    9 1    
    17    8  134 1    
    18    8  135 1    
    19    9   10 ar   
    20    9   14 ar   
    21   10   11 ar   
    22   10  136 1    
    23   11   12 ar   
    24   11  126 1    
    25   12   13 ar   
    26   12  137 1    
    27   13   14 ar   
    28   13   15 1    
    29   14  138 1    
    30   15   16 1    
    31   15  139 1    
    32   15  140 1    
    33   16   17 1    
    34   17   18 1    
    35   17  141 1    
    36   17  142 1    
    37   18   19 1    
    38   18   67 1    
    39   18  143 1    
    40   19   20 am   BACKBONE|DICT|INTERRES
    41   19  144 1    
    42   20   21 2    
    43   20   22 1    
    44   22   23 1    
    45   22   24 1    
    46   22  145 1    
    47   23  146 1    
    48   23  147 1    
    49   23  148 1    
    50   24   25 am   BACKBONE|DICT|INTERRES
    51   24  149 1    
    52   25   26 2    
    53   25   27 1    
    54   27   28 1    
    55   27   29 1    
    56   27  150 1    
    57   28  151 1    
    58   28  152 1    
    59   28  153 1    
    60   29   30 am   BACKBONE|DICT|INTERRES
    61   29  154 1    
    62   30   31 2    
    63   30   32 1    
    64   32   33 1    
    65   32   34 1    
    66   32  155 1    
    67   33  156 1    
    68   33  157 1    
    69   33  158 1    
    70   34   35 am   BACKBONE|DICT|INTERRES
    71   34  159 1    
    72   35   36 2    
    73   35   37 1    
    74   37   38 1    
    75   37   39 1    
    76   37  160 1    
    77   38  161 1    
    78   38  162 1    
    79   38  163 1    
    80   39   40 am   BACKBONE|DICT|INTERRES
    81   39  164 1    
    82   40   41 2    
    83   40   42 1    
    84   42   43 1    
    85   42   44 1    
    86   42  165 1    
    87   43  166 1    
    88   43  167 1    
    89   43  168 1    
    90   44   45 am   BACKBONE|DICT|INTERRES
    91   44  169 1    
    92   45   46 2    
    93   45   47 1    
    94   47   48 1    
    95   47   49 1    
    96   47  170 1    
    97   48  171 1    
    98   48  172 1    
    99   48  173 1    
   100   49   50 am   BACKBONE|DICT|INTERRES
   101   49  174 1    
   102   50   51 2    
   103   50   52 1    
   104   52   53 1    
   105   52   54 1    
   106   52  175 1    
   107   53  176 1    
   108   53  177 1    
   109   53  178 1    
   110   54   55 am   BACKBONE|DICT|INTERRES
   111   54  179 1    
   112   55   56 2    
   113   55   57 1    
   114   57   58 1    
   115   57   59 1    
   116   57  180 1    
   117   58  181 1    
   118   58  182 1    
   119   58  183 1    
   120   59   60 am   BACKBONE|DICT|INTERRES
   121   59  184 1    
   122   60   61 2    
   123   60   62 1    
   124   62   63 1    
   125   62   64 1    
   126   62  185 1    
   127   63  186 1    
   128   63  187 1    
   129   63  188 1    
   130   64   65 am   BACKBONE|DICT|INTERRES
   131   64  189 1    
   132   65   66 2    
   133   67   68 2    
   134   67   69 am   BACKBONE|DICT|INTERRES
   135   69   70 1    
   136   69  190 1    
   137   70   71 1    
   138   70   72 1    
   139   70  191 1    
   140   71  192 1    
   141   71  193 1    
   142   71  194 1    
   143   72   73 2    
   144   72   74 am   BACKBONE|DICT|INTERRES
   145   74   75 1    
   146   74  195 1    
   147   75   76 1    
   148   75   77 1    
   149   75  196 1    
   150   76  197 1    
   151   76  198 1    
   152   76  199 1    
   153   77   78 2    
   154   77   79 am   BACKBONE|DICT|INTERRES
   155   79   80 1    
   156   79  200 1    
   157   80   81 1    
   158   80   82 1    
   159   80  201 1    
   160   81  202 1    
   161   81  203 1    
   162   81  204 1    
   163   82   83 2    
   164   82   84 am   BACKBONE|DICT|INTERRES
   165   84   85 1    
   166   84  205 1    
   167   85   86 1    
   168   85   87 1    
   169   85  206 1    
   170   86  207 1    
   171   86  208 1    
   172   86  209 1    
   173   87   88 2    
   174   87   89 am   BACKBONE|DICT|INTERRES
   175   89   90 1    
   176   89  210 1    
   177   90   91 1    
   178   90   92 1    
   179   90  211 1    
   180   91  212 1    
   181   91  213 1    
   182   91  214 1    
   183   92   93 2    
   184   92   94 am   BACKBONE|DICT|INTERRES
   185   94   95 1    
   186   94  215 1    
   187   95   96 1    
   188   95   97 1    
   189   95  216 1    
   190   96  217 1    
   191   96  218 1    
   192   96  219 1    
   193   97   98 2    
   194   97   99 am   BACKBONE|DICT|INTERRES
   195   99  100 1    
   196   99  220 1    
   197  100  101 1    
   198  100  102 1    
   199  100  221 1    
   200  101  222 1    
   201  101  223 1    
   202  101  224 1    
   203  102  103 2    
   204  102  104 am   BACKBONE|DICT|INTERRES
   205  104  105 1    
   206  104  225 1    
   207  105  106 1    
   208  105  107 1    
   209  105  226 1    
   210  106  227 1    
   211  106  228 1    
   212  106  229 1    
   213  107  108 2    
   214  107  109 am   BACKBONE|DICT|INTERRES
   215  109  110 1    
   216  109  230 1    
   217  110  111 1    
   218  110  112 1    
   219  110  231 1    
   220  111  232 1    
   221  111  233 1    
   222  111  234 1    
   223  112  113 2    
   224  112  114 am   BACKBONE|DICT|INTERRES
   225  114  115 1    
   226  114  235 1    
   227  115  116 1    
   228  115  117 1    
   229  115  236 1    
   230  116  237 1    
   231  116  238 1    
   232  116  239 1    
   233  117  118 2    
   234  117  119 am   BACKBONE|DICT|INTERRES
   235  119  120 1    
   236  119  240 1    
   237  120  121 1    
   238  120  124 1    
   239  120  241 1    
   240  121  122 am   BACKBONE|DICT|INTERRES
   241  121  123 2    
   242  122  242 1    
   243  122  243 1    
   244  124  125 1    
   245  124  244 1    
   246  124  245 1    
   247  125  126 1    
   248  126  246 1    
   249  126  247 1    
@<TRIPOS>SUBSTRUCTURE
     1 UNK         1 GROUP             0       ****    0 ROOT    
