@<TRIPOS>MOLECULE
3R540
247   249    1
SMALL
USER_CHARGES


@<TRIPOS>ATOM
      1 CA          0.0775   -9.8992  -50.8249 C.3       0 UNK        -0.1800 
      2 C           0.5421  -11.2642  -50.3369 C.2       0 UNK         0.5000 
      3 O           1.0805  -12.0445  -51.1224 O.2       0 UNK        -0.5000 
      4 N           0.3292  -11.5554  -49.0480 N.am      1 UNK        -0.5000 
      5 CA          0.7330  -12.7972  -48.3818 C.3       1 UNK         0.1400 
      6 C6          0.0578  -12.9574  -46.9967 C.3       23 UNK        -0.0398 
      7 S7         -1.7636  -13.0033  -47.1268 S.3       23 UNK        -0.2404 
      8 C8         -2.1379  -14.7739  -46.9271 C.3       23 UNK        -0.0205 
      9 C9         -1.5659  -15.6228  -48.0528 C.ar      23 UNK        -0.0193 
     10 C10        -2.2647  -15.7632  -49.2557 C.ar      23 UNK        -0.1150 
     11 C11        -1.7432  -16.5448  -50.2911 C.ar      23 UNK        -0.0193 
     12 C12        -0.5097  -17.1796  -50.1190 C.ar      23 UNK        -0.1150 
     13 C13         0.1987  -17.0457  -48.9226 C.ar      23 UNK        -0.0193 
     14 C14        -0.3390  -16.2728  -47.8897 C.ar      23 UNK        -0.1150 
     15 C15         1.5566  -17.7131  -48.7608 C.3       23 UNK        -0.0205 
     16 S16         1.4330  -19.5094  -48.4954 S.3       23 UNK        -0.2404 
     17 C17         0.6226  -19.6004  -46.8634 C.3       23 UNK        -0.0398 
     18 CA         -0.5711  -20.5842  -46.8331 C.3       11 UNK         0.1400 
     19 N          -0.8806  -20.9831  -45.4579 N.am      11 UNK        -0.5000 
     20 C          -1.7208  -21.9644  -45.1047 C.2       10 UNK         0.5000 
     21 O          -2.3210  -22.6785  -45.9061 O.2       10 UNK        -0.5000 
     22 CA         -1.9667  -22.1426  -43.5973 C.3       10 UNK         0.1400 
     23 CB         -0.8452  -22.9689  -42.9495 C.3       10 UNK        -0.1800 
     24 N          -2.0890  -20.8556  -42.9122 N.am      10 UNK        -0.5000 
     25 C          -3.1386  -20.0319  -43.0382 C.2       9 UNK         0.5000 
     26 O          -4.1285  -20.2882  -43.7237 O.2       9 UNK        -0.5000 
     27 CA         -3.0421  -18.6773  -42.3103 C.3       9 UNK         0.1400 
     28 CB         -3.3518  -18.8373  -40.8144 C.3       9 UNK        -0.1800 
     29 N          -1.7314  -18.0447  -42.4692 N.am      9 UNK        -0.5000 
     30 C          -1.2390  -17.6188  -43.6402 C.2       8 UNK         0.5000 
     31 O          -1.8541  -17.6779  -44.7014 O.2       8 UNK        -0.5000 
     32 CA          0.1997  -17.0801  -43.6471 C.3       8 UNK         0.1400 
     33 CB          0.2126  -15.5714  -43.3647 C.3       8 UNK        -0.1800 
     34 N           1.1009  -17.7568  -42.7138 N.am      8 UNK        -0.5000 
     35 C           1.3600  -19.0711  -42.6709 C.2       7 UNK         0.5000 
     36 O           0.8229  -19.8928  -43.4134 O.2       7 UNK        -0.5000 
     37 CA          2.3726  -19.5561  -41.6193 C.3       7 UNK         0.1400 
     38 CB          3.7622  -19.7277  -42.2501 C.3       7 UNK        -0.1800 
     39 N           2.4813  -18.6299  -40.4912 N.am      7 UNK        -0.5000 
     40 C           1.8946  -18.7945  -39.2991 C.2       6 UNK         0.5000 
     41 O           1.1907  -19.7632  -39.0114 O.2       6 UNK        -0.5000 
     42 CA          2.1363  -17.6971  -38.2420 C.3       6 UNK         0.1400 
     43 CB          3.3425  -18.0598  -37.3623 C.3       6 UNK        -0.1800 
     44 N           2.3505  -16.3660  -38.8147 N.am      6 UNK        -0.5000 
     45 C           1.3981  -15.6327  -39.4060 C.2       5 UNK         0.5000 
     46 O           0.2256  -15.9943  -39.5112 O.2       5 UNK        -0.5000 
     47 CA          1.8268  -14.2764  -40.0055 C.3       5 UNK         0.1400 
     48 CB          1.6863  -13.1653  -38.9539 C.3       5 UNK        -0.1800 
     49 N           3.1765  -14.2144  -40.5869 N.am      5 UNK        -0.5000 
     50 C           3.7003  -15.0740  -41.4710 C.2       4 UNK         0.5000 
     51 O           3.1850  -16.1536  -41.7638 O.2       4 UNK        -0.5000 
     52 CA          5.0384  -14.6795  -42.1227 C.3       4 UNK         0.1400 
     53 CB          6.2117  -15.1074  -41.2283 C.3       4 UNK        -0.1800 
     54 N           5.1906  -15.3107  -43.4363 N.am      4 UNK        -0.5000 
     55 C           4.4451  -15.0253  -44.5123 C.2       3 UNK         0.5000 
     56 O           3.6325  -14.0984  -44.5614 O.2       3 UNK        -0.5000 
     57 CA          4.6061  -15.9756  -45.7120 C.3       3 UNK         0.1400 
     58 CB          3.7587  -17.2417  -45.5112 C.3       3 UNK        -0.1800 
     59 N           4.1935  -15.3396  -46.9608 N.am      3 UNK        -0.5000 
     60 C           4.9758  -14.5621  -47.7175 C.2       2 UNK         0.5000 
     61 O           6.1526  -14.3110  -47.4540 O.2       2 UNK        -0.5000 
     62 CA          4.3460  -13.9868  -49.0005 C.3       2 UNK         0.1400 
     63 CB          4.6849  -14.8792  -50.2049 C.3       2 UNK        -0.1800 
     64 N           2.8902  -13.8350  -48.9241 N.am      2 UNK        -0.5000 
     65 C           2.2693  -12.8514  -48.2606 C.2       1 UNK         0.5000 
     66 O           2.8563  -11.9923  -47.5993 O.2       1 UNK        -0.5000 
     67 C          -1.8113  -20.0398  -47.5800 C.2       11 UNK         0.5000 
     68 O          -1.9646  -20.3009  -48.7712 O.2       11 UNK        -0.5000 
     69 N          -2.7002  -19.3358  -46.8654 N.am      12 UNK        -0.5000 
     70 CA         -3.9885  -18.8909  -47.3871 C.3       12 UNK         0.1400 
     71 CB         -4.5871  -17.8236  -46.4608 C.3       12 UNK        -0.1800 
     72 C          -4.9802  -20.0523  -47.5661 C.2       12 UNK         0.5000 
     73 O          -5.6923  -20.0824  -48.5681 O.2       12 UNK        -0.5000 
     74 N          -5.0264  -20.9719  -46.5916 N.am      13 UNK        -0.5000 
     75 CA         -5.9337  -22.1215  -46.5798 C.3       13 UNK         0.1400 
     76 CB         -5.9428  -22.7485  -45.1775 C.3       13 UNK        -0.1800 
     77 C          -5.5971  -23.1823  -47.6442 C.2       13 UNK         0.5000 
     78 O          -6.5127  -23.7674  -48.2222 O.2       13 UNK        -0.5000 
     79 N          -4.3017  -23.4100  -47.8787 N.am      14 UNK        -0.5000 
     80 CA         -3.7693  -24.3111  -48.8918 C.3       14 UNK         0.1400 
     81 CB         -3.0911  -25.5055  -48.1982 C.3       14 UNK        -0.1800 
     82 C          -2.7923  -23.4995  -49.7497 C.2       14 UNK         0.5000 
     83 O          -1.6249  -23.3554  -49.3801 O.2       14 UNK        -0.5000 
     84 N          -3.3112  -22.9469  -50.8523 N.am      15 UNK        -0.5000 
     85 CA         -2.5941  -22.0734  -51.7803 C.3       15 UNK         0.1400 
     86 CB         -3.6008  -21.5101  -52.7938 C.3       15 UNK        -0.1800 
     87 C          -1.4402  -22.7820  -52.5144 C.2       15 UNK         0.5000 
     88 O          -1.4085  -24.0142  -52.5926 O.2       15 UNK        -0.5000 
     89 N          -0.5287  -21.9743  -53.0741 N.am      16 UNK        -0.5000 
     90 CA          0.6176  -22.4073  -53.8760 C.3       16 UNK         0.1400 
     91 CB          1.3901  -21.1691  -54.3548 C.3       16 UNK        -0.1800 
     92 C           0.2013  -23.2829  -55.0734 C.2       16 UNK         0.5000 
     93 O          -0.8056  -22.9919  -55.7228 O.2       16 UNK        -0.5000 
     94 N           0.9644  -24.3598  -55.3079 N.am      17 UNK        -0.5000 
     95 CA          0.7210  -25.4137  -56.3044 C.3       17 UNK         0.1400 
     96 CB          0.8385  -24.8507  -57.7368 C.3       17 UNK        -0.1800 
     97 C          -0.5968  -26.1941  -56.0812 C.2       17 UNK         0.5000 
     98 O          -1.1026  -26.8146  -57.0177 O.2       17 UNK        -0.5000 
     99 N          -1.1251  -26.1479  -54.8468 N.am      18 UNK        -0.5000 
    100 CA        -2.3937  -26.7254  -54.3905 C.3       18 UNK         0.1400 
    101 CB        -2.3522  -28.2669  -54.4473 C.3       18 UNK        -0.1800 
    102 C         -3.6272  -26.1281  -55.1020 C.2       18 UNK         0.5000 
    103 O         -4.6421  -26.8123  -55.2502 O.2       18 UNK        -0.5000 
    104 N         -3.5348  -24.8577  -55.5216 N.am      19 UNK        -0.5000 
    105 CA        -4.5692  -24.1146  -56.2470 C.3       19 UNK         0.1400 
    106 CB        -3.8963  -22.9528  -56.9995 C.3       19 UNK        -0.1800 
    107 C         -5.7229  -23.6413  -55.3333 C.2       19 UNK         0.5000 
    108 O         -6.0323  -22.4492  -55.2969 O.2       19 UNK        -0.5000 
    109 N         -6.3303  -24.5886  -54.6064 N.am      20 UNK        -0.5000 
    110 CA        -7.3886  -24.4121  -53.6094 C.3       20 UNK         0.1400 
    111 CB        -8.7034  -23.9539  -54.2823 C.3       20 UNK        -0.1800 
    112 C         -6.9219  -23.5249  -52.4342 C.2       20 UNK         0.5000 
    113 O         -5.8752  -23.8112  -51.8485 O.2       20 UNK        -0.5000 
    114 N         -7.6977  -22.4883  -52.1038 N.am      21 UNK        -0.5000 
    115 CA        -7.4106  -21.5082  -51.0623 C.3       21 UNK         0.1400 
    116 CB        -8.5147  -21.5877  -49.9949 C.3       21 UNK        -0.1800 
    117 C         -7.3716  -20.1040  -51.6838 C.2       21 UNK         0.5000 
    118 O         -8.0054  -19.8650  -52.7154 O.2       21 UNK        -0.5000 
    119 N         -6.6539  -19.1956  -51.0197 N.am      22 UNK        -0.5000 
    120 CA        -6.5147  -17.7791  -51.3957 C.3       22 UNK         0.1400 
    121 C         -7.7268  -16.8898  -50.9880 C.2       22 UNK         0.5000 
    122 N         -8.6811  -17.3757  -50.2031 N.am      22 UNK        -0.7600 
    123 O         -7.8076  -15.7360  -51.4003 O.2       22 UNK        -0.5000 
    124 C124       -5.1887  -17.1768  -50.8633 C.3       23 UNK        -0.0398 
    125 S125       -3.7211  -18.0378  -51.5280 S.3       23 UNK        -0.2404 
    126 C126       -2.4955  -16.6943  -51.6044 C.3       23 UNK        -0.0205 
    127 H127        0.9242   -9.3299  -51.2085 H         1 UNK         0.0600 
    128 H128       -0.3884   -9.3200  -50.0272 H         1 UNK         0.0600 
    129 H129       -0.6490  -10.0156  -51.6291 H         1 UNK         0.0600 
    130 H130       -0.1138  -10.8704  -48.4531 H         1 UNK         0.3000 
    131 H131        0.4072  -13.6286  -49.0108 H         1 UNK         0.0600 
    132 H132        0.3267  -12.1252  -46.3436 H         1 UNK         0.0800 
    133 H133        0.4096  -13.8559  -46.4886 H         1 UNK         0.0800 
    134 H134       -3.2221  -14.8845  -46.9037 H         1 UNK         0.0800 
    135 H135       -1.7780  -15.1251  -45.9603 H         1 UNK         0.0800 
    136 H136       -3.2137  -15.2627  -49.3858 H         1 UNK         0.1150 
    137 H137       -0.0993  -17.7829  -50.9165 H         1 UNK         0.1150 
    138 H138        0.1998  -16.1709  -46.9591 H         1 UNK         0.1150 
    139 H139        2.1522  -17.5341  -49.6571 H         1 UNK         0.0800 
    140 H140        2.1105  -17.2668  -47.9361 H         1 UNK         0.0800 
    141 H141        0.3109  -18.6126  -46.5280 H         1 UNK         0.0800 
    142 H142        1.3886  -19.9236  -46.1569 H         1 UNK         0.0800 
    143 H143       -0.2668  -21.4964  -47.3516 H         1 UNK         0.0600 
    144 H144       -0.3956  -20.4807  -44.7187 H         1 UNK         0.3000 
    145 H145       -2.9039  -22.6890  -43.4721 H         1 UNK         0.0600 
    146 H146       -1.0435  -23.1408  -41.8915 H         1 UNK         0.0600 
    147 H147       -0.7580  -23.9459  -43.4267 H         1 UNK         0.0600 
    148 H148        0.1240  -22.4765  -43.0332 H         1 UNK         0.0600 
    149 H149       -1.2848  -20.5430  -42.3876 H         1 UNK         0.3000 
    150 H150       -3.7922  -18.0132  -42.7454 H         1 UNK         0.0600 
    151 H151       -4.3299  -19.2968  -40.6655 H         1 UNK         0.0600 
    152 H152       -3.3675  -17.8708  -40.3102 H         1 UNK         0.0600 
    153 H153       -2.6136  -19.4646  -40.3131 H         1 UNK         0.0600 
    154 H154       -1.1567  -17.9547  -41.6436 H         1 UNK         0.3000 
    155 H155        0.5928  -17.2387  -44.6502 H         1 UNK         0.0600 
    156 H156       -0.1492  -15.3529  -42.3600 H         1 UNK         0.0600 
    157 H157       -0.4243  -15.0315  -44.0647 H         1 UNK         0.0600 
    158 H158        1.2167  -15.1587  -43.4611 H         1 UNK         0.0600 
    159 H159        1.6700  -17.1500  -42.1311 H         1 UNK         0.3000 
    160 H160        2.0360  -20.5366  -41.2761 H         1 UNK         0.0600 
    161 H161        4.4454  -20.2197  -41.5578 H         1 UNK         0.0600 
    162 H162        4.2019  -18.7677  -42.5205 H         1 UNK         0.0600 
    163 H163        3.7160  -20.3400  -43.1518 H         1 UNK         0.0600 
    164 H164        2.9855  -17.7679  -40.6715 H         1 UNK         0.3000 
    165 H165        1.2510  -17.6549  -37.6038 H         1 UNK         0.0600 
    166 H166        3.4781  -17.3347  -36.5596 H         1 UNK         0.0600 
    167 H167        3.2068  -19.0368  -36.8964 H         1 UNK         0.0600 
    168 H168        4.2661  -18.0978  -37.9415 H         1 UNK         0.0600 
    169 H169        3.2897  -15.9977  -38.7814 H         1 UNK         0.3000 
    170 H170        1.1301  -14.0549  -40.8153 H         1 UNK         0.0600 
    171 H171        0.6867  -13.1625  -38.5167 H         1 UNK         0.0600 
    172 H172        2.4006  -13.2912  -38.1394 H         1 UNK         0.0600 
    173 H173        1.8475  -12.1810  -39.3939 H         1 UNK         0.0600 
    174 H174        3.6960  -13.3731  -40.3819 H         1 UNK         0.3000 
    175 H175        5.0630  -13.5956  -42.2525 H         1 UNK         0.0600 
    176 H176        6.2242  -16.1867  -41.0693 H         1 UNK         0.0600 
    177 H177        7.1675  -14.8217  -41.6680 H         1 UNK         0.0600 
    178 H178        6.1523  -14.6323  -40.2482 H         1 UNK         0.0600 
    179 H179        5.8052  -16.1103  -43.4714 H         1 UNK         0.3000 
    180 H180        5.6554  -16.2697  -45.7851 H         1 UNK         0.0600 
    181 H181        2.6967  -17.0070  -45.4659 H         1 UNK         0.0600 
    182 H182        4.0211  -17.7485  -44.5838 H         1 UNK         0.0600 
    183 H183        3.9123  -17.9542  -46.3220 H         1 UNK         0.0600 
    184 H184        3.2234  -15.4268  -47.2162 H         1 UNK         0.3000 
    185 H185        4.7892  -13.0034  -49.1726 H         1 UNK         0.0600 
    186 H186        5.7642  -14.9919  -50.3165 H         1 UNK         0.0600 
    187 H187        4.2601  -15.8782  -50.0992 H         1 UNK         0.0600 
    188 H188        4.3073  -14.4494  -51.1330 H         1 UNK         0.0600 
    189 H189        2.3417  -14.4688  -49.4873 H         1 UNK         0.3000 
    190 H190       -2.4733  -19.0614  -45.9149 H         1 UNK         0.3000 
    191 H191       -3.8130  -18.4369  -48.3634 H         1 UNK         0.0600 
    192 H192       -4.7972  -18.2215  -45.4675 H         1 UNK         0.0600 
    193 H193       -5.5215  -17.4336  -46.8661 H         1 UNK         0.0600 
    194 H194       -3.9072  -16.9836  -46.3407 H         1 UNK         0.0600 
    195 H195       -4.4384  -20.8490  -45.7756 H         1 UNK         0.3000 
    196 H196       -6.9403  -21.7542  -46.7906 H         1 UNK         0.0600 
    197 H197       -6.6299  -23.5942  -45.1317 H         1 UNK         0.0600 
    198 H198       -6.2636  -22.0277  -44.4252 H         1 UNK         0.0600 
    199 H199       -4.9548  -23.1118  -44.8936 H         1 UNK         0.0600 
    200 H200       -3.6056  -22.9101  -47.3304 H         1 UNK         0.3000 
    201 H201       -4.5622  -24.6947  -49.5376 H         1 UNK         0.0600 
    202 H202       -3.8148  -26.0907  -47.6307 H         1 UNK         0.0600 
    203 H203       -2.3097  -25.1834  -47.5084 H         1 UNK         0.0600 
    204 H204       -2.6329  -26.1714  -48.9302 H         1 UNK         0.0600 
    205 H205       -4.2675  -23.1790  -51.1100 H         1 UNK         0.3000 
    206 H206       -2.1772  -21.2445  -51.2064 H         1 UNK         0.0600 
    207 H207       -4.4269  -21.0048  -52.2940 H         1 UNK         0.0600 
    208 H208       -3.1324  -20.7838  -53.4588 H         1 UNK         0.0600 
    209 H209       -4.0179  -22.3014  -53.4147 H         1 UNK         0.0600 
    210 H210       -0.6527  -20.9767  -52.9865 H         1 UNK         0.3000 
    211 H211        1.2683  -22.9909  -53.2218 H         1 UNK         0.0600 
    212 H212        0.7722  -20.5307  -54.9877 H         1 UNK         0.0600 
    213 H213        2.2673  -21.4564  -54.9360 H         1 UNK         0.0600 
    214 H214        1.7407  -20.5710  -53.5134 H         1 UNK         0.0600 
    215 H215        1.7666  -24.5140  -54.7122 H         1 UNK         0.3000 
    216 H216        1.5221  -26.1423  -56.1735 H         1 UNK         0.0600 
    217 H217        0.8274  -25.6530  -58.4753 H         1 UNK         0.0600 
    218 H218        1.7713  -24.3030  -57.8704 H         1 UNK         0.0600 
    219 H219        0.0157  -24.1767  -57.9771 H         1 UNK         0.0600 
    220 H220       -0.6562  -25.5734  -54.1578 H         1 UNK         0.3000 
    221 H221       -2.4926  -26.4426  -53.3417 H         1 UNK         0.0600 
    222 H222       -2.3332  -28.6357  -55.4731 H         1 UNK         0.0600 
    223 H223       -1.4737  -28.6570  -53.9334 H         1 UNK         0.0600 
    224 H224       -3.2279  -28.6997  -53.9623 H         1 UNK         0.0600 
    225 H225       -2.6683  -24.3608  -55.3549 H         1 UNK         0.3000 
    226 H226       -5.0083  -24.7783  -56.9946 H         1 UNK         0.0600 
    227 H227       -4.6168  -22.4128  -57.6149 H         1 UNK         0.0600 
    228 H228       -3.4473  -22.2360  -56.3105 H         1 UNK         0.0600 
    229 H229       -3.1102  -23.3146  -57.6628 H         1 UNK         0.0600 
    230 H230       -5.9617  -25.5314  -54.6962 H         1 UNK         0.3000 
    231 H231       -7.5685  -25.3997  -53.1827 H         1 UNK         0.0600 
    232 H232       -8.9861  -24.6352  -55.0849 H         1 UNK         0.0600 
    233 H233       -8.6215  -22.9553  -54.7129 H         1 UNK         0.0600 
    234 H234       -9.5290  -23.9442  -53.5696 H         1 UNK         0.0600 
    235 H235       -8.4873  -22.2664  -52.6942 H         1 UNK         0.3000 
    236 H236       -6.4449  -21.7122  -50.5945 H         1 UNK         0.0600 
    237 H237       -8.5859  -22.5919  -49.5774 H         1 UNK         0.0600 
    238 H238       -8.3088  -20.9082  -49.1673 H         1 UNK         0.0600 
    239 H239       -9.4918  -21.3266  -50.4032 H         1 UNK         0.0600 
    240 H240       -6.1990  -19.4766  -50.1514 H         1 UNK         0.3000 
    241 H241       -6.4746  -17.7311  -52.4857 H         1 UNK         0.0600 
    242 H242       -9.4631  -16.7914  -49.9517 H         1 UNK         0.3800 
    243 H243       -8.6276  -18.3200  -49.8578 H         1 UNK         0.3800 
    244 H244       -5.1620  -17.2125  -49.7742 H         1 UNK         0.0800 
    245 H245       -5.1227  -16.1218  -51.1335 H         1 UNK         0.0800 
    246 H246       -1.7916  -16.9182  -52.4073 H         1 UNK         0.0800 
    247 H247       -2.9704  -15.7523  -51.8812 H         1 UNK         0.0800 
@<TRIPOS>BOND
     1    1    2 1    
     2    1  127 1    
     3    1  128 1    
     4    1  129 1    
     5    2    3 2    
     6    2    4 am   BACKBONE|DICT|INTERRES
     7    4    5 1    
     8    4  130 1    
     9    5    6 1    
    10    5   65 1    
    11    5  131 1    
    12    6    7 1    
    13    6  132 1    
    14    6  133 1    
    15    7    8 1    
    16    8    9 1    
    17    8  134 1    
    18    8  135 1    
    19    9   10 ar   
    20    9   14 ar   
    21   10   11 ar   
    22   10  136 1    
    23   11   12 ar   
    24   11  126 1    
    25   12   13 ar   
    26   12  137 1    
    27   13   14 ar   
    28   13   15 1    
    29   14  138 1    
    30   15   16 1    
    31   15  139 1    
    32   15  140 1    
    33   16   17 1    
    34   17   18 1    
    35   17  141 1    
    36   17  142 1    
    37   18   19 1    
    38   18   67 1    
    39   18  143 1    
    40   19   20 am   BACKBONE|DICT|INTERRES
    41   19  144 1    
    42   20   21 2    
    43   20   22 1    
    44   22   23 1    
    45   22   24 1    
    46   22  145 1    
    47   23  146 1    
    48   23  147 1    
    49   23  148 1    
    50   24   25 am   BACKBONE|DICT|INTERRES
    51   24  149 1    
    52   25   26 2    
    53   25   27 1    
    54   27   28 1    
    55   27   29 1    
    56   27  150 1    
    57   28  151 1    
    58   28  152 1    
    59   28  153 1    
    60   29   30 am   BACKBONE|DICT|INTERRES
    61   29  154 1    
    62   30   31 2    
    63   30   32 1    
    64   32   33 1    
    65   32   34 1    
    66   32  155 1    
    67   33  156 1    
    68   33  157 1    
    69   33  158 1    
    70   34   35 am   BACKBONE|DICT|INTERRES
    71   34  159 1    
    72   35   36 2    
    73   35   37 1    
    74   37   38 1    
    75   37   39 1    
    76   37  160 1    
    77   38  161 1    
    78   38  162 1    
    79   38  163 1    
    80   39   40 am   BACKBONE|DICT|INTERRES
    81   39  164 1    
    82   40   41 2    
    83   40   42 1    
    84   42   43 1    
    85   42   44 1    
    86   42  165 1    
    87   43  166 1    
    88   43  167 1    
    89   43  168 1    
    90   44   45 am   BACKBONE|DICT|INTERRES
    91   44  169 1    
    92   45   46 2    
    93   45   47 1    
    94   47   48 1    
    95   47   49 1    
    96   47  170 1    
    97   48  171 1    
    98   48  172 1    
    99   48  173 1    
   100   49   50 am   BACKBONE|DICT|INTERRES
   101   49  174 1    
   102   50   51 2    
   103   50   52 1    
   104   52   53 1    
   105   52   54 1    
   106   52  175 1    
   107   53  176 1    
   108   53  177 1    
   109   53  178 1    
   110   54   55 am   BACKBONE|DICT|INTERRES
   111   54  179 1    
   112   55   56 2    
   113   55   57 1    
   114   57   58 1    
   115   57   59 1    
   116   57  180 1    
   117   58  181 1    
   118   58  182 1    
   119   58  183 1    
   120   59   60 am   BACKBONE|DICT|INTERRES
   121   59  184 1    
   122   60   61 2    
   123   60   62 1    
   124   62   63 1    
   125   62   64 1    
   126   62  185 1    
   127   63  186 1    
   128   63  187 1    
   129   63  188 1    
   130   64   65 am   BACKBONE|DICT|INTERRES
   131   64  189 1    
   132   65   66 2    
   133   67   68 2    
   134   67   69 am   BACKBONE|DICT|INTERRES
   135   69   70 1    
   136   69  190 1    
   137   70   71 1    
   138   70   72 1    
   139   70  191 1    
   140   71  192 1    
   141   71  193 1    
   142   71  194 1    
   143   72   73 2    
   144   72   74 am   BACKBONE|DICT|INTERRES
   145   74   75 1    
   146   74  195 1    
   147   75   76 1    
   148   75   77 1    
   149   75  196 1    
   150   76  197 1    
   151   76  198 1    
   152   76  199 1    
   153   77   78 2    
   154   77   79 am   BACKBONE|DICT|INTERRES
   155   79   80 1    
   156   79  200 1    
   157   80   81 1    
   158   80   82 1    
   159   80  201 1    
   160   81  202 1    
   161   81  203 1    
   162   81  204 1    
   163   82   83 2    
   164   82   84 am   BACKBONE|DICT|INTERRES
   165   84   85 1    
   166   84  205 1    
   167   85   86 1    
   168   85   87 1    
   169   85  206 1    
   170   86  207 1    
   171   86  208 1    
   172   86  209 1    
   173   87   88 2    
   174   87   89 am   BACKBONE|DICT|INTERRES
   175   89   90 1    
   176   89  210 1    
   177   90   91 1    
   178   90   92 1    
   179   90  211 1    
   180   91  212 1    
   181   91  213 1    
   182   91  214 1    
   183   92   93 2    
   184   92   94 am   BACKBONE|DICT|INTERRES
   185   94   95 1    
   186   94  215 1    
   187   95   96 1    
   188   95   97 1    
   189   95  216 1    
   190   96  217 1    
   191   96  218 1    
   192   96  219 1    
   193   97   98 2    
   194   97   99 am   BACKBONE|DICT|INTERRES
   195   99  100 1    
   196   99  220 1    
   197  100  101 1    
   198  100  102 1    
   199  100  221 1    
   200  101  222 1    
   201  101  223 1    
   202  101  224 1    
   203  102  103 2    
   204  102  104 am   BACKBONE|DICT|INTERRES
   205  104  105 1    
   206  104  225 1    
   207  105  106 1    
   208  105  107 1    
   209  105  226 1    
   210  106  227 1    
   211  106  228 1    
   212  106  229 1    
   213  107  108 2    
   214  107  109 am   BACKBONE|DICT|INTERRES
   215  109  110 1    
   216  109  230 1    
   217  110  111 1    
   218  110  112 1    
   219  110  231 1    
   220  111  232 1    
   221  111  233 1    
   222  111  234 1    
   223  112  113 2    
   224  112  114 am   BACKBONE|DICT|INTERRES
   225  114  115 1    
   226  114  235 1    
   227  115  116 1    
   228  115  117 1    
   229  115  236 1    
   230  116  237 1    
   231  116  238 1    
   232  116  239 1    
   233  117  118 2    
   234  117  119 am   BACKBONE|DICT|INTERRES
   235  119  120 1    
   236  119  240 1    
   237  120  121 1    
   238  120  124 1    
   239  120  241 1    
   240  121  122 am   BACKBONE|DICT|INTERRES
   241  121  123 2    
   242  122  242 1    
   243  122  243 1    
   244  124  125 1    
   245  124  244 1    
   246  124  245 1    
   247  125  126 1    
   248  126  246 1    
   249  126  247 1    
@<TRIPOS>SUBSTRUCTURE
     1 UNK         1 GROUP             0       ****    0 ROOT    
