@<TRIPOS>MOLECULE
3R540
247   249    1
SMALL
USER_CHARGES


@<TRIPOS>ATOM
      1 CA          2.5530  -12.5352  -52.8376 C.3       0 UNK        -0.1800 
      2 C           2.9880  -12.2152  -51.4144 C.2       0 UNK         0.5000 
      3 O           4.1132  -11.7632  -51.2020 O.2       0 UNK        -0.5000 
      4 N           2.1053  -12.4529  -50.4418 N.am      1 UNK        -0.5000 
      5 CA          2.3157  -12.2158  -49.0155 C.3       1 UNK         0.1400 
      6 C6          3.2507  -13.2691  -48.3532 C.3       23 UNK        -0.0398 
      7 S7          2.5934  -14.9752  -48.3387 S.3       23 UNK        -0.2404 
      8 C8          3.4590  -15.6950  -49.7646 C.3       23 UNK        -0.0205 
      9 C9          2.8066  -16.9974  -50.1921 C.ar      23 UNK        -0.0193 
     10 C10         1.7198  -16.9800  -51.0710 C.ar      23 UNK        -0.1150 
     11 C11         1.1130  -18.1734  -51.4705 C.ar      23 UNK        -0.0193 
     12 C12         1.6002  -19.3911  -50.9829 C.ar      23 UNK        -0.1150 
     13 C13         2.6907  -19.4201  -50.1078 C.ar      23 UNK        -0.0193 
     14 C14         3.2889  -18.2189  -49.7158 C.ar      23 UNK        -0.1150 
     15 C15         3.2465  -20.7434  -49.6020 C.3       23 UNK        -0.0205 
     16 S16         2.8906  -20.9998  -47.8360 S.3       23 UNK        -0.2404 
     17 C17         1.1281  -21.4682  -47.8596 C.3       23 UNK        -0.0398 
     18 CA          0.8756  -22.8076  -47.1263 C.3       11 UNK         0.1400 
     19 N           1.2423  -22.7309  -45.7137 N.am      11 UNK        -0.5000 
     20 C           1.4173  -23.7822  -44.9049 C.2       10 UNK         0.5000 
     21 O           1.3274  -24.9523  -45.2826 O.2       10 UNK        -0.5000 
     22 CA          1.7461  -23.4620  -43.4321 C.3       10 UNK         0.1400 
     23 CB          2.3121  -24.6687  -42.6553 C.3       10 UNK        -0.1800 
     24 N           2.6108  -22.2877  -43.2813 N.am      10 UNK        -0.5000 
     25 C           3.8659  -22.1206  -43.7266 C.2       9 UNK         0.5000 
     26 O           4.5063  -22.9935  -44.3141 O.2       9 UNK        -0.5000 
     27 CA          4.5293  -20.7475  -43.4772 C.3       9 UNK         0.1400 
     28 CB          4.7399  -19.9947  -44.7997 C.3       9 UNK        -0.1800 
     29 N           3.7709  -19.8852  -42.5694 N.am      9 UNK        -0.5000 
     30 C           3.7018  -20.0334  -41.2402 C.2       8 UNK         0.5000 
     31 O           4.3459  -20.8727  -40.6102 O.2       8 UNK        -0.5000 
     32 CA          2.7089  -19.1184  -40.4978 C.3       8 UNK         0.1400 
     33 CB          3.3681  -17.7784  -40.1387 C.3       8 UNK        -0.1800 
     34 N           1.4778  -18.8752  -41.2571 N.am      8 UNK        -0.5000 
     35 C           0.5860  -19.8225  -41.5841 C.2       7 UNK         0.5000 
     36 O           0.6926  -21.0024  -41.2513 O.2       7 UNK        -0.5000 
     37 CA         -0.6008  -19.3982  -42.4660 C.3       7 UNK         0.1400 
     38 CB         -1.6841  -18.7122  -41.6205 C.3       7 UNK        -0.1800 
     39 N          -0.1982  -18.5281  -43.5721 N.am      7 UNK        -0.5000 
     40 C           0.5890  -18.9070  -44.5902 C.2       6 UNK         0.5000 
     41 O           1.0129  -20.0539  -44.7287 O.2       6 UNK        -0.5000 
     42 CA          1.0125  -17.8173  -45.5956 C.3       6 UNK         0.1400 
     43 CB         -0.0721  -17.5795  -46.6566 C.3       6 UNK        -0.1800 
     44 N           1.3404  -16.5496  -44.9430 N.am      6 UNK        -0.5000 
     45 C           2.3378  -16.3847  -44.0631 C.2       5 UNK         0.5000 
     46 O           3.1320  -17.2713  -43.7509 O.2       5 UNK        -0.5000 
     47 CA          2.4170  -15.0186  -43.3631 C.3       5 UNK         0.1400 
     48 CB          3.0940  -13.9703  -44.2595 C.3       5 UNK        -0.1800 
     49 N           1.0925  -14.5491  -42.9539 N.am      5 UNK        -0.5000 
     50 C           0.3799  -15.0887  -41.9542 C.2       4 UNK         0.5000 
     51 O           0.7849  -16.0143  -41.2521 O.2       4 UNK        -0.5000 
     52 CA         -1.0334  -14.5239  -41.7171 C.3       4 UNK         0.1400 
     53 CB         -0.9741  -13.2894  -40.8052 C.3       4 UNK        -0.1800 
     54 N          -1.7214  -14.1733  -42.9594 N.am      4 UNK        -0.5000 
     55 C          -2.1150  -15.0576  -43.8872 C.2       3 UNK         0.5000 
     56 O          -1.9819  -16.2742  -43.7719 O.2       3 UNK        -0.5000 
     57 CA         -2.7009  -14.4785  -45.1891 C.3       3 UNK         0.1400 
     58 CB         -4.2162  -14.2702  -45.0544 C.3       3 UNK        -0.1800 
     59 N          -2.0665  -13.2203  -45.5976 N.am      3 UNK        -0.5000 
     60 C          -0.7638  -13.0917  -45.8814 C.2       2 UNK         0.5000 
     61 O           0.0413  -14.0235  -45.8134 O.2       2 UNK        -0.5000 
     62 CA         -0.2690  -11.6728  -46.2178 C.3       2 UNK         0.1400 
     63 CB          0.0643  -10.9126  -44.9240 C.3       2 UNK        -0.1800 
     64 N           0.9240  -11.7005  -47.0638 N.am      2 UNK        -0.5000 
     65 C           0.9350  -12.1108  -48.3379 C.2       1 UNK         0.5000 
     66 O          -0.0867  -12.3946  -48.9731 O.2       1 UNK        -0.5000 
     67 C          -0.6038  -23.2099  -47.2545 C.2       11 UNK         0.5000 
     68 O          -1.4492  -22.6493  -46.5503 O.2       11 UNK        -0.5000 
     69 N          -0.9055  -24.1207  -48.1923 N.am      12 UNK        -0.5000 
     70 CA         -2.2565  -24.6167  -48.4927 C.3       12 UNK         0.1400 
     71 CB         -2.1745  -25.6808  -49.5957 C.3       12 UNK        -0.1800 
     72 C          -3.2539  -23.5118  -48.8893 C.2       12 UNK         0.5000 
     73 O          -4.4517  -23.6580  -48.6487 O.2       12 UNK        -0.5000 
     74 N          -2.7302  -22.4023  -49.4245 N.am      13 UNK        -0.5000 
     75 CA         -3.4465  -21.1667  -49.7302 C.3       13 UNK         0.1400 
     76 CB         -2.4613  -20.1929  -50.3882 C.3       13 UNK        -0.1800 
     77 C          -4.1253  -20.5014  -48.5190 C.2       13 UNK         0.5000 
     78 O          -5.1229  -19.8065  -48.7077 O.2       13 UNK        -0.5000 
     79 N          -3.5904  -20.7326  -47.3139 N.am      14 UNK        -0.5000 
     80 CA         -4.1522  -20.2552  -46.0528 C.3       14 UNK         0.1400 
     81 CB         -3.0809  -19.4598  -45.2960 C.3       14 UNK        -0.1800 
     82 C          -4.6594  -21.4253  -45.1970 C.2       14 UNK         0.5000 
     83 O          -5.7266  -21.3114  -44.5947 O.2       14 UNK        -0.5000 
     84 N          -3.8984  -22.5289  -45.1588 N.am      15 UNK        -0.5000 
     85 CA         -4.1748  -23.6950  -44.3186 C.3       15 UNK         0.1400 
     86 CB         -2.9169  -24.5753  -44.2489 C.3       15 UNK        -0.1800 
     87 C          -5.3942  -24.5192  -44.7739 C.2       15 UNK         0.5000 
     88 O          -6.0807  -25.0877  -43.9238 O.2       15 UNK        -0.5000 
     89 N          -5.6424  -24.5713  -46.0893 N.am      16 UNK        -0.5000 
     90 CA         -6.7489  -25.3124  -46.7034 C.3       16 UNK         0.1400 
     91 CB         -6.1613  -26.4736  -47.5256 C.3       16 UNK        -0.1800 
     92 C          -7.6402  -24.4162  -47.5851 C.2       16 UNK         0.5000 
     93 O          -8.6238  -24.9116  -48.1360 O.2       16 UNK        -0.5000 
     94 N          -7.2730  -23.1319  -47.7275 N.am      17 UNK        -0.5000 
     95 CA         -7.8568  -22.1281  -48.6284 C.3       17 UNK         0.1400 
     96 CB         -9.3096  -21.8010  -48.2255 C.3       17 UNK        -0.1800 
     97 C          -7.7187  -22.4917  -50.1262 C.2       17 UNK         0.5000 
     98 O          -8.4953  -22.0111  -50.9531 O.2       17 UNK        -0.5000 
     99 N          -6.7281  -23.3294  -50.4576 N.am      18 UNK        -0.5000 
    100 CA        -6.4970  -23.8999  -51.7834 C.3       18 UNK         0.1400 
    101 CB        -6.0909  -25.3742  -51.6067 C.3       18 UNK        -0.1800 
    102 C         -5.4415  -23.0793  -52.5459 C.2       18 UNK         0.5000 
    103 O         -4.4111  -23.6173  -52.9540 O.2       18 UNK        -0.5000 
    104 N         -5.6922  -21.7700  -52.6767 N.am      19 UNK        -0.5000 
    105 CA        -4.7583  -20.8137  -53.2712 C.3       19 UNK         0.1400 
    106 CB        -5.1426  -19.3900  -52.8411 C.3       19 UNK        -0.1800 
    107 C         -4.6819  -20.9240  -54.8015 C.2       19 UNK         0.5000 
    108 O         -3.5811  -20.9086  -55.3536 O.2       19 UNK        -0.5000 
    109 N         -5.8498  -21.0283  -55.4544 N.am      20 UNK        -0.5000 
    110 CA        -6.0352  -21.0618  -56.9097 C.3       20 UNK         0.1400 
    111 CB        -5.5949  -22.4336  -57.4691 C.3       20 UNK        -0.1800 
    112 C         -5.3587  -19.8493  -57.5904 C.2       20 UNK         0.5000 
    113 O         -5.7018  -18.7102  -57.2659 O.2       20 UNK        -0.5000 
    114 N         -4.3790  -20.1015  -58.4694 N.am      21 UNK        -0.5000 
    115 CA        -3.5653  -19.0913  -59.1532 C.3       21 UNK         0.1400 
    116 CB        -2.6877  -19.7911  -60.2026 C.3       21 UNK        -0.1800 
    117 C         -2.6964  -18.2287  -58.2116 C.2       21 UNK         0.5000 
    118 O         -2.3031  -17.1281  -58.6002 O.2       21 UNK        -0.5000 
    119 N         -2.4260  -18.7244  -56.9965 N.am      22 UNK        -0.5000 
    120 CA        -1.7612  -17.9850  -55.9122 C.3       22 UNK         0.1400 
    121 C         -2.6881  -16.9555  -55.1936 C.2       22 UNK         0.5000 
    122 N         -3.9925  -16.9289  -55.4502 N.am      22 UNK        -0.7600 
    123 O         -2.2160  -16.1514  -54.3960 O.2       22 UNK        -0.5000 
    124 C124       -1.0961  -18.9689  -54.9114 C.3       23 UNK        -0.0398 
    125 S125        0.4437  -18.3452  -54.1517 S.3       23 UNK        -0.2404 
    126 C126       -0.0748  -18.1503  -52.4187 C.3       23 UNK        -0.0205 
    127 H127        1.5391  -12.9352  -52.8709 H         1 UNK         0.0600 
    128 H128        3.2233  -13.2739  -53.2771 H         1 UNK         0.0600 
    129 H129        2.5845  -11.6353  -53.4518 H         1 UNK         0.0600 
    130 H130        1.1706  -12.7810  -50.6544 H         1 UNK         0.3000 
    131 H131        2.7822  -11.2338  -48.9111 H         1 UNK         0.0600 
    132 H132        3.4580  -12.9855  -47.3211 H         1 UNK         0.0800 
    133 H133        4.2239  -13.2639  -48.8454 H         1 UNK         0.0800 
    134 H134        4.5073  -15.8562  -49.5086 H         1 UNK         0.0800 
    135 H135        3.4497  -14.9959  -50.6005 H         1 UNK         0.0800 
    136 H136        1.3448  -16.0360  -51.4414 H         1 UNK         0.1150 
    137 H137        1.1351  -20.3156  -51.2949 H         1 UNK         0.1150 
    138 H138        4.1295  -18.2371  -49.0361 H         1 UNK         0.1150 
    139 H139        2.8625  -21.5825  -50.1841 H         1 UNK         0.0800 
    140 H140        4.3283  -20.7481  -49.7427 H         1 UNK         0.0800 
    141 H141        0.7882  -21.5281  -48.8945 H         1 UNK         0.0800 
    142 H142        0.5558  -20.6626  -47.3987 H         1 UNK         0.0800 
    143 H143        1.4897  -23.5791  -47.5960 H         1 UNK         0.0600 
    144 H144        1.2895  -21.7938  -45.3189 H         1 UNK         0.3000 
    145 H145        0.7952  -23.1948  -42.9694 H         1 UNK         0.0600 
    146 H146        2.5179  -24.4064  -41.6175 H         1 UNK         0.0600 
    147 H147        1.6004  -25.4950  -42.6451 H         1 UNK         0.0600 
    148 H148        3.2366  -25.0399  -43.0981 H         1 UNK         0.0600 
    149 H149        2.1753  -21.5003  -42.8183 H         1 UNK         0.3000 
    150 H150        5.5096  -20.9383  -43.0362 H         1 UNK         0.0600 
    151 H151        5.2964  -20.5993  -45.5169 H         1 UNK         0.0600 
    152 H152        5.3022  -19.0739  -44.6438 H         1 UNK         0.0600 
    153 H153        3.7887  -19.7285  -45.2608 H         1 UNK         0.0600 
    154 H154        3.2623  -19.1177  -42.9986 H         1 UNK         0.3000 
    155 H155        2.4318  -19.6191  -39.5678 H         1 UNK         0.0600 
    156 H156        4.2791  -17.9334  -39.5594 H         1 UNK         0.0600 
    157 H157        2.7017  -17.1605  -39.5367 H         1 UNK         0.0600 
    158 H158        3.6373  -17.2105  -41.0294 H         1 UNK         0.0600 
    159 H159        1.2936  -17.9130  -41.5243 H         1 UNK         0.3000 
    160 H160       -1.0332  -20.3042  -42.8961 H         1 UNK         0.0600 
    161 H161       -1.3224  -17.7850  -41.1767 H         1 UNK         0.0600 
    162 H162       -2.0113  -19.3597  -40.8061 H         1 UNK         0.0600 
    163 H163       -2.5637  -18.4744  -42.2173 H         1 UNK         0.0600 
    164 H164       -0.5785  -17.5862  -43.5694 H         1 UNK         0.3000 
    165 H165        1.9099  -18.1734  -46.1061 H         1 UNK         0.0600 
    166 H166        0.2948  -16.9290  -47.4508 H         1 UNK         0.0600 
    167 H167       -0.3868  -18.5136  -47.1221 H         1 UNK         0.0600 
    168 H168       -0.9561  -17.1105  -46.2266 H         1 UNK         0.0600 
    169 H169        0.7624  -15.7474  -45.1766 H         1 UNK         0.3000 
    170 H170        3.0289  -15.1372  -42.4663 H         1 UNK         0.0600 
    171 H171        3.1786  -13.0102  -43.7503 H         1 UNK         0.0600 
    172 H172        4.1022  -14.2859  -44.5305 H         1 UNK         0.0600 
    173 H173        2.5445  -13.8118  -45.1864 H         1 UNK         0.0600 
    174 H174        0.6606  -13.8487  -43.5380 H         1 UNK         0.3000 
    175 H175       -1.6193  -15.2939  -41.2111 H         1 UNK         0.0600 
    176 H176       -0.4813  -13.5256  -39.8611 H         1 UNK         0.0600 
    177 H177       -0.4216  -12.4710  -41.2686 H         1 UNK         0.0600 
    178 H178       -1.9742  -12.9272  -40.5665 H         1 UNK         0.0600 
    179 H179       -1.8730  -13.1917  -43.1368 H         1 UNK         0.3000 
    180 H180       -2.5271  -15.2098  -45.9810 H         1 UNK         0.0600 
    181 H181       -4.7133  -15.1989  -44.7704 H         1 UNK         0.0600 
    182 H182       -4.4554  -13.5241  -44.2956 H         1 UNK         0.0600 
    183 H183       -4.6551  -13.9441  -45.9975 H         1 UNK         0.0600 
    184 H184       -2.6677  -12.4113  -45.6609 H         1 UNK         0.3000 
    185 H185       -1.0602  -11.1397  -46.7492 H         1 UNK         0.0600 
    186 H186       -0.8080  -10.8408  -44.2731 H         1 UNK         0.0600 
    187 H187        0.8563  -11.4054  -44.3584 H         1 UNK         0.0600 
    188 H188        0.3900   -9.8944  -45.1382 H         1 UNK         0.0600 
    189 H189        1.7985  -11.4957  -46.6045 H         1 UNK         0.3000 
    190 H190       -0.1557  -24.5336  -48.7286 H         1 UNK         0.3000 
    191 H191       -2.6434  -25.0927  -47.5905 H         1 UNK         0.0600 
    192 H192       -1.5200  -26.5025  -49.3045 H         1 UNK         0.0600 
    193 H193       -1.7981  -25.2645  -50.5311 H         1 UNK         0.0600 
    194 H194       -3.1568  -26.1093  -49.7981 H         1 UNK         0.0600 
    195 H195       -1.7366  -22.3943  -49.5951 H         1 UNK         0.3000 
    196 H196       -4.2333  -21.4105  -50.4410 H         1 UNK         0.0600 
    197 H197       -2.9571  -19.2688  -50.6873 H         1 UNK         0.0600 
    198 H198       -2.0225  -20.6358  -51.2817 H         1 UNK         0.0600 
    199 H199       -1.6477  -19.9238  -49.7128 H         1 UNK         0.0600 
    200 H200       -2.7774  -21.3347  -47.2451 H         1 UNK         0.3000 
    201 H201       -4.9997  -19.5897  -46.2300 H         1 UNK         0.0600 
    202 H202       -3.4516  -19.1253  -44.3270 H         1 UNK         0.0600 
    203 H203       -2.1855  -20.0574  -45.1235 H         1 UNK         0.0600 
    204 H204       -2.7909  -18.5701  -45.8532 H         1 UNK         0.0600 
    205 H205       -3.0131  -22.5411  -45.6605 H         1 UNK         0.3000 
    206 H206       -4.3848  -23.3350  -43.3091 H         1 UNK         0.0600 
    207 H207       -2.0636  -24.0150  -43.8656 H         1 UNK         0.0600 
    208 H208       -3.0718  -25.4265  -43.5849 H         1 UNK         0.0600 
    209 H209       -2.6436  -24.9688  -45.2275 H         1 UNK         0.0600 
    210 H210       -5.0206  -24.0965  -46.7332 H         1 UNK         0.3000 
    211 H211       -7.4027  -25.7344  -45.9378 H         1 UNK         0.0600 
    212 H212       -6.9512  -27.0834  -47.9659 H         1 UNK         0.0600 
    213 H213       -5.5560  -27.1308  -46.9012 H         1 UNK         0.0600 
    214 H214       -5.5330  -26.1146  -48.3411 H         1 UNK         0.0600 
    215 H215       -6.4482  -22.8345  -47.2288 H         1 UNK         0.3000 
    216 H216       -7.2739  -21.2196  -48.4849 H         1 UNK         0.0600 
    217 H217       -9.6856  -20.9424  -48.7830 H         1 UNK         0.0600 
    218 H218       -9.3784  -21.5529  -47.1663 H         1 UNK         0.0600 
    219 H219       -9.9839  -22.6352  -48.4202 H         1 UNK         0.0600 
    220 H220       -6.0714  -23.6050  -49.7333 H         1 UNK         0.3000 
    221 H221       -7.4176  -23.8756  -52.3701 H         1 UNK         0.0600 
    222 H222       -5.1665  -25.4705  -51.0367 H         1 UNK         0.0600 
    223 H223       -6.8650  -25.9344  -51.0817 H         1 UNK         0.0600 
    224 H224       -5.9372  -25.8583  -52.5719 H         1 UNK         0.0600 
    225 H225       -6.5624  -21.4063  -52.3119 H         1 UNK         0.3000 
    226 H226       -3.7605  -21.0240  -52.8829 H         1 UNK         0.0600 
    227 H227       -4.4024  -18.6676  -53.1856 H         1 UNK         0.0600 
    228 H228       -6.1093  -19.0897  -53.2470 H         1 UNK         0.0600 
    229 H229       -5.1974  -19.3034  -51.7558 H         1 UNK         0.0600 
    230 H230       -6.6981  -21.0129  -54.9070 H         1 UNK         0.3000 
    231 H231       -7.1053  -20.9560  -57.0931 H         1 UNK         0.0600 
    232 H232       -6.1489  -23.2412  -56.9903 H         1 UNK         0.0600 
    233 H233       -4.5338  -22.6261  -57.3066 H         1 UNK         0.0600 
    234 H234       -5.7906  -22.5059  -58.5397 H         1 UNK         0.0600 
    235 H235       -4.1404  -21.0656  -58.6515 H         1 UNK         0.3000 
    236 H236       -4.2462  -18.4145  -59.6734 H         1 UNK         0.0600 
    237 H237       -3.2949  -20.3325  -60.9283 H         1 UNK         0.0600 
    238 H238       -2.0893  -19.0676  -60.7580 H         1 UNK         0.0600 
    239 H239       -1.9998  -20.5011  -59.7417 H         1 UNK         0.0600 
    240 H240       -2.8166  -19.6236  -56.7344 H         1 UNK         0.3000 
    241 H241       -0.9665  -17.3976  -56.3758 H         1 UNK         0.0600 
    242 H242       -4.4165  -17.5644  -56.1157 H         1 UNK         0.3800 
    243 H243       -4.5673  -16.2451  -54.9846 H         1 UNK         0.3800 
    244 H244       -1.8055  -19.2864  -54.1460 H         1 UNK         0.0800 
    245 H245       -0.8125  -19.8864  -55.4294 H         1 UNK         0.0800 
    246 H246       -0.7549  -18.9543  -52.1494 H         1 UNK         0.0800 
    247 H247       -0.6372  -17.2216  -52.3095 H         1 UNK         0.0800 
@<TRIPOS>BOND
     1    1    2 1    
     2    1  127 1    
     3    1  128 1    
     4    1  129 1    
     5    2    3 2    
     6    2    4 am   BACKBONE|DICT|INTERRES
     7    4    5 1    
     8    4  130 1    
     9    5    6 1    
    10    5   65 1    
    11    5  131 1    
    12    6    7 1    
    13    6  132 1    
    14    6  133 1    
    15    7    8 1    
    16    8    9 1    
    17    8  134 1    
    18    8  135 1    
    19    9   10 ar   
    20    9   14 ar   
    21   10   11 ar   
    22   10  136 1    
    23   11   12 ar   
    24   11  126 1    
    25   12   13 ar   
    26   12  137 1    
    27   13   14 ar   
    28   13   15 1    
    29   14  138 1    
    30   15   16 1    
    31   15  139 1    
    32   15  140 1    
    33   16   17 1    
    34   17   18 1    
    35   17  141 1    
    36   17  142 1    
    37   18   19 1    
    38   18   67 1    
    39   18  143 1    
    40   19   20 am   BACKBONE|DICT|INTERRES
    41   19  144 1    
    42   20   21 2    
    43   20   22 1    
    44   22   23 1    
    45   22   24 1    
    46   22  145 1    
    47   23  146 1    
    48   23  147 1    
    49   23  148 1    
    50   24   25 am   BACKBONE|DICT|INTERRES
    51   24  149 1    
    52   25   26 2    
    53   25   27 1    
    54   27   28 1    
    55   27   29 1    
    56   27  150 1    
    57   28  151 1    
    58   28  152 1    
    59   28  153 1    
    60   29   30 am   BACKBONE|DICT|INTERRES
    61   29  154 1    
    62   30   31 2    
    63   30   32 1    
    64   32   33 1    
    65   32   34 1    
    66   32  155 1    
    67   33  156 1    
    68   33  157 1    
    69   33  158 1    
    70   34   35 am   BACKBONE|DICT|INTERRES
    71   34  159 1    
    72   35   36 2    
    73   35   37 1    
    74   37   38 1    
    75   37   39 1    
    76   37  160 1    
    77   38  161 1    
    78   38  162 1    
    79   38  163 1    
    80   39   40 am   BACKBONE|DICT|INTERRES
    81   39  164 1    
    82   40   41 2    
    83   40   42 1    
    84   42   43 1    
    85   42   44 1    
    86   42  165 1    
    87   43  166 1    
    88   43  167 1    
    89   43  168 1    
    90   44   45 am   BACKBONE|DICT|INTERRES
    91   44  169 1    
    92   45   46 2    
    93   45   47 1    
    94   47   48 1    
    95   47   49 1    
    96   47  170 1    
    97   48  171 1    
    98   48  172 1    
    99   48  173 1    
   100   49   50 am   BACKBONE|DICT|INTERRES
   101   49  174 1    
   102   50   51 2    
   103   50   52 1    
   104   52   53 1    
   105   52   54 1    
   106   52  175 1    
   107   53  176 1    
   108   53  177 1    
   109   53  178 1    
   110   54   55 am   BACKBONE|DICT|INTERRES
   111   54  179 1    
   112   55   56 2    
   113   55   57 1    
   114   57   58 1    
   115   57   59 1    
   116   57  180 1    
   117   58  181 1    
   118   58  182 1    
   119   58  183 1    
   120   59   60 am   BACKBONE|DICT|INTERRES
   121   59  184 1    
   122   60   61 2    
   123   60   62 1    
   124   62   63 1    
   125   62   64 1    
   126   62  185 1    
   127   63  186 1    
   128   63  187 1    
   129   63  188 1    
   130   64   65 am   BACKBONE|DICT|INTERRES
   131   64  189 1    
   132   65   66 2    
   133   67   68 2    
   134   67   69 am   BACKBONE|DICT|INTERRES
   135   69   70 1    
   136   69  190 1    
   137   70   71 1    
   138   70   72 1    
   139   70  191 1    
   140   71  192 1    
   141   71  193 1    
   142   71  194 1    
   143   72   73 2    
   144   72   74 am   BACKBONE|DICT|INTERRES
   145   74   75 1    
   146   74  195 1    
   147   75   76 1    
   148   75   77 1    
   149   75  196 1    
   150   76  197 1    
   151   76  198 1    
   152   76  199 1    
   153   77   78 2    
   154   77   79 am   BACKBONE|DICT|INTERRES
   155   79   80 1    
   156   79  200 1    
   157   80   81 1    
   158   80   82 1    
   159   80  201 1    
   160   81  202 1    
   161   81  203 1    
   162   81  204 1    
   163   82   83 2    
   164   82   84 am   BACKBONE|DICT|INTERRES
   165   84   85 1    
   166   84  205 1    
   167   85   86 1    
   168   85   87 1    
   169   85  206 1    
   170   86  207 1    
   171   86  208 1    
   172   86  209 1    
   173   87   88 2    
   174   87   89 am   BACKBONE|DICT|INTERRES
   175   89   90 1    
   176   89  210 1    
   177   90   91 1    
   178   90   92 1    
   179   90  211 1    
   180   91  212 1    
   181   91  213 1    
   182   91  214 1    
   183   92   93 2    
   184   92   94 am   BACKBONE|DICT|INTERRES
   185   94   95 1    
   186   94  215 1    
   187   95   96 1    
   188   95   97 1    
   189   95  216 1    
   190   96  217 1    
   191   96  218 1    
   192   96  219 1    
   193   97   98 2    
   194   97   99 am   BACKBONE|DICT|INTERRES
   195   99  100 1    
   196   99  220 1    
   197  100  101 1    
   198  100  102 1    
   199  100  221 1    
   200  101  222 1    
   201  101  223 1    
   202  101  224 1    
   203  102  103 2    
   204  102  104 am   BACKBONE|DICT|INTERRES
   205  104  105 1    
   206  104  225 1    
   207  105  106 1    
   208  105  107 1    
   209  105  226 1    
   210  106  227 1    
   211  106  228 1    
   212  106  229 1    
   213  107  108 2    
   214  107  109 am   BACKBONE|DICT|INTERRES
   215  109  110 1    
   216  109  230 1    
   217  110  111 1    
   218  110  112 1    
   219  110  231 1    
   220  111  232 1    
   221  111  233 1    
   222  111  234 1    
   223  112  113 2    
   224  112  114 am   BACKBONE|DICT|INTERRES
   225  114  115 1    
   226  114  235 1    
   227  115  116 1    
   228  115  117 1    
   229  115  236 1    
   230  116  237 1    
   231  116  238 1    
   232  116  239 1    
   233  117  118 2    
   234  117  119 am   BACKBONE|DICT|INTERRES
   235  119  120 1    
   236  119  240 1    
   237  120  121 1    
   238  120  124 1    
   239  120  241 1    
   240  121  122 am   BACKBONE|DICT|INTERRES
   241  121  123 2    
   242  122  242 1    
   243  122  243 1    
   244  124  125 1    
   245  124  244 1    
   246  124  245 1    
   247  125  126 1    
   248  126  246 1    
   249  126  247 1    
@<TRIPOS>SUBSTRUCTURE
     1 UNK         1 GROUP             0       ****    0 ROOT    
