@<TRIPOS>MOLECULE
3R540
247   249    1
SMALL
USER_CHARGES


@<TRIPOS>ATOM
      1 CA         -0.4868  -13.1815  -42.7766 C.3       0 UNK        -0.1800 
      2 C          -0.5375  -12.3372  -44.0427 C.2       0 UNK         0.5000 
      3 O           0.1939  -11.3536  -44.1498 O.2       0 UNK        -0.5000 
      4 N          -1.3987  -12.7169  -44.9951 N.am      1 UNK        -0.5000 
      5 CA         -1.5528  -12.0839  -46.3083 C.3       1 UNK         0.1400 
      6 C6         -2.7425  -12.6731  -47.1039 C.3       23 UNK        -0.0398 
      7 S7         -4.3747  -12.5105  -46.3097 S.3       23 UNK        -0.2404 
      8 C8         -5.4822  -13.0254  -47.6704 C.3       23 UNK        -0.0205 
      9 C9         -5.3815  -14.5141  -47.9905 C.ar      23 UNK        -0.0193 
     10 C10        -6.3464  -15.4144  -47.5236 C.ar      23 UNK        -0.1150 
     11 C11        -6.2597  -16.7774  -47.8311 C.ar      23 UNK        -0.0193 
     12 C12        -5.1651  -17.2361  -48.5705 C.ar      23 UNK        -0.1150 
     13 C13        -4.1921  -16.3539  -49.0417 C.ar      23 UNK        -0.0193 
     14 C14        -4.3295  -14.9911  -48.7777 C.ar      23 UNK        -0.1150 
     15 C15        -2.9998  -16.8568  -49.8447 C.3       23 UNK        -0.0205 
     16 S16        -1.9988  -18.0687  -48.9219 S.3       23 UNK        -0.2404 
     17 C17        -2.7438  -19.6469  -49.4555 C.3       23 UNK        -0.0398 
     18 CA         -2.9941  -20.6617  -48.3172 C.3       11 UNK         0.1400 
     19 N          -3.6836  -20.0658  -47.1651 N.am      11 UNK        -0.5000 
     20 C          -4.0175  -20.6916  -46.0264 C.2       10 UNK         0.5000 
     21 O          -3.9249  -21.9103  -45.8676 O.2       10 UNK        -0.5000 
     22 CA         -4.5243  -19.8110  -44.8741 C.3       10 UNK         0.1400 
     23 CB         -4.2336  -20.4279  -43.4930 C.3       10 UNK        -0.1800 
     24 N          -3.9330  -18.4755  -44.9416 N.am      10 UNK        -0.5000 
     25 C          -4.5669  -17.3411  -44.6155 C.2       9 UNK         0.5000 
     26 O          -5.7445  -17.3016  -44.2568 O.2       9 UNK        -0.5000 
     27 CA         -3.7295  -16.0491  -44.6464 C.3       9 UNK         0.1400 
     28 CB         -4.3231  -14.9487  -43.7475 C.3       9 UNK        -0.1800 
     29 N          -2.3763  -16.3485  -44.1891 N.am      9 UNK        -0.5000 
     30 C          -1.2530  -16.1749  -44.8890 C.2       8 UNK         0.5000 
     31 O          -1.2016  -15.6051  -45.9789 O.2       8 UNK        -0.5000 
     32 CA          0.0474  -16.7001  -44.2528 C.3       8 UNK         0.1400 
     33 CB         -0.1331  -17.3427  -42.8592 C.3       8 UNK        -0.1800 
     34 N           0.7701  -17.6210  -45.1301 N.am      8 UNK        -0.5000 
     35 C           0.2942  -18.7248  -45.7222 C.2       7 UNK         0.5000 
     36 O          -0.8806  -19.0900  -45.6442 O.2       7 UNK        -0.5000 
     37 CA          1.3108  -19.6103  -46.4760 C.3       7 UNK         0.1400 
     38 CB          1.5714  -19.1120  -47.9092 C.3       7 UNK        -0.1800 
     39 N           2.5726  -19.8413  -45.7545 N.am      7 UNK        -0.5000 
     40 C           3.5518  -18.9702  -45.4713 C.2       6 UNK         0.5000 
     41 O           3.5293  -17.7748  -45.7743 O.2       6 UNK        -0.5000 
     42 CA          4.7696  -19.5447  -44.7370 C.3       6 UNK         0.1400 
     43 CB          5.6820  -20.3011  -45.7233 C.3       6 UNK        -0.1800 
     44 N           5.5080  -18.4589  -44.0969 N.am      6 UNK        -0.5000 
     45 C           6.4474  -18.6138  -43.1565 C.2       5 UNK         0.5000 
     46 O           6.7602  -19.7054  -42.6787 O.2       5 UNK        -0.5000 
     47 CA          7.1802  -17.3486  -42.6743 C.3       5 UNK         0.1400 
     48 CB          8.4099  -17.0780  -43.5554 C.3       5 UNK        -0.1800 
     49 N           6.3419  -16.1501  -42.6519 N.am      5 UNK        -0.5000 
     50 C           5.4053  -15.8883  -41.7289 C.2       4 UNK         0.5000 
     51 O           5.1008  -16.6663  -40.8242 O.2       4 UNK        -0.5000 
     52 CA          4.7103  -14.5135  -41.8139 C.3       4 UNK         0.1400 
     53 CB          5.3728  -13.5170  -40.8500 C.3       4 UNK        -0.1800 
     54 N           4.7292  -13.9511  -43.1673 N.am      4 UNK        -0.5000 
     55 C           3.9232  -14.3705  -44.1480 C.2       3 UNK         0.5000 
     56 O           3.0469  -15.2214  -43.9881 O.2       3 UNK        -0.5000 
     57 CA          4.1561  -13.7703  -45.5395 C.3       3 UNK         0.1400 
     58 CB          5.3679  -14.4470  -46.2126 C.3       3 UNK        -0.1800 
     59 N           2.9479  -13.9806  -46.3283 N.am      3 UNK        -0.5000 
     60 C           2.6722  -13.4472  -47.5218 C.2       2 UNK         0.5000 
     61 O           3.4148  -12.6655  -48.1173 O.2       2 UNK        -0.5000 
     62 CA          1.3273  -13.8512  -48.1465 C.3       2 UNK         0.1400 
     63 CB          1.2648  -15.3618  -48.4257 C.3       2 UNK        -0.1800 
     64 N           0.1981  -13.4768  -47.3001 N.am      2 UNK        -0.5000 
     65 C          -0.2731  -12.2298  -47.1586 C.2       1 UNK         0.5000 
     66 O           0.2296  -11.2363  -47.6854 O.2       1 UNK        -0.5000 
     67 C          -3.6789  -21.9225  -48.8909 C.2       11 UNK         0.5000 
     68 O          -2.9880  -22.8137  -49.3835 O.2       11 UNK        -0.5000 
     69 N          -5.0111  -22.0124  -48.7670 N.am      12 UNK        -0.5000 
     70 CA         -5.8043  -23.1874  -49.1404 C.3       12 UNK         0.1400 
     71 CB         -7.2929  -22.8780  -48.9285 C.3       12 UNK        -0.1800 
     72 C          -5.4055  -24.4860  -48.4030 C.2       12 UNK         0.5000 
     73 O          -5.6290  -25.5718  -48.9377 O.2       12 UNK        -0.5000 
     74 N          -4.8042  -24.3531  -47.2137 N.am      13 UNK        -0.5000 
     75 CA         -4.2030  -25.4454  -46.4551 C.3       13 UNK         0.1400 
     76 CB         -4.7787  -25.4491  -45.0296 C.3       13 UNK        -0.1800 
     77 C          -2.6737  -25.2954  -46.4249 C.2       13 UNK         0.5000 
     78 O          -1.9613  -26.2427  -46.7563 O.2       13 UNK        -0.5000 
     79 N          -2.1914  -24.1055  -46.0421 N.am      14 UNK        -0.5000 
     80 CA         -0.7835  -23.8191  -45.7553 C.3       14 UNK         0.1400 
     81 CB         -0.7027  -22.4975  -44.9799 C.3       14 UNK        -0.1800 
     82 C           0.1363  -23.7864  -46.9915 C.2       14 UNK         0.5000 
     83 O           1.3409  -23.9920  -46.8436 O.2       14 UNK        -0.5000 
     84 N          -0.4357  -23.5465  -48.1771 N.am      15 UNK        -0.5000 
     85 CA          0.2369  -23.6192  -49.4776 C.3       15 UNK         0.1400 
     86 CB          0.1987  -22.2293  -50.1344 C.3       15 UNK        -0.1800 
     87 C          -0.4195  -24.6985  -50.3659 C.2       15 UNK         0.5000 
     88 O          -0.2331  -24.6886  -51.5866 O.2       15 UNK        -0.5000 
     89 N          -1.1981  -25.5934  -49.7318 N.am      16 UNK        -0.5000 
     90 CA         -1.9261  -26.7417  -50.2830 C.3       16 UNK         0.1400 
     91 CB         -0.9233  -27.8111  -50.7631 C.3       16 UNK        -0.1800 
     92 C          -2.9649  -26.3955  -51.3714 C.2       16 UNK         0.5000 
     93 O          -3.3639  -27.2880  -52.1212 O.2       16 UNK        -0.5000 
     94 N          -3.3523  -25.1129  -51.4722 N.am      17 UNK        -0.5000 
     95 CA         -4.1286  -24.5130  -52.5662 C.3       17 UNK         0.1400 
     96 CB         -5.5502  -25.1116  -52.6408 C.3       17 UNK        -0.1800 
     97 C          -3.4009  -24.5770  -53.9325 C.2       17 UNK         0.5000 
     98 O          -4.0499  -24.4357  -54.9706 O.2       17 UNK        -0.5000 
     99 N          -2.0822  -24.8198  -53.9161 N.am      18 UNK        -0.5000 
    100 CA        -1.2690  -25.1282  -55.0876 C.3       18 UNK         0.1400 
    101 CB        -0.5218  -26.4505  -54.8441 C.3       18 UNK        -0.1800 
    102 C         -0.2894  -23.9885  -55.3849 C.2       18 UNK         0.5000 
    103 O         -0.3055  -23.4527  -56.4939 O.2       18 UNK        -0.5000 
    104 N          0.5398  -23.6275  -54.3948 N.am      19 UNK        -0.5000 
    105 CA         1.5142  -22.5374  -54.5164 C.3       19 UNK         0.1400 
    106 CB         2.6642  -22.7650  -53.5233 C.3       19 UNK        -0.1800 
    107 C          0.8690  -21.1485  -54.3374 C.2       19 UNK         0.5000 
    108 O          1.3978  -20.1588  -54.8447 O.2       19 UNK        -0.5000 
    109 N         -0.2756  -21.1134  -53.6506 N.am      20 UNK        -0.5000 
    110 CA        -1.1619  -19.9762  -53.4470 C.3       20 UNK         0.1400 
    111 CB        -0.5487  -18.9895  -52.4354 C.3       20 UNK        -0.1800 
    112 C         -2.5007  -20.5440  -52.9532 C.2       20 UNK         0.5000 
    113 O         -2.5316  -21.6782  -52.4721 O.2       20 UNK        -0.5000 
    114 N         -3.5772  -19.7611  -53.0549 N.am      21 UNK        -0.5000 
    115 CA        -4.9220  -20.1294  -52.6156 C.3       21 UNK         0.1400 
    116 CB        -5.6408  -20.9067  -53.7328 C.3       21 UNK        -0.1800 
    117 C         -5.6923  -18.8566  -52.2355 C.2       21 UNK         0.5000 
    118 O         -5.2806  -17.7588  -52.6185 O.2       21 UNK        -0.5000 
    119 N         -6.7930  -19.0267  -51.4931 N.am      22 UNK        -0.5000 
    120 CA        -7.6559  -17.9293  -51.0142 C.3       22 UNK         0.1400 
    121 C         -8.5202  -17.2410  -52.1136 C.2       22 UNK         0.5000 
    122 N         -8.6255  -17.7840  -53.3205 N.am      22 UNK        -0.7600 
    123 O         -9.1065  -16.1909  -51.8664 O.2       22 UNK        -0.5000 
    124 C124       -8.5520  -18.3617  -49.8213 C.3       23 UNK        -0.0398 
    125 S125       -7.6507  -19.1590  -48.4462 S.3       23 UNK        -0.2404 
    126 C126       -7.3354  -17.7428  -47.3339 C.3       23 UNK        -0.0205 
    127 H127        0.4700  -13.6997  -42.7097 H         1 UNK         0.0600 
    128 H128       -1.2835  -13.9247  -42.7500 H         1 UNK         0.0600 
    129 H129       -0.5921  -12.5456  -41.8977 H         1 UNK         0.0600 
    130 H130       -1.9656  -13.5402  -44.8548 H         1 UNK         0.3000 
    131 H131       -1.7348  -11.0189  -46.1500 H         1 UNK         0.0600 
    132 H132       -2.5663  -13.7356  -47.2667 H         1 UNK         0.0800 
    133 H133       -2.8038  -12.2078  -48.0898 H         1 UNK         0.0800 
    134 H134       -6.5073  -12.7747  -47.3940 H         1 UNK         0.0800 
    135 H135       -5.2615  -12.4391  -48.5636 H         1 UNK         0.0800 
    136 H136       -7.1713  -15.0516  -46.9266 H         1 UNK         0.1150 
    137 H137       -5.0812  -18.2854  -48.7950 H         1 UNK         0.1150 
    138 H138       -3.6012  -14.3001  -49.1752 H         1 UNK         0.1150 
    139 H139       -3.3398  -17.2773  -50.7907 H         1 UNK         0.0800 
    140 H140       -2.3456  -16.0241  -50.1073 H         1 UNK         0.0800 
    141 H141       -2.0622  -20.0844  -50.1804 H         1 UNK         0.0800 
    142 H142       -3.6650  -19.4486  -50.0006 H         1 UNK         0.0800 
    143 H143       -2.0179  -20.9798  -47.9454 H         1 UNK         0.0600 
    144 H144       -3.7672  -19.0596  -47.1876 H         1 UNK         0.3000 
    145 H145       -5.6064  -19.7457  -45.0026 H         1 UNK         0.0600 
    146 H146       -4.6218  -19.8008  -42.6904 H         1 UNK         0.0600 
    147 H147       -4.7017  -21.4078  -43.3904 H         1 UNK         0.0600 
    148 H148       -3.1622  -20.5547  -43.3319 H         1 UNK         0.0600 
    149 H149       -2.9539  -18.4418  -45.2102 H         1 UNK         0.3000 
    150 H150       -3.7228  -15.6953  -45.6796 H         1 UNK         0.0600 
    151 H151       -5.3099  -14.6471  -44.1011 H         1 UNK         0.0600 
    152 H152       -3.6977  -14.0572  -43.7414 H         1 UNK         0.0600 
    153 H153       -4.4303  -15.2858  -42.7159 H         1 UNK         0.0600 
    154 H154       -2.3155  -16.8449  -43.3108 H         1 UNK         0.3000 
    155 H155        0.6727  -15.8197  -44.1302 H         1 UNK         0.0600 
    156 H156        0.8319  -17.6336  -42.4435 H         1 UNK         0.0600 
    157 H157       -0.7563  -18.2374  -42.8969 H         1 UNK         0.0600 
    158 H158       -0.5819  -16.6441  -42.1519 H         1 UNK         0.0600 
    159 H159        1.7558  -17.4143  -45.2736 H         1 UNK         0.3000 
    160 H160        0.8482  -20.5928  -46.5712 H         1 UNK         0.0600 
    161 H161        2.0364  -18.1278  -47.9250 H         1 UNK         0.0600 
    162 H162        0.6441  -19.0452  -48.4751 H         1 UNK         0.0600 
    163 H163        2.2273  -19.7959  -48.4477 H         1 UNK         0.0600 
    164 H164        2.6990  -20.7925  -45.4380 H         1 UNK         0.3000 
    165 H165        4.4121  -20.2306  -43.9660 H         1 UNK         0.0600 
    166 H166        6.0835  -19.6335  -46.4868 H         1 UNK         0.0600 
    167 H167        6.5238  -20.7697  -45.2138 H         1 UNK         0.0600 
    168 H168        5.1378  -21.0955  -46.2356 H         1 UNK         0.0600 
    169 H169        5.2517  -17.5331  -44.4164 H         1 UNK         0.3000 
    170 H170        7.5308  -17.5395  -41.6575 H         1 UNK         0.0600 
    171 H171        9.0729  -17.9441  -43.5777 H         1 UNK         0.0600 
    172 H172        8.1270  -16.8551  -44.5851 H         1 UNK         0.0600 
    173 H173        8.9901  -16.2366  -43.1761 H         1 UNK         0.0600 
    174 H174        6.5282  -15.4523  -43.3556 H         1 UNK         0.3000 
    175 H175        3.6725  -14.6477  -41.5002 H         1 UNK         0.0600 
    176 H176        6.4157  -13.3344  -41.1122 H         1 UNK         0.0600 
    177 H177        4.8521  -12.5593  -40.8538 H         1 UNK         0.0600 
    178 H178        5.3528  -13.8922  -39.8259 H         1 UNK         0.0600 
    179 H179        5.4203  -13.2390  -43.3568 H         1 UNK         0.3000 
    180 H180        4.3326  -12.6978  -45.4374 H         1 UNK         0.0600 
    181 H181        5.2017  -15.5164  -46.3507 H         1 UNK         0.0600 
    182 H182        6.2709  -14.3290  -45.6129 H         1 UNK         0.0600 
    183 H183        5.5787  -14.0147  -47.1904 H         1 UNK         0.0600 
    184 H184        2.2850  -14.6068  -45.8896 H         1 UNK         0.3000 
    185 H185        1.2324  -13.3309  -49.1021 H         1 UNK         0.0600 
    186 H186        0.3563  -15.6253  -48.9679 H         1 UNK         0.0600 
    187 H187        2.1125  -15.6865  -49.0303 H         1 UNK         0.0600 
    188 H188        1.2750  -15.9410  -47.5023 H         1 UNK         0.0600 
    189 H189       -0.2876  -14.2382  -46.8299 H         1 UNK         0.3000 
    190 H190       -5.5079  -21.2550  -48.3208 H         1 UNK         0.3000 
    191 H191       -5.6428  -23.3577  -50.2050 H         1 UNK         0.0600 
    192 H192       -7.5068  -22.6246  -47.8894 H         1 UNK         0.0600 
    193 H193       -7.9131  -23.7357  -49.1927 H         1 UNK         0.0600 
    194 H194       -7.6152  -22.0446  -49.5523 H         1 UNK         0.0600 
    195 H195       -4.6475  -23.4179  -46.8508 H         1 UNK         0.3000 
    196 H196       -4.4308  -26.4104  -46.9126 H         1 UNK         0.0600 
    197 H197       -4.3271  -26.2383  -44.4272 H         1 UNK         0.0600 
    198 H198       -5.8542  -25.6258  -45.0437 H         1 UNK         0.0600 
    199 H199       -4.6044  -24.5017  -44.5175 H         1 UNK         0.0600 
    200 H200       -2.8469  -23.3556  -45.8322 H         1 UNK         0.3000 
    201 H201       -0.4106  -24.6120  -45.1035 H         1 UNK         0.0600 
    202 H202       -1.2646  -22.5516  -44.0473 H         1 UNK         0.0600 
    203 H203       -1.1108  -21.6746  -45.5645 H         1 UNK         0.0600 
    204 H204        0.3278  -22.2485  -44.7242 H         1 UNK         0.0600 
    205 H205       -1.4364  -23.3884  -48.2238 H         1 UNK         0.3000 
    206 H206        1.2819  -23.9088  -49.3538 H         1 UNK         0.0600 
    207 H207        0.5454  -21.4555  -49.4508 H         1 UNK         0.0600 
    208 H208        0.8345  -22.1900  -51.0152 H         1 UNK         0.0600 
    209 H209       -0.8056  -21.9680  -50.4582 H         1 UNK         0.0600 
    210 H210       -1.2673  -25.5069  -48.7256 H         1 UNK         0.3000 
    211 H211       -2.4939  -27.1657  -49.4536 H         1 UNK         0.0600 
    212 H212       -0.3607  -27.4733  -51.6339 H         1 UNK         0.0600 
    213 H213       -1.4324  -28.7349  -51.0405 H         1 UNK         0.0600 
    214 H214       -0.2091  -28.0618  -49.9788 H         1 UNK         0.0600 
    215 H215       -2.9745  -24.4497  -50.8038 H         1 UNK         0.3000 
    216 H216       -4.2430  -23.4614  -52.3116 H         1 UNK         0.0600 
    217 H217       -6.0227  -25.1562  -51.6608 H         1 UNK         0.0600 
    218 H218       -5.5442  -26.1217  -53.0507 H         1 UNK         0.0600 
    219 H219       -6.1915  -24.5064  -53.2826 H         1 UNK         0.0600 
    220 H220       -1.6106  -24.8597  -53.0181 H         1 UNK         0.3000 
    221 H221       -1.8999  -25.2621  -55.9688 H         1 UNK         0.0600 
    222 H222        0.1186  -26.4022  -53.9625 H         1 UNK         0.0600 
    223 H223       -1.2225  -27.2729  -54.6979 H         1 UNK         0.0600 
    224 H224        0.1084  -26.7067  -55.6965 H         1 UNK         0.0600 
    225 H225        0.4755  -24.0941  -53.4965 H         1 UNK         0.3000 
    226 H226        1.9442  -22.5593  -55.5202 H         1 UNK         0.0600 
    227 H227        3.2217  -23.6670  -53.7760 H         1 UNK         0.0600 
    228 H228        3.3697  -21.9333  -53.5408 H         1 UNK         0.0600 
    229 H229        2.3089  -22.8756  -52.5011 H         1 UNK         0.0600 
    230 H230       -0.6586  -21.9789  -53.2880 H         1 UNK         0.3000 
    231 H231       -1.3294  -19.4753  -54.4023 H         1 UNK         0.0600 
    232 H232       -1.2524  -18.1982  -52.1750 H         1 UNK         0.0600 
    233 H233        0.3384  -18.5069  -52.8452 H         1 UNK         0.0600 
    234 H234       -0.2527  -19.4882  -51.5125 H         1 UNK         0.0600 
    235 H235       -3.4977  -18.8123  -53.4001 H         1 UNK         0.3000 
    236 H236       -4.8558  -20.7598  -51.7262 H         1 UNK         0.0600 
    237 H237       -5.0876  -21.8031  -54.0124 H         1 UNK         0.0600 
    238 H238       -6.6337  -21.2273  -53.4157 H         1 UNK         0.0600 
    239 H239       -5.7601  -20.2984  -54.6301 H         1 UNK         0.0600 
    240 H240       -7.0787  -19.9566  -51.2251 H         1 UNK         0.3000 
    241 H241       -6.9936  -17.1432  -50.6490 H         1 UNK         0.0600 
    242 H242       -8.1498  -18.6432  -53.5415 H         1 UNK         0.3800 
    243 H243       -9.1854  -17.3261  -54.0226 H         1 UNK         0.3800 
    244 H244       -9.1010  -17.5047  -49.4271 H         1 UNK         0.0800 
    245 H245       -9.3101  -19.0676  -50.1644 H         1 UNK         0.0800 
    246 H246       -7.0247  -18.1381  -46.3682 H         1 UNK         0.0800 
    247 H247       -8.2725  -17.2123  -47.1584 H         1 UNK         0.0800 
@<TRIPOS>BOND
     1    1    2 1    
     2    1  127 1    
     3    1  128 1    
     4    1  129 1    
     5    2    3 2    
     6    2    4 am   BACKBONE|DICT|INTERRES
     7    4    5 1    
     8    4  130 1    
     9    5    6 1    
    10    5   65 1    
    11    5  131 1    
    12    6    7 1    
    13    6  132 1    
    14    6  133 1    
    15    7    8 1    
    16    8    9 1    
    17    8  134 1    
    18    8  135 1    
    19    9   10 ar   
    20    9   14 ar   
    21   10   11 ar   
    22   10  136 1    
    23   11   12 ar   
    24   11  126 1    
    25   12   13 ar   
    26   12  137 1    
    27   13   14 ar   
    28   13   15 1    
    29   14  138 1    
    30   15   16 1    
    31   15  139 1    
    32   15  140 1    
    33   16   17 1    
    34   17   18 1    
    35   17  141 1    
    36   17  142 1    
    37   18   19 1    
    38   18   67 1    
    39   18  143 1    
    40   19   20 am   BACKBONE|DICT|INTERRES
    41   19  144 1    
    42   20   21 2    
    43   20   22 1    
    44   22   23 1    
    45   22   24 1    
    46   22  145 1    
    47   23  146 1    
    48   23  147 1    
    49   23  148 1    
    50   24   25 am   BACKBONE|DICT|INTERRES
    51   24  149 1    
    52   25   26 2    
    53   25   27 1    
    54   27   28 1    
    55   27   29 1    
    56   27  150 1    
    57   28  151 1    
    58   28  152 1    
    59   28  153 1    
    60   29   30 am   BACKBONE|DICT|INTERRES
    61   29  154 1    
    62   30   31 2    
    63   30   32 1    
    64   32   33 1    
    65   32   34 1    
    66   32  155 1    
    67   33  156 1    
    68   33  157 1    
    69   33  158 1    
    70   34   35 am   BACKBONE|DICT|INTERRES
    71   34  159 1    
    72   35   36 2    
    73   35   37 1    
    74   37   38 1    
    75   37   39 1    
    76   37  160 1    
    77   38  161 1    
    78   38  162 1    
    79   38  163 1    
    80   39   40 am   BACKBONE|DICT|INTERRES
    81   39  164 1    
    82   40   41 2    
    83   40   42 1    
    84   42   43 1    
    85   42   44 1    
    86   42  165 1    
    87   43  166 1    
    88   43  167 1    
    89   43  168 1    
    90   44   45 am   BACKBONE|DICT|INTERRES
    91   44  169 1    
    92   45   46 2    
    93   45   47 1    
    94   47   48 1    
    95   47   49 1    
    96   47  170 1    
    97   48  171 1    
    98   48  172 1    
    99   48  173 1    
   100   49   50 am   BACKBONE|DICT|INTERRES
   101   49  174 1    
   102   50   51 2    
   103   50   52 1    
   104   52   53 1    
   105   52   54 1    
   106   52  175 1    
   107   53  176 1    
   108   53  177 1    
   109   53  178 1    
   110   54   55 am   BACKBONE|DICT|INTERRES
   111   54  179 1    
   112   55   56 2    
   113   55   57 1    
   114   57   58 1    
   115   57   59 1    
   116   57  180 1    
   117   58  181 1    
   118   58  182 1    
   119   58  183 1    
   120   59   60 am   BACKBONE|DICT|INTERRES
   121   59  184 1    
   122   60   61 2    
   123   60   62 1    
   124   62   63 1    
   125   62   64 1    
   126   62  185 1    
   127   63  186 1    
   128   63  187 1    
   129   63  188 1    
   130   64   65 am   BACKBONE|DICT|INTERRES
   131   64  189 1    
   132   65   66 2    
   133   67   68 2    
   134   67   69 am   BACKBONE|DICT|INTERRES
   135   69   70 1    
   136   69  190 1    
   137   70   71 1    
   138   70   72 1    
   139   70  191 1    
   140   71  192 1    
   141   71  193 1    
   142   71  194 1    
   143   72   73 2    
   144   72   74 am   BACKBONE|DICT|INTERRES
   145   74   75 1    
   146   74  195 1    
   147   75   76 1    
   148   75   77 1    
   149   75  196 1    
   150   76  197 1    
   151   76  198 1    
   152   76  199 1    
   153   77   78 2    
   154   77   79 am   BACKBONE|DICT|INTERRES
   155   79   80 1    
   156   79  200 1    
   157   80   81 1    
   158   80   82 1    
   159   80  201 1    
   160   81  202 1    
   161   81  203 1    
   162   81  204 1    
   163   82   83 2    
   164   82   84 am   BACKBONE|DICT|INTERRES
   165   84   85 1    
   166   84  205 1    
   167   85   86 1    
   168   85   87 1    
   169   85  206 1    
   170   86  207 1    
   171   86  208 1    
   172   86  209 1    
   173   87   88 2    
   174   87   89 am   BACKBONE|DICT|INTERRES
   175   89   90 1    
   176   89  210 1    
   177   90   91 1    
   178   90   92 1    
   179   90  211 1    
   180   91  212 1    
   181   91  213 1    
   182   91  214 1    
   183   92   93 2    
   184   92   94 am   BACKBONE|DICT|INTERRES
   185   94   95 1    
   186   94  215 1    
   187   95   96 1    
   188   95   97 1    
   189   95  216 1    
   190   96  217 1    
   191   96  218 1    
   192   96  219 1    
   193   97   98 2    
   194   97   99 am   BACKBONE|DICT|INTERRES
   195   99  100 1    
   196   99  220 1    
   197  100  101 1    
   198  100  102 1    
   199  100  221 1    
   200  101  222 1    
   201  101  223 1    
   202  101  224 1    
   203  102  103 2    
   204  102  104 am   BACKBONE|DICT|INTERRES
   205  104  105 1    
   206  104  225 1    
   207  105  106 1    
   208  105  107 1    
   209  105  226 1    
   210  106  227 1    
   211  106  228 1    
   212  106  229 1    
   213  107  108 2    
   214  107  109 am   BACKBONE|DICT|INTERRES
   215  109  110 1    
   216  109  230 1    
   217  110  111 1    
   218  110  112 1    
   219  110  231 1    
   220  111  232 1    
   221  111  233 1    
   222  111  234 1    
   223  112  113 2    
   224  112  114 am   BACKBONE|DICT|INTERRES
   225  114  115 1    
   226  114  235 1    
   227  115  116 1    
   228  115  117 1    
   229  115  236 1    
   230  116  237 1    
   231  116  238 1    
   232  116  239 1    
   233  117  118 2    
   234  117  119 am   BACKBONE|DICT|INTERRES
   235  119  120 1    
   236  119  240 1    
   237  120  121 1    
   238  120  124 1    
   239  120  241 1    
   240  121  122 am   BACKBONE|DICT|INTERRES
   241  121  123 2    
   242  122  242 1    
   243  122  243 1    
   244  124  125 1    
   245  124  244 1    
   246  124  245 1    
   247  125  126 1    
   248  126  246 1    
   249  126  247 1    
@<TRIPOS>SUBSTRUCTURE
     1 UNK         1 GROUP             0       ****    0 ROOT    
