@<TRIPOS>MOLECULE
3R540
247   249    1
SMALL
USER_CHARGES


@<TRIPOS>ATOM
      1 CA          0.1698   -9.5701  -48.3776 C.3       0 UNK        -0.1800 
      2 C           1.2067  -10.6721  -48.5422 C.2       0 UNK         0.5000 
      3 O           2.3224  -10.4014  -48.9865 O.2       0 UNK        -0.5000 
      4 N           0.8417  -11.9111  -48.1864 N.am      1 UNK        -0.5000 
      5 CA          1.7109  -13.0955  -48.2343 C.3       1 UNK         0.1400 
      6 C6          0.8837  -14.3921  -48.0537 C.3       23 UNK        -0.0398 
      7 S7          1.6994  -15.8577  -48.7669 S.3       23 UNK        -0.2404 
      8 C8          0.5501  -16.2680  -50.1234 C.3       23 UNK        -0.0205 
      9 C9          0.9483  -17.5027  -50.9276 C.ar      23 UNK        -0.0193 
     10 C10         0.6708  -17.5495  -52.2970 C.ar      23 UNK        -0.1150 
     11 C11         0.9751  -18.6865  -53.0511 C.ar      23 UNK        -0.0193 
     12 C12         1.5658  -19.7868  -52.4209 C.ar      23 UNK        -0.1150 
     13 C13         1.8314  -19.7708  -51.0479 C.ar      23 UNK        -0.0193 
     14 C14         1.5303  -18.6175  -50.3138 C.ar      23 UNK        -0.1150 
     15 C15         2.4555  -21.0052  -50.3940 C.3       23 UNK        -0.0205 
     16 S16         2.0385  -21.2401  -48.6288 S.3       23 UNK        -0.2404 
     17 C17         0.2278  -21.4499  -48.6954 C.3       23 UNK        -0.0398 
     18 CA         -0.2457  -22.5866  -47.7623 C.3       11 UNK         0.1400 
     19 N          -0.2828  -22.1553  -46.3619 N.am      11 UNK        -0.5000 
     20 C          -0.4839  -22.9697  -45.3175 C.2       10 UNK         0.5000 
     21 O          -0.6385  -24.1861  -45.4189 O.2       10 UNK        -0.5000 
     22 CA         -0.5840  -22.3100  -43.9315 C.3       10 UNK         0.1400 
     23 CB          0.8034  -21.9004  -43.4154 C.3       10 UNK        -0.1800 
     24 N          -1.4732  -21.1491  -43.9289 N.am      10 UNK        -0.5000 
     25 C          -2.7822  -21.1863  -44.2154 C.2       9 UNK         0.5000 
     26 O          -3.3980  -22.2188  -44.4754 O.2       9 UNK        -0.5000 
     27 CA         -3.5158  -19.8355  -44.2752 C.3       9 UNK         0.1400 
     28 CB         -3.8900  -19.3439  -42.8687 C.3       9 UNK        -0.1800 
     29 N          -2.7324  -18.8119  -44.9670 N.am      9 UNK        -0.5000 
     30 C          -2.4100  -18.8604  -46.2671 C.2       8 UNK         0.5000 
     31 O          -2.7594  -19.7635  -47.0254 O.2       8 UNK        -0.5000 
     32 CA         -1.5115  -17.7300  -46.7950 C.3       8 UNK         0.1400 
     33 CB         -2.3444  -16.4773  -47.1026 C.3       8 UNK        -0.1800 
     34 N          -0.4406  -17.3979  -45.8557 N.am      8 UNK        -0.5000 
     35 C           0.5843  -18.2201  -45.5813 C.2       7 UNK         0.5000 
     36 O           0.7310  -19.3243  -46.1040 O.2       7 UNK        -0.5000 
     37 CA          1.5760  -17.7626  -44.4941 C.3       7 UNK         0.1400 
     38 CB          2.6459  -16.8386  -45.0944 C.3       7 UNK        -0.1800 
     39 N           0.9234  -17.0841  -43.3727 N.am      7 UNK        -0.5000 
     40 C          -0.0316  -17.6233  -42.6022 C.2       6 UNK         0.5000 
     41 O          -0.3986  -18.7936  -42.6983 O.2       6 UNK        -0.5000 
     42 CA         -0.7296  -16.7063  -41.5798 C.3       6 UNK         0.1400 
     43 CB         -0.2020  -16.9893  -40.1654 C.3       6 UNK        -0.1800 
     44 N          -0.6224  -15.2677  -41.8387 N.am      6 UNK        -0.5000 
     45 C          -0.9926  -14.6014  -42.9400 C.2       5 UNK         0.5000 
     46 O          -1.3964  -15.1555  -43.9638 O.2       5 UNK        -0.5000 
     47 CA         -0.8619  -13.0614  -42.9180 C.3       5 UNK         0.1400 
     48 CB         -2.2319  -12.4001  -42.6808 C.3       5 UNK        -0.1800 
     49 N           0.1542  -12.5157  -41.9999 N.am      5 UNK        -0.5000 
     50 C           0.2032  -12.5558  -40.6574 C.2       4 UNK         0.5000 
     51 O          -0.6552  -13.1014  -39.9646 O.2       4 UNK        -0.5000 
     52 CA          1.4398  -11.9495  -39.9615 C.3       4 UNK         0.1400 
     53 CB          2.2745  -13.0611  -39.3041 C.3       4 UNK        -0.1800 
     54 N           2.3065  -11.2024  -40.8728 N.am      4 UNK        -0.5000 
     55 C           2.1360   -9.9203  -41.2220 C.2       3 UNK         0.5000 
     56 O           1.2532   -9.1953  -40.7628 O.2       3 UNK        -0.5000 
     57 CA          3.1019   -9.3678  -42.2914 C.3       3 UNK         0.1400 
     58 CB          4.3075   -8.6857  -41.6271 C.3       3 UNK        -0.1800 
     59 N           3.5832  -10.3892  -43.2313 N.am      3 UNK        -0.5000 
     60 C           2.7955  -11.0744  -44.0694 C.2       2 UNK         0.5000 
     61 O           1.5719  -10.9226  -44.1337 O.2       2 UNK        -0.5000 
     62 CA          3.4660  -12.1448  -44.9385 C.3       2 UNK         0.1400 
     63 CB          3.7301  -13.4246  -44.1239 C.3       2 UNK        -0.1800 
     64 N           2.5583  -12.4308  -46.0397 N.am      2 UNK        -0.5000 
     65 C           2.8611  -13.0122  -47.2040 C.2       1 UNK         0.5000 
     66 O           3.9809  -13.4402  -47.4865 O.2       1 UNK        -0.5000 
     67 C          -1.5905  -23.1787  -48.2322 C.2       11 UNK         0.5000 
     68 O          -1.5832  -24.1901  -48.9354 O.2       11 UNK        -0.5000 
     69 N          -2.7158  -22.5805  -47.8206 N.am      12 UNK        -0.5000 
     70 CA         -4.0566  -23.0924  -48.1091 C.3       12 UNK         0.1400 
     71 CB         -5.1032  -22.0165  -47.7852 C.3       12 UNK        -0.1800 
     72 C          -4.3656  -24.4153  -47.3870 C.2       12 UNK         0.5000 
     73 O          -5.0005  -25.2888  -47.9775 O.2       12 UNK        -0.5000 
     74 N          -3.9024  -24.5516  -46.1389 N.am      13 UNK        -0.5000 
     75 CA         -4.0798  -25.7510  -45.3254 C.3       13 UNK         0.1400 
     76 CB         -3.8130  -25.4146  -43.8494 C.3       13 UNK        -0.1800 
     77 C          -3.1955  -26.9230  -45.7861 C.2       13 UNK         0.5000 
     78 O          -3.7067  -28.0272  -45.9779 O.2       13 UNK        -0.5000 
     79 N          -1.8856  -26.6767  -45.9183 N.am      14 UNK        -0.5000 
     80 CA         -0.8842  -27.7207  -46.1308 C.3       14 UNK         0.1400 
     81 CB          0.4552  -27.2744  -45.5224 C.3       14 UNK        -0.1800 
     82 C          -0.7017  -28.0935  -47.6092 C.2       14 UNK         0.5000 
     83 O          -0.6576  -29.2823  -47.9291 O.2       14 UNK        -0.5000 
     84 N          -0.5613  -27.0828  -48.4762 N.am      15 UNK        -0.5000 
     85 CA         -0.1782  -27.2628  -49.8796 C.3       15 UNK         0.1400 
     86 CB          0.8790  -26.2038  -50.2393 C.3       15 UNK        -0.1800 
     87 C          -1.3689  -27.1822  -50.8498 C.2       15 UNK         0.5000 
     88 O          -1.2060  -27.5383  -52.0175 O.2       15 UNK        -0.5000 
     89 N          -2.5219  -26.6906  -50.3696 N.am      16 UNK        -0.5000 
     90 CA         -3.7054  -26.3058  -51.1509 C.3       16 UNK         0.1400 
     91 CB         -4.3765  -27.5338  -51.8004 C.3       16 UNK        -0.1800 
     92 C          -3.3928  -25.1732  -52.1544 C.2       16 UNK         0.5000 
     93 O          -3.9274  -25.1540  -53.2642 O.2       16 UNK        -0.5000 
     94 N          -2.5173  -24.2556  -51.7305 N.am      17 UNK        -0.5000 
     95 CA         -2.0698  -23.0833  -52.4724 C.3       17 UNK         0.1400 
     96 CB         -0.5304  -23.0690  -52.4410 C.3       17 UNK        -0.1800 
     97 C          -2.7080  -21.8125  -51.8770 C.2       17 UNK         0.5000 
     98 O          -3.6997  -21.9049  -51.1515 O.2       17 UNK        -0.5000 
     99 N          -2.1513  -20.6383  -52.2022 N.am      18 UNK        -0.5000 
    100 CA        -2.5722  -19.3134  -51.7361 C.3       18 UNK         0.1400 
    101 CB        -2.1844  -19.1297  -50.2561 C.3       18 UNK        -0.1800 
    102 C         -4.0635  -19.0521  -52.0197 C.2       18 UNK         0.5000 
    103 O         -4.4690  -19.1101  -53.1807 O.2       18 UNK        -0.5000 
    104 N         -4.8620  -18.8214  -50.9699 N.am      19 UNK        -0.5000 
    105 CA        -6.3052  -18.5809  -51.0285 C.3       19 UNK         0.1400 
    106 CB        -6.8134  -18.3105  -49.6036 C.3       19 UNK        -0.1800 
    107 C         -7.1210  -19.7147  -51.6847 C.2       19 UNK         0.5000 
    108 O         -8.2258  -19.4558  -52.1638 O.2       19 UNK        -0.5000 
    109 N         -6.5710  -20.9366  -51.7089 N.am      20 UNK        -0.5000 
    110 CA        -7.1787  -22.0970  -52.3538 C.3       20 UNK         0.1400 
    111 CB        -6.7482  -23.3647  -51.5986 C.3       20 UNK        -0.1800 
    112 C         -6.8483  -22.2071  -53.8579 C.2       20 UNK         0.5000 
    113 O         -7.4819  -23.0227  -54.5304 O.2       20 UNK        -0.5000 
    114 N         -5.8913  -21.4190  -54.3768 N.am      21 UNK        -0.5000 
    115 CA        -5.4599  -21.4843  -55.7742 C.3       21 UNK         0.1400 
    116 CB        -4.5680  -22.7240  -56.0083 C.3       21 UNK        -0.1800 
    117 C         -4.7929  -20.1743  -56.2316 C.2       21 UNK         0.5000 
    118 O         -5.4768  -19.3016  -56.7672 O.2       21 UNK        -0.5000 
    119 N         -3.4660  -20.0928  -56.0707 N.am      22 UNK        -0.5000 
    120 CA        -2.5708  -19.0704  -56.6439 C.3       22 UNK         0.1400 
    121 C         -2.7190  -17.6091  -56.1250 C.2       22 UNK         0.5000 
    122 N         -3.4625  -17.3396  -55.0633 N.am      22 UNK        -0.7600 
    123 O         -2.1526  -16.6926  -56.7147 O.2       22 UNK        -0.5000 
    124 C124       -1.0918  -19.5452  -56.6174 C.3       23 UNK        -0.0398 
    125 S125       -0.5184  -20.0424  -54.9551 S.3       23 UNK        -0.2404 
    126 C126        0.6640  -18.7210  -54.5430 C.3       23 UNK        -0.0205 
    127 H127       -0.7732   -9.9544  -47.9879 H         1 UNK         0.0600 
    128 H128        0.5374   -8.8101  -47.6880 H         1 UNK         0.0600 
    129 H129       -0.0281   -9.0940  -49.3380 H         1 UNK         0.0600 
    130 H130       -0.0944  -12.0625  -47.8386 H         1 UNK         0.3000 
    131 H131        2.1634  -13.1123  -49.2285 H         1 UNK         0.0600 
    132 H132       -0.0853  -14.2761  -48.5404 H         1 UNK         0.0800 
    133 H133        0.6601  -14.5837  -47.0026 H         1 UNK         0.0800 
    134 H134        0.4748  -15.4016  -50.7825 H         1 UNK         0.0800 
    135 H135       -0.4445  -16.4369  -49.7101 H         1 UNK         0.0800 
    136 H136        0.2057  -16.6995  -52.7765 H         1 UNK         0.1150 
    137 H137        1.8072  -20.6645  -53.0039 H         1 UNK         0.1150 
    138 H138        1.7306  -18.5913  -49.2528 H         1 UNK         0.1150 
    139 H139        2.1655  -21.9052  -50.9383 H         1 UNK         0.0800 
    140 H140        3.5395  -20.9271  -50.4838 H         1 UNK         0.0800 
    141 H141       -0.0639  -21.6294  -49.7291 H         1 UNK         0.0800 
    142 H142       -0.2419  -20.5074  -48.4130 H         1 UNK         0.0800 
    143 H143        0.4757  -23.4043  -47.8279 H         1 UNK         0.0600 
    144 H144       -0.1214  -21.1672  -46.1927 H         1 UNK         0.3000 
    145 H145       -0.9994  -23.0475  -43.2417 H         1 UNK         0.0600 
    146 H146        0.7438  -21.4991  -42.4036 H         1 UNK         0.0600 
    147 H147        1.4783  -22.7567  -43.3879 H         1 UNK         0.0600 
    148 H148        1.2616  -21.1402  -44.0486 H         1 UNK         0.0600 
    149 H149       -1.0560  -20.2568  -43.6754 H         1 UNK         0.3000 
    150 H150       -4.4399  -19.9847  -44.8378 H         1 UNK         0.0600 
    151 H151       -4.5216  -20.0730  -42.3596 H         1 UNK         0.0600 
    152 H152       -4.4460  -18.4073  -42.9125 H         1 UNK         0.0600 
    153 H153       -3.0105  -19.1839  -42.2453 H         1 UNK         0.0600 
    154 H154       -2.3722  -18.0531  -44.4081 H         1 UNK         0.3000 
    155 H155       -1.0516  -18.0718  -47.7244 H         1 UNK         0.0600 
    156 H156       -1.7306  -15.6912  -47.5383 H         1 UNK         0.0600 
    157 H157       -3.1384  -16.7019  -47.8160 H         1 UNK         0.0600 
    158 H158       -2.8145  -16.0741  -46.2049 H         1 UNK         0.0600 
    159 H159       -0.5432  -16.5391  -45.3269 H         1 UNK         0.3000 
    160 H160        2.0712  -18.6533  -44.1025 H         1 UNK         0.0600 
    161 H161        3.4152  -16.5986  -44.3606 H         1 UNK         0.0600 
    162 H162        2.2170  -15.9019  -45.4520 H         1 UNK         0.0600 
    163 H163        3.1426  -17.3140  -45.9415 H         1 UNK         0.0600 
    164 H164        1.1601  -16.1154  -43.2232 H         1 UNK         0.3000 
    165 H165       -1.7917  -16.9568  -41.6043 H         1 UNK         0.0600 
    166 H166       -0.7621  -16.4296  -39.4159 H         1 UNK         0.0600 
    167 H167       -0.2948  -18.0471  -39.9151 H         1 UNK         0.0600 
    168 H168        0.8502  -16.7187  -40.0688 H         1 UNK         0.0600 
    169 H169       -0.3784  -14.6933  -41.0391 H         1 UNK         0.3000 
    170 H170       -0.5328  -12.7758  -43.9182 H         1 UNK         0.0600 
    171 H171       -2.9534  -12.7192  -43.4340 H         1 UNK         0.0600 
    172 H172       -2.6460  -12.6570  -41.7055 H         1 UNK         0.0600 
    173 H173       -2.1596  -11.3141  -42.7402 H         1 UNK         0.0600 
    174 H174        0.8961  -12.0117  -42.4703 H         1 UNK         0.3000 
    175 H175        1.0799  -11.2820  -39.1757 H         1 UNK         0.0600 
    176 H176        2.6507  -13.7725  -40.0405 H         1 UNK         0.0600 
    177 H177        3.1297  -12.6476  -38.7690 H         1 UNK         0.0600 
    178 H178        1.6824  -13.6218  -38.5795 H         1 UNK         0.0600 
    179 H179        3.0709  -11.7125  -41.2900 H         1 UNK         0.3000 
    180 H180        2.5571   -8.6153  -42.8655 H         1 UNK         0.0600 
    181 H181        4.9084   -9.3954  -41.0571 H         1 UNK         0.0600 
    182 H182        3.9837   -7.9031  -40.9395 H         1 UNK         0.0600 
    183 H183        4.9540   -8.2166  -42.3690 H         1 UNK         0.0600 
    184 H184        4.5769  -10.5714  -43.2279 H         1 UNK         0.3000 
    185 H185        4.4031  -11.7461  -45.3322 H         1 UNK         0.0600 
    186 H186        4.3878  -13.2251  -43.2773 H         1 UNK         0.0600 
    187 H187        2.8056  -13.8497  -43.7310 H         1 UNK         0.0600 
    188 H188        4.2161  -14.1862  -44.7335 H         1 UNK         0.0600 
    189 H189        1.6328  -12.0421  -45.9039 H         1 UNK         0.3000 
    190 H190       -2.6607  -21.7143  -47.2932 H         1 UNK         0.3000 
    191 H191       -4.1186  -23.3093  -49.1747 H         1 UNK         0.0600 
    192 H192       -5.0731  -21.7293  -46.7338 H         1 UNK         0.0600 
    193 H193       -6.1107  -22.3714  -48.0048 H         1 UNK         0.0600 
    194 H194       -4.9370  -21.1202  -48.3834 H         1 UNK         0.0600 
    195 H195       -3.4412  -23.7626  -45.6957 H         1 UNK         0.3000 
    196 H196       -5.1214  -26.0687  -45.4088 H         1 UNK         0.0600 
    197 H197       -3.9323  -26.2962  -43.2184 H         1 UNK         0.0600 
    198 H198       -4.5101  -24.6589  -43.4872 H         1 UNK         0.0600 
    199 H199       -2.8022  -25.0343  -43.6972 H         1 UNK         0.0600 
    200 H200       -1.5333  -25.7365  -45.7452 H         1 UNK         0.3000 
    201 H201       -1.1965  -28.6220  -45.5983 H         1 UNK         0.0600 
    202 H202        0.3501  -27.0492  -44.4610 H         1 UNK         0.0600 
    203 H203        0.8486  -26.3843  -46.0148 H         1 UNK         0.0600 
    204 H204        1.2069  -28.0591  -45.6160 H         1 UNK         0.0600 
    205 H205       -0.6582  -26.1293  -48.1521 H         1 UNK         0.3000 
    206 H206        0.2819  -28.2430  -50.0214 H         1 UNK         0.0600 
    207 H207        1.7500  -26.2802  -49.5883 H         1 UNK         0.0600 
    208 H208        1.2292  -26.3330  -51.2641 H         1 UNK         0.0600 
    209 H209        0.4880  -25.1903  -50.1563 H         1 UNK         0.0600 
    210 H210       -2.5284  -26.4032  -49.4006 H         1 UNK         0.3000 
    211 H211       -4.4187  -25.8848  -50.4433 H         1 UNK         0.0600 
    212 H212       -3.7593  -27.9691  -52.5864 H         1 UNK         0.0600 
    213 H213       -5.3313  -27.2605  -52.2512 H         1 UNK         0.0600 
    214 H214       -4.5775  -28.3093  -51.0614 H         1 UNK         0.0600 
    215 H215       -2.1806  -24.3231  -50.7744 H         1 UNK         0.3000 
    216 H216       -2.3870  -23.1460  -53.5131 H         1 UNK         0.0600 
    217 H217       -0.1147  -22.2184  -52.9780 H         1 UNK         0.0600 
    218 H218       -0.1295  -23.9653  -52.9150 H         1 UNK         0.0600 
    219 H219       -0.1462  -23.0456  -51.4234 H         1 UNK         0.0600 
    220 H220       -1.3767  -20.6323  -52.8529 H         1 UNK         0.3000 
    221 H221       -2.0192  -18.5812  -52.3250 H         1 UNK         0.0600 
    222 H222       -2.6799  -19.8565  -49.6126 H         1 UNK         0.0600 
    223 H223       -1.1141  -19.2584  -50.1267 H         1 UNK         0.0600 
    224 H224       -2.4306  -18.1297  -49.8982 H         1 UNK         0.0600 
    225 H225       -4.4500  -18.8413  -50.0487 H         1 UNK         0.3000 
    226 H226       -6.4631  -17.6818  -51.6273 H         1 UNK         0.0600 
    227 H227       -6.3088  -17.4523  -49.1595 H         1 UNK         0.0600 
    228 H228       -7.8823  -18.0926  -49.6037 H         1 UNK         0.0600 
    229 H229       -6.6537  -19.1698  -48.9509 H         1 UNK         0.0600 
    230 H230       -5.6410  -21.0713  -51.3258 H         1 UNK         0.3000 
    231 H231       -8.2651  -22.0234  -52.2711 H         1 UNK         0.0600 
    232 H232       -5.6718  -23.5129  -51.6500 H         1 UNK         0.0600 
    233 H233       -7.0281  -23.3139  -50.5462 H         1 UNK         0.0600 
    234 H234       -7.2202  -24.2533  -52.0192 H         1 UNK         0.0600 
    235 H235       -5.4481  -20.7075  -53.8021 H         1 UNK         0.3000 
    236 H236       -6.3468  -21.5964  -56.4019 H         1 UNK         0.0600 
    237 H237       -4.1830  -22.7452  -57.0286 H         1 UNK         0.0600 
    238 H238       -3.7161  -22.7476  -55.3310 H         1 UNK         0.0600 
    239 H239       -5.1267  -23.6482  -55.8601 H         1 UNK         0.0600 
    240 H240       -2.9972  -20.8409  -55.5839 H         1 UNK         0.3000 
    241 H241       -2.8482  -19.0032  -57.6976 H         1 UNK         0.0600 
    242 H242       -3.5595  -16.3853  -54.7587 H         1 UNK         0.3800 
    243 H243       -3.9231  -18.0851  -54.5452 H         1 UNK         0.3800 
    244 H244       -0.4242  -18.7909  -57.0376 H         1 UNK         0.0800 
    245 H245       -0.9854  -20.4139  -57.2682 H         1 UNK         0.0800 
    246 H246        1.5873  -18.8736  -55.1033 H         1 UNK         0.0800 
    247 H247        0.2562  -17.7623  -54.8676 H         1 UNK         0.0800 
@<TRIPOS>BOND
     1    1    2 1    
     2    1  127 1    
     3    1  128 1    
     4    1  129 1    
     5    2    3 2    
     6    2    4 am   BACKBONE|DICT|INTERRES
     7    4    5 1    
     8    4  130 1    
     9    5    6 1    
    10    5   65 1    
    11    5  131 1    
    12    6    7 1    
    13    6  132 1    
    14    6  133 1    
    15    7    8 1    
    16    8    9 1    
    17    8  134 1    
    18    8  135 1    
    19    9   10 ar   
    20    9   14 ar   
    21   10   11 ar   
    22   10  136 1    
    23   11   12 ar   
    24   11  126 1    
    25   12   13 ar   
    26   12  137 1    
    27   13   14 ar   
    28   13   15 1    
    29   14  138 1    
    30   15   16 1    
    31   15  139 1    
    32   15  140 1    
    33   16   17 1    
    34   17   18 1    
    35   17  141 1    
    36   17  142 1    
    37   18   19 1    
    38   18   67 1    
    39   18  143 1    
    40   19   20 am   BACKBONE|DICT|INTERRES
    41   19  144 1    
    42   20   21 2    
    43   20   22 1    
    44   22   23 1    
    45   22   24 1    
    46   22  145 1    
    47   23  146 1    
    48   23  147 1    
    49   23  148 1    
    50   24   25 am   BACKBONE|DICT|INTERRES
    51   24  149 1    
    52   25   26 2    
    53   25   27 1    
    54   27   28 1    
    55   27   29 1    
    56   27  150 1    
    57   28  151 1    
    58   28  152 1    
    59   28  153 1    
    60   29   30 am   BACKBONE|DICT|INTERRES
    61   29  154 1    
    62   30   31 2    
    63   30   32 1    
    64   32   33 1    
    65   32   34 1    
    66   32  155 1    
    67   33  156 1    
    68   33  157 1    
    69   33  158 1    
    70   34   35 am   BACKBONE|DICT|INTERRES
    71   34  159 1    
    72   35   36 2    
    73   35   37 1    
    74   37   38 1    
    75   37   39 1    
    76   37  160 1    
    77   38  161 1    
    78   38  162 1    
    79   38  163 1    
    80   39   40 am   BACKBONE|DICT|INTERRES
    81   39  164 1    
    82   40   41 2    
    83   40   42 1    
    84   42   43 1    
    85   42   44 1    
    86   42  165 1    
    87   43  166 1    
    88   43  167 1    
    89   43  168 1    
    90   44   45 am   BACKBONE|DICT|INTERRES
    91   44  169 1    
    92   45   46 2    
    93   45   47 1    
    94   47   48 1    
    95   47   49 1    
    96   47  170 1    
    97   48  171 1    
    98   48  172 1    
    99   48  173 1    
   100   49   50 am   BACKBONE|DICT|INTERRES
   101   49  174 1    
   102   50   51 2    
   103   50   52 1    
   104   52   53 1    
   105   52   54 1    
   106   52  175 1    
   107   53  176 1    
   108   53  177 1    
   109   53  178 1    
   110   54   55 am   BACKBONE|DICT|INTERRES
   111   54  179 1    
   112   55   56 2    
   113   55   57 1    
   114   57   58 1    
   115   57   59 1    
   116   57  180 1    
   117   58  181 1    
   118   58  182 1    
   119   58  183 1    
   120   59   60 am   BACKBONE|DICT|INTERRES
   121   59  184 1    
   122   60   61 2    
   123   60   62 1    
   124   62   63 1    
   125   62   64 1    
   126   62  185 1    
   127   63  186 1    
   128   63  187 1    
   129   63  188 1    
   130   64   65 am   BACKBONE|DICT|INTERRES
   131   64  189 1    
   132   65   66 2    
   133   67   68 2    
   134   67   69 am   BACKBONE|DICT|INTERRES
   135   69   70 1    
   136   69  190 1    
   137   70   71 1    
   138   70   72 1    
   139   70  191 1    
   140   71  192 1    
   141   71  193 1    
   142   71  194 1    
   143   72   73 2    
   144   72   74 am   BACKBONE|DICT|INTERRES
   145   74   75 1    
   146   74  195 1    
   147   75   76 1    
   148   75   77 1    
   149   75  196 1    
   150   76  197 1    
   151   76  198 1    
   152   76  199 1    
   153   77   78 2    
   154   77   79 am   BACKBONE|DICT|INTERRES
   155   79   80 1    
   156   79  200 1    
   157   80   81 1    
   158   80   82 1    
   159   80  201 1    
   160   81  202 1    
   161   81  203 1    
   162   81  204 1    
   163   82   83 2    
   164   82   84 am   BACKBONE|DICT|INTERRES
   165   84   85 1    
   166   84  205 1    
   167   85   86 1    
   168   85   87 1    
   169   85  206 1    
   170   86  207 1    
   171   86  208 1    
   172   86  209 1    
   173   87   88 2    
   174   87   89 am   BACKBONE|DICT|INTERRES
   175   89   90 1    
   176   89  210 1    
   177   90   91 1    
   178   90   92 1    
   179   90  211 1    
   180   91  212 1    
   181   91  213 1    
   182   91  214 1    
   183   92   93 2    
   184   92   94 am   BACKBONE|DICT|INTERRES
   185   94   95 1    
   186   94  215 1    
   187   95   96 1    
   188   95   97 1    
   189   95  216 1    
   190   96  217 1    
   191   96  218 1    
   192   96  219 1    
   193   97   98 2    
   194   97   99 am   BACKBONE|DICT|INTERRES
   195   99  100 1    
   196   99  220 1    
   197  100  101 1    
   198  100  102 1    
   199  100  221 1    
   200  101  222 1    
   201  101  223 1    
   202  101  224 1    
   203  102  103 2    
   204  102  104 am   BACKBONE|DICT|INTERRES
   205  104  105 1    
   206  104  225 1    
   207  105  106 1    
   208  105  107 1    
   209  105  226 1    
   210  106  227 1    
   211  106  228 1    
   212  106  229 1    
   213  107  108 2    
   214  107  109 am   BACKBONE|DICT|INTERRES
   215  109  110 1    
   216  109  230 1    
   217  110  111 1    
   218  110  112 1    
   219  110  231 1    
   220  111  232 1    
   221  111  233 1    
   222  111  234 1    
   223  112  113 2    
   224  112  114 am   BACKBONE|DICT|INTERRES
   225  114  115 1    
   226  114  235 1    
   227  115  116 1    
   228  115  117 1    
   229  115  236 1    
   230  116  237 1    
   231  116  238 1    
   232  116  239 1    
   233  117  118 2    
   234  117  119 am   BACKBONE|DICT|INTERRES
   235  119  120 1    
   236  119  240 1    
   237  120  121 1    
   238  120  124 1    
   239  120  241 1    
   240  121  122 am   BACKBONE|DICT|INTERRES
   241  121  123 2    
   242  122  242 1    
   243  122  243 1    
   244  124  125 1    
   245  124  244 1    
   246  124  245 1    
   247  125  126 1    
   248  126  246 1    
   249  126  247 1    
@<TRIPOS>SUBSTRUCTURE
     1 UNK         1 GROUP             0       ****    0 ROOT    
