@<TRIPOS>MOLECULE
3R540
247   249    1
SMALL
USER_CHARGES


@<TRIPOS>ATOM
      1 CA         -1.2267  -12.4311  -46.1566 C.3       0 UNK        -0.1800 
      2 C           0.0370  -12.1188  -46.9414 C.2       0 UNK         0.5000 
      3 O           0.0001  -11.2994  -47.8608 O.2       0 UNK        -0.5000 
      4 N           1.1600  -12.7546  -46.5837 N.am      1 UNK        -0.5000 
      5 CA          2.4763  -12.5434  -47.1965 C.3       1 UNK         0.1400 
      6 C6          3.3979  -13.7857  -47.0765 C.3       23 UNK        -0.0398 
      7 S7          2.5947  -15.3325  -47.6027 S.3       23 UNK        -0.2404 
      8 C8          3.0057  -15.4034  -49.3659 C.3       23 UNK        -0.0205 
      9 C9          2.3094  -16.5917  -50.0054 C.ar      23 UNK        -0.0193 
     10 C10         1.0852  -16.4263  -50.6595 C.ar      23 UNK        -0.1150 
     11 C11         0.4318  -17.5231  -51.2293 C.ar      23 UNK        -0.0193 
     12 C12         1.0093  -18.7927  -51.1338 C.ar      23 UNK        -0.1150 
     13 C13         2.2233  -18.9725  -50.4641 C.ar      23 UNK        -0.0193 
     14 C14         2.8740  -17.8664  -49.9119 C.ar      23 UNK        -0.1150 
     15 C15         2.8263  -20.3614  -50.3181 C.3       23 UNK        -0.0205 
     16 S16         2.4718  -21.0764  -48.6798 S.3       23 UNK        -0.2404 
     17 C17         0.6630  -21.2803  -48.7717 C.3       23 UNK        -0.0398 
     18 CA          0.1500  -22.4222  -47.8652 C.3       11 UNK         0.1400 
     19 N           0.2422  -22.1005  -46.4368 N.am      11 UNK        -0.5000 
     20 C          -0.0076  -22.9725  -45.4487 C.2       10 UNK         0.5000 
     21 O          -0.2859  -24.1566  -45.6364 O.2       10 UNK        -0.5000 
     22 CA         -0.0035  -22.4236  -44.0114 C.3       10 UNK         0.1400 
     23 CB          1.4304  -22.2704  -43.4829 C.3       10 UNK        -0.1800 
     24 N          -0.7216  -21.1540  -43.8937 N.am      10 UNK        -0.5000 
     25 C          -2.0331  -21.0009  -44.1286 C.2       9 UNK         0.5000 
     26 O          -2.7858  -21.9289  -44.4219 O.2       9 UNK        -0.5000 
     27 CA         -2.5942  -19.5681  -44.0742 C.3       9 UNK         0.1400 
     28 CB         -2.8734  -19.1429  -42.6256 C.3       9 UNK        -0.1800 
     29 N          -1.7155  -18.5908  -44.7163 N.am      9 UNK        -0.5000 
     30 C          -1.3787  -18.6064  -46.0150 C.2       8 UNK         0.5000 
     31 O          -1.8073  -19.4255  -46.8272 O.2       8 UNK        -0.5000 
     32 CA         -0.3481  -17.5602  -46.4695 C.3       8 UNK         0.1400 
     33 CB         -1.0255  -16.2039  -46.7077 C.3       8 UNK        -0.1800 
     34 N           0.7388  -17.4139  -45.5010 N.am      8 UNK        -0.5000 
     35 C           1.6224  -18.3814  -45.2173 C.2       7 UNK         0.5000 
     36 O           1.6240  -19.4880  -45.7564 O.2       7 UNK        -0.5000 
     37 CA          2.6252  -18.0861  -44.0889 C.3       7 UNK         0.1400 
     38 CB          3.7850  -17.2096  -44.5835 C.3       7 UNK        -0.1800 
     39 N           1.9815  -17.4509  -42.9384 N.am      7 UNK        -0.5000 
     40 C           1.1041  -18.0698  -42.1349 C.2       6 UNK         0.5000 
     41 O           0.7733  -19.2469  -42.2670 O.2       6 UNK        -0.5000 
     42 CA          0.4643  -17.2323  -41.0124 C.3       6 UNK         0.1400 
     43 CB          1.3123  -17.3119  -39.7346 C.3       6 UNK        -0.1800 
     44 N           0.2688  -15.8279  -41.3719 N.am      6 UNK        -0.5000 
     45 C          -0.5306  -15.3849  -42.3530 C.2       5 UNK         0.5000 
     46 O          -1.2027  -16.1221  -43.0752 O.2       5 UNK        -0.5000 
     47 CA         -0.5377  -13.8623  -42.5915 C.3       5 UNK         0.1400 
     48 CB         -1.6199  -13.1814  -41.7423 C.3       5 UNK        -0.1800 
     49 N           0.7604  -13.2381  -42.3189 N.am      5 UNK        -0.5000 
     50 C           1.8765  -13.4846  -43.0150 C.2       4 UNK         0.5000 
     51 O           1.8974  -14.1840  -44.0298 O.2       4 UNK        -0.5000 
     52 CA          3.1678  -12.8519  -42.4673 C.3       4 UNK         0.1400 
     53 CB          4.4420  -13.5276  -43.0017 C.3       4 UNK        -0.1800 
     54 N           3.2176  -11.4199  -42.7547 N.am      4 UNK        -0.5000 
     55 C           2.6541  -10.4732  -41.9902 C.2       3 UNK         0.5000 
     56 O           1.9928  -10.7269  -40.9818 O.2       3 UNK        -0.5000 
     57 CA          2.8682   -9.0007  -42.3969 C.3       3 UNK         0.1400 
     58 CB          4.0187   -8.3852  -41.5857 C.3       3 UNK        -0.1800 
     59 N           3.1495   -8.8264  -43.8222 N.am      3 UNK        -0.5000 
     60 C           2.2298   -8.9254  -44.7892 C.2       2 UNK         0.5000 
     61 O           1.0334   -9.1254  -44.5719 O.2       2 UNK        -0.5000 
     62 CA          2.7153   -8.8244  -46.2499 C.3       2 UNK         0.1400 
     63 CB          4.1571   -8.2926  -46.4197 C.3       2 UNK        -0.1800 
     64 N           2.5371  -10.1169  -46.9142 N.am      2 UNK        -0.5000 
     65 C           3.1051  -11.2817  -46.5703 C.2       1 UNK         0.5000 
     66 O           4.0088  -11.3820  -45.7379 O.2       1 UNK        -0.5000 
     67 C          -1.2812  -22.8322  -48.2670 C.2       11 UNK         0.5000 
     68 O          -1.4475  -23.8471  -48.9432 O.2       11 UNK        -0.5000 
     69 N          -2.2871  -22.0667  -47.8201 N.am      12 UNK        -0.5000 
     70 CA         -3.7067  -22.3410  -48.0478 C.3       12 UNK         0.1400 
     71 CB         -4.5502  -21.1822  -47.4941 C.3       12 UNK        -0.1800 
     72 C          -4.1614  -23.6875  -47.4555 C.2       12 UNK         0.5000 
     73 O          -4.8673  -24.4381  -48.1306 O.2       12 UNK        -0.5000 
     74 N          -3.7159  -23.9847  -46.2270 N.am      13 UNK        -0.5000 
     75 CA         -3.9568  -25.2515  -45.5373 C.3       13 UNK         0.1400 
     76 CB         -3.4978  -25.1390  -44.0758 C.3       13 UNK        -0.1800 
     77 C          -3.2801  -26.4469  -46.2315 C.2       13 UNK         0.5000 
     78 O          -3.9030  -27.5018  -46.3526 O.2       13 UNK        -0.5000 
     79 N          -2.0371  -26.2567  -46.6981 N.am      14 UNK        -0.5000 
     80 CA         -1.2703  -27.2531  -47.4491 C.3       14 UNK         0.1400 
     81 CB          0.1869  -26.7875  -47.5895 C.3       14 UNK        -0.1800 
     82 C          -1.8813  -27.5601  -48.8287 C.2       14 UNK         0.5000 
     83 O          -1.9179  -28.7240  -49.2299 O.2       14 UNK        -0.5000 
     84 N          -2.3712  -26.5190  -49.5166 N.am      15 UNK        -0.5000 
     85 CA         -3.0853  -26.6271  -50.7900 C.3       15 UNK         0.1400 
     86 CB         -3.1920  -25.2345  -51.4293 C.3       15 UNK        -0.1800 
     87 C          -4.4848  -27.2535  -50.6483 C.2       15 UNK         0.5000 
     88 O          -4.9871  -27.8265  -51.6153 O.2       15 UNK        -0.5000 
     89 N          -5.1003  -27.1010  -49.4661 N.am      16 UNK        -0.5000 
     90 CA         -6.4237  -27.5672  -49.0260 C.3       16 UNK         0.1400 
     91 CB         -6.5461  -29.0988  -49.1277 C.3       16 UNK        -0.1800 
     92 C          -7.6087  -26.8610  -49.7153 C.2       16 UNK         0.5000 
     93 O          -8.6123  -26.5802  -49.0601 O.2       16 UNK        -0.5000 
     94 N          -7.4597  -26.5446  -51.0062 N.am      17 UNK        -0.5000 
     95 CA         -8.3901  -25.7651  -51.8240 C.3       17 UNK         0.1400 
     96 CB         -8.1150  -26.0868  -53.3023 C.3       17 UNK        -0.1800 
     97 C          -8.2969  -24.2440  -51.5747 C.2       17 UNK         0.5000 
     98 O          -9.0265  -23.4862  -52.2142 O.2       17 UNK        -0.5000 
     99 N          -7.3792  -23.8171  -50.6939 N.am      18 UNK        -0.5000 
    100 CA        -7.0597  -22.4490  -50.2647 C.3       18 UNK         0.1400 
    101 CB        -8.2854  -21.7331  -49.6683 C.3       18 UNK        -0.1800 
    102 C         -6.3626  -21.5808  -51.3293 C.2       18 UNK         0.5000 
    103 O         -5.4994  -20.7766  -50.9751 O.2       18 UNK        -0.5000 
    104 N         -6.7058  -21.7736  -52.6079 N.am      19 UNK        -0.5000 
    105 CA        -6.0952  -21.1416  -53.7774 C.3       19 UNK         0.1400 
    106 CB        -7.0619  -21.2749  -54.9671 C.3       19 UNK        -0.1800 
    107 C         -4.7027  -21.7358  -54.0760 C.2       19 UNK         0.5000 
    108 O         -4.5095  -22.4054  -55.0935 O.2       19 UNK        -0.5000 
    109 N         -3.7575  -21.5036  -53.1583 N.am      20 UNK        -0.5000 
    110 CA        -2.3647  -21.9442  -53.2093 C.3       20 UNK         0.1400 
    111 CB        -1.7796  -21.8484  -51.7904 C.3       20 UNK        -0.1800 
    112 C         -1.5567  -21.1221  -54.2316 C.2       20 UNK         0.5000 
    113 O         -0.7364  -20.2903  -53.8448 O.2       20 UNK        -0.5000 
    114 N         -1.8654  -21.3173  -55.5200 N.am      21 UNK        -0.5000 
    115 CA        -1.3779  -20.6069  -56.7118 C.3       21 UNK         0.1400 
    116 CB         0.1564  -20.6765  -56.8365 C.3       21 UNK        -0.1800 
    117 C         -1.8882  -19.1554  -56.8312 C.2       21 UNK         0.5000 
    118 O         -2.1729  -18.7098  -57.9438 O.2       21 UNK        -0.5000 
    119 N         -2.0157  -18.4553  -55.6991 N.am      22 UNK        -0.5000 
    120 CA        -2.6188  -17.1232  -55.5637 C.3       22 UNK         0.1400 
    121 C         -4.1182  -17.1062  -55.9755 C.2       22 UNK         0.5000 
    122 N         -4.5666  -16.0721  -56.6738 N.am      22 UNK        -0.7600 
    123 O         -4.8863  -18.0006  -55.6260 O.2       22 UNK        -0.5000 
    124 C124       -2.4653  -16.5699  -54.1236 C.3       23 UNK        -0.0398 
    125 S125       -0.7343  -16.5338  -53.5409 S.3       23 UNK        -0.2404 
    126 C126       -0.9110  -17.3405  -51.9190 C.3       23 UNK        -0.0205 
    127 H127       -2.1107  -12.2518  -46.7687 H         1 UNK         0.0600 
    128 H128       -1.2869  -11.7963  -45.2725 H         1 UNK         0.0600 
    129 H129       -1.2455  -13.4723  -45.8434 H         1 UNK         0.0600 
    130 H130        1.1618  -13.3921  -45.7946 H         1 UNK         0.3000 
    131 H131        2.3418  -12.3496  -48.2629 H         1 UNK         0.0600 
    132 H132        3.7037  -13.9407  -46.0432 H         1 UNK         0.0800 
    133 H133        4.3169  -13.6398  -47.6460 H         1 UNK         0.0800 
    134 H134        2.7014  -14.4754  -49.8525 H         1 UNK         0.0800 
    135 H135        4.0863  -15.4873  -49.4905 H         1 UNK         0.0800 
    136 H136        0.6361  -15.4449  -50.7217 H         1 UNK         0.1150 
    137 H137        0.5054  -19.6444  -51.5681 H         1 UNK         0.1150 
    138 H138        3.8085  -18.0017  -49.3855 H         1 UNK         0.1150 
    139 H139        2.4577  -21.0275  -51.0998 H         1 UNK         0.0800 
    140 H140        3.9075  -20.3047  -50.4520 H         1 UNK         0.0800 
    141 H141        0.4079  -21.4820  -49.8124 H         1 UNK         0.0800 
    142 H142        0.1865  -20.3325  -48.5161 H         1 UNK         0.0800 
    143 H143        0.7816  -23.2962  -48.0387 H         1 UNK         0.0600 
    144 H144        0.5124  -21.1506  -46.2002 H         1 UNK         0.3000 
    145 H145       -0.5168  -23.1518  -43.3800 H         1 UNK         0.0600 
    146 H146        1.4331  -21.9716  -42.4346 H         1 UNK         0.0600 
    147 H147        1.9749  -23.2127  -43.5537 H         1 UNK         0.0600 
    148 H148        1.9919  -21.5238  -44.0443 H         1 UNK         0.0600 
    149 H149       -0.1760  -20.3498  -43.5999 H         1 UNK         0.3000 
    150 H150       -3.5421  -19.5612  -44.6156 H         1 UNK         0.0600 
    151 H151       -3.5832  -19.8218  -42.1515 H         1 UNK         0.0600 
    152 H152       -3.3013  -18.1411  -42.5826 H         1 UNK         0.0600 
    153 H153       -1.9660  -19.1462  -42.0229 H         1 UNK         0.0600 
    154 H154       -1.3469  -17.8507  -44.1276 H         1 UNK         0.3000 
    155 H155        0.0849  -17.8966  -47.4145 H         1 UNK         0.0600 
    156 H156       -1.8155  -16.2908  -47.4546 H         1 UNK         0.0600 
    157 H157       -0.3153  -15.4643  -47.0750 H         1 UNK         0.0600 
    158 H158       -1.4782  -15.8169  -45.7948 H         1 UNK         0.0600 
    159 H159        0.7990  -16.5375  -45.0030 H         1 UNK         0.3000 
    160 H160        3.0428  -19.0408  -43.7616 H         1 UNK         0.0600 
    161 H161        3.4483  -16.2094  -44.8537 H         1 UNK         0.0600 
    162 H162        4.2563  -17.6456  -45.4653 H         1 UNK         0.0600 
    163 H163        4.5549  -17.1072  -43.8189 H         1 UNK         0.0600 
    164 H164        2.1700  -16.4702  -42.7933 H         1 UNK         0.3000 
    165 H165       -0.5165  -17.6601  -40.7973 H         1 UNK         0.0600 
    166 H166        0.8285  -16.7934  -38.9065 H         1 UNK         0.0600 
    167 H167        1.4572  -18.3483  -39.4266 H         1 UNK         0.0600 
    168 H168        2.2997  -16.8708  -39.8774 H         1 UNK         0.0600 
    169 H169        0.7803  -15.1472  -40.8304 H         1 UNK         0.3000 
    170 H170       -0.7770  -13.7001  -43.6410 H         1 UNK         0.0600 
    171 H171       -2.6014  -13.6140  -41.9411 H         1 UNK         0.0600 
    172 H172       -1.4227  -13.2891  -40.6750 H         1 UNK         0.0600 
    173 H173       -1.6836  -12.1164  -41.9667 H         1 UNK         0.0600 
    174 H174        0.8136  -12.6016  -41.5330 H         1 UNK         0.3000 
    175 H175        3.1658  -13.0034  -41.3856 H         1 UNK         0.0600 
    176 H176        4.5834  -13.3528  -44.0660 H         1 UNK         0.0600 
    177 H177        5.3265  -13.1521  -42.4873 H         1 UNK         0.0600 
    178 H178        4.4105  -14.6064  -42.8451 H         1 UNK         0.0600 
    179 H179        3.6811  -11.1518  -43.6155 H         1 UNK         0.3000 
    180 H180        1.9533   -8.4563  -42.1533 H         1 UNK         0.0600 
    181 H181        4.9680   -8.8810  -41.7929 H         1 UNK         0.0600 
    182 H182        3.8310   -8.4703  -40.5145 H         1 UNK         0.0600 
    183 H183        4.1368   -7.3249  -41.8100 H         1 UNK         0.0600 
    184 H184        4.1146   -8.6855  -44.0840 H         1 UNK         0.3000 
    185 H185        2.0450   -8.1228  -46.7486 H         1 UNK         0.0600 
    186 H186        4.2611   -7.3012  -45.9769 H         1 UNK         0.0600 
    187 H187        4.9046   -8.9396  -45.9606 H         1 UNK         0.0600 
    188 H188        4.4115   -8.1985  -47.4754 H         1 UNK         0.0600 
    189 H189        1.7324  -10.1760  -47.5295 H         1 UNK         0.3000 
    190 H190       -2.0690  -21.2185  -47.3018 H         1 UNK         0.3000 
    191 H191       -3.8634  -22.3882  -49.1268 H         1 UNK         0.0600 
    192 H192       -4.3246  -20.2514  -48.0150 H         1 UNK         0.0600 
    193 H193       -5.6170  -21.3703  -47.6133 H         1 UNK         0.0600 
    194 H194       -4.3673  -21.0232  -46.4321 H         1 UNK         0.0600 
    195 H195       -3.1828  -23.2852  -45.7167 H         1 UNK         0.3000 
    196 H196       -5.0337  -25.4326  -45.5409 H         1 UNK         0.0600 
    197 H197       -3.6781  -26.0694  -43.5359 H         1 UNK         0.0600 
    198 H198       -4.0386  -24.3496  -43.5534 H         1 UNK         0.0600 
    199 H199       -2.4326  -24.9172  -44.0039 H         1 UNK         0.0600 
    200 H200       -1.5714  -25.3735  -46.5103 H         1 UNK         0.3000 
    201 H201       -1.2735  -28.1803  -46.8724 H         1 UNK         0.0600 
    202 H202        0.6516  -26.6490  -46.6131 H         1 UNK         0.0600 
    203 H203        0.2587  -25.8436  -48.1302 H         1 UNK         0.0600 
    204 H204        0.7821  -27.5233  -48.1316 H         1 UNK         0.0600 
    205 H205       -2.2272  -25.5807  -49.1513 H         1 UNK         0.3000 
    206 H206       -2.5030  -27.2661  -51.4570 H         1 UNK         0.0600 
    207 H207       -2.2023  -24.8182  -51.6154 H         1 UNK         0.0600 
    208 H208       -3.7120  -25.2771  -52.3873 H         1 UNK         0.0600 
    209 H209       -3.7361  -24.5381  -50.7900 H         1 UNK         0.0600 
    210 H210       -4.6179  -26.5300  -48.7823 H         1 UNK         0.3000 
    211 H211       -6.4814  -27.3052  -47.9682 H         1 UNK         0.0600 
    212 H212       -6.5297  -29.4436  -50.1618 H         1 UNK         0.0600 
    213 H213       -7.4819  -29.4427  -48.6858 H         1 UNK         0.0600 
    214 H214       -5.7335  -29.5931  -48.5950 H         1 UNK         0.0600 
    215 H215       -6.6110  -26.8686  -51.4619 H         1 UNK         0.3000 
    216 H216       -9.4104  -26.0731  -51.5871 H         1 UNK         0.0600 
    217 H217       -8.8190  -25.5711  -53.9567 H         1 UNK         0.0600 
    218 H218       -8.2161  -27.1545  -53.4985 H         1 UNK         0.0600 
    219 H219       -7.1091  -25.7856  -53.5982 H         1 UNK         0.0600 
    220 H220       -6.8179  -24.5328  -50.2537 H         1 UNK         0.3000 
    221 H221       -6.3396  -22.5747  -49.4589 H         1 UNK         0.0600 
    222 H222       -9.0497  -21.5341  -50.4198 H         1 UNK         0.0600 
    223 H223       -8.7397  -22.3255  -48.8740 H         1 UNK         0.0600 
    224 H224       -7.9997  -20.7736  -49.2353 H         1 UNK         0.0600 
    225 H225       -7.4532  -22.4355  -52.7872 H         1 UNK         0.3000 
    226 H226       -5.9612  -20.0770  -53.5736 H         1 UNK         0.0600 
    227 H227       -8.0170  -20.7949  -54.7536 H         1 UNK         0.0600 
    228 H228       -6.6513  -20.7970  -55.8577 H         1 UNK         0.0600 
    229 H229       -7.2595  -22.3193  -55.2123 H         1 UNK         0.0600 
    230 H230       -4.0361  -20.9823  -52.3334 H         1 UNK         0.3000 
    231 H231       -2.3363  -22.9906  -53.5195 H         1 UNK         0.0600 
    232 H232       -2.3677  -22.4339  -51.0863 H         1 UNK         0.0600 
    233 H233       -1.7594  -20.8213  -51.4242 H         1 UNK         0.0600 
    234 H234       -0.7600  -22.2337  -51.7653 H         1 UNK         0.0600 
    235 H235       -2.6407  -21.9501  -55.6941 H         1 UNK         0.3000 
    236 H236       -1.7963  -21.1504  -57.5604 H         1 UNK         0.0600 
    237 H237        0.4844  -20.2691  -57.7935 H         1 UNK         0.0600 
    238 H238        0.6582  -20.1055  -56.0550 H         1 UNK         0.0600 
    239 H239        0.5110  -21.7058  -56.7824 H         1 UNK         0.0600 
    240 H240       -1.6907  -18.8919  -54.8434 H         1 UNK         0.3000 
    241 H241       -2.0734  -16.4613  -56.2390 H         1 UNK         0.0600 
    242 H242       -3.9562  -15.3239  -56.9652 H         1 UNK         0.3800 
    243 H243       -5.5407  -16.0429  -56.9327 H         1 UNK         0.3800 
    244 H244       -3.0697  -17.1583  -53.4307 H         1 UNK         0.0800 
    245 H245       -2.8517  -15.5507  -54.0687 H         1 UNK         0.0800 
    246 H246       -1.5649  -16.7400  -51.2848 H         1 UNK         0.0800 
    247 H247       -1.4043  -18.3051  -52.0470 H         1 UNK         0.0800 
@<TRIPOS>BOND
     1    1    2 1    
     2    1  127 1    
     3    1  128 1    
     4    1  129 1    
     5    2    3 2    
     6    2    4 am   BACKBONE|DICT|INTERRES
     7    4    5 1    
     8    4  130 1    
     9    5    6 1    
    10    5   65 1    
    11    5  131 1    
    12    6    7 1    
    13    6  132 1    
    14    6  133 1    
    15    7    8 1    
    16    8    9 1    
    17    8  134 1    
    18    8  135 1    
    19    9   10 ar   
    20    9   14 ar   
    21   10   11 ar   
    22   10  136 1    
    23   11   12 ar   
    24   11  126 1    
    25   12   13 ar   
    26   12  137 1    
    27   13   14 ar   
    28   13   15 1    
    29   14  138 1    
    30   15   16 1    
    31   15  139 1    
    32   15  140 1    
    33   16   17 1    
    34   17   18 1    
    35   17  141 1    
    36   17  142 1    
    37   18   19 1    
    38   18   67 1    
    39   18  143 1    
    40   19   20 am   BACKBONE|DICT|INTERRES
    41   19  144 1    
    42   20   21 2    
    43   20   22 1    
    44   22   23 1    
    45   22   24 1    
    46   22  145 1    
    47   23  146 1    
    48   23  147 1    
    49   23  148 1    
    50   24   25 am   BACKBONE|DICT|INTERRES
    51   24  149 1    
    52   25   26 2    
    53   25   27 1    
    54   27   28 1    
    55   27   29 1    
    56   27  150 1    
    57   28  151 1    
    58   28  152 1    
    59   28  153 1    
    60   29   30 am   BACKBONE|DICT|INTERRES
    61   29  154 1    
    62   30   31 2    
    63   30   32 1    
    64   32   33 1    
    65   32   34 1    
    66   32  155 1    
    67   33  156 1    
    68   33  157 1    
    69   33  158 1    
    70   34   35 am   BACKBONE|DICT|INTERRES
    71   34  159 1    
    72   35   36 2    
    73   35   37 1    
    74   37   38 1    
    75   37   39 1    
    76   37  160 1    
    77   38  161 1    
    78   38  162 1    
    79   38  163 1    
    80   39   40 am   BACKBONE|DICT|INTERRES
    81   39  164 1    
    82   40   41 2    
    83   40   42 1    
    84   42   43 1    
    85   42   44 1    
    86   42  165 1    
    87   43  166 1    
    88   43  167 1    
    89   43  168 1    
    90   44   45 am   BACKBONE|DICT|INTERRES
    91   44  169 1    
    92   45   46 2    
    93   45   47 1    
    94   47   48 1    
    95   47   49 1    
    96   47  170 1    
    97   48  171 1    
    98   48  172 1    
    99   48  173 1    
   100   49   50 am   BACKBONE|DICT|INTERRES
   101   49  174 1    
   102   50   51 2    
   103   50   52 1    
   104   52   53 1    
   105   52   54 1    
   106   52  175 1    
   107   53  176 1    
   108   53  177 1    
   109   53  178 1    
   110   54   55 am   BACKBONE|DICT|INTERRES
   111   54  179 1    
   112   55   56 2    
   113   55   57 1    
   114   57   58 1    
   115   57   59 1    
   116   57  180 1    
   117   58  181 1    
   118   58  182 1    
   119   58  183 1    
   120   59   60 am   BACKBONE|DICT|INTERRES
   121   59  184 1    
   122   60   61 2    
   123   60   62 1    
   124   62   63 1    
   125   62   64 1    
   126   62  185 1    
   127   63  186 1    
   128   63  187 1    
   129   63  188 1    
   130   64   65 am   BACKBONE|DICT|INTERRES
   131   64  189 1    
   132   65   66 2    
   133   67   68 2    
   134   67   69 am   BACKBONE|DICT|INTERRES
   135   69   70 1    
   136   69  190 1    
   137   70   71 1    
   138   70   72 1    
   139   70  191 1    
   140   71  192 1    
   141   71  193 1    
   142   71  194 1    
   143   72   73 2    
   144   72   74 am   BACKBONE|DICT|INTERRES
   145   74   75 1    
   146   74  195 1    
   147   75   76 1    
   148   75   77 1    
   149   75  196 1    
   150   76  197 1    
   151   76  198 1    
   152   76  199 1    
   153   77   78 2    
   154   77   79 am   BACKBONE|DICT|INTERRES
   155   79   80 1    
   156   79  200 1    
   157   80   81 1    
   158   80   82 1    
   159   80  201 1    
   160   81  202 1    
   161   81  203 1    
   162   81  204 1    
   163   82   83 2    
   164   82   84 am   BACKBONE|DICT|INTERRES
   165   84   85 1    
   166   84  205 1    
   167   85   86 1    
   168   85   87 1    
   169   85  206 1    
   170   86  207 1    
   171   86  208 1    
   172   86  209 1    
   173   87   88 2    
   174   87   89 am   BACKBONE|DICT|INTERRES
   175   89   90 1    
   176   89  210 1    
   177   90   91 1    
   178   90   92 1    
   179   90  211 1    
   180   91  212 1    
   181   91  213 1    
   182   91  214 1    
   183   92   93 2    
   184   92   94 am   BACKBONE|DICT|INTERRES
   185   94   95 1    
   186   94  215 1    
   187   95   96 1    
   188   95   97 1    
   189   95  216 1    
   190   96  217 1    
   191   96  218 1    
   192   96  219 1    
   193   97   98 2    
   194   97   99 am   BACKBONE|DICT|INTERRES
   195   99  100 1    
   196   99  220 1    
   197  100  101 1    
   198  100  102 1    
   199  100  221 1    
   200  101  222 1    
   201  101  223 1    
   202  101  224 1    
   203  102  103 2    
   204  102  104 am   BACKBONE|DICT|INTERRES
   205  104  105 1    
   206  104  225 1    
   207  105  106 1    
   208  105  107 1    
   209  105  226 1    
   210  106  227 1    
   211  106  228 1    
   212  106  229 1    
   213  107  108 2    
   214  107  109 am   BACKBONE|DICT|INTERRES
   215  109  110 1    
   216  109  230 1    
   217  110  111 1    
   218  110  112 1    
   219  110  231 1    
   220  111  232 1    
   221  111  233 1    
   222  111  234 1    
   223  112  113 2    
   224  112  114 am   BACKBONE|DICT|INTERRES
   225  114  115 1    
   226  114  235 1    
   227  115  116 1    
   228  115  117 1    
   229  115  236 1    
   230  116  237 1    
   231  116  238 1    
   232  116  239 1    
   233  117  118 2    
   234  117  119 am   BACKBONE|DICT|INTERRES
   235  119  120 1    
   236  119  240 1    
   237  120  121 1    
   238  120  124 1    
   239  120  241 1    
   240  121  122 am   BACKBONE|DICT|INTERRES
   241  121  123 2    
   242  122  242 1    
   243  122  243 1    
   244  124  125 1    
   245  124  244 1    
   246  124  245 1    
   247  125  126 1    
   248  126  246 1    
   249  126  247 1    
@<TRIPOS>SUBSTRUCTURE
     1 UNK         1 GROUP             0       ****    0 ROOT    
