@<TRIPOS>MOLECULE
3R540
247   249    1
SMALL
USER_CHARGES


@<TRIPOS>ATOM
      1 CA         -3.9404  -14.6044  -43.8086 C.3       0 UNK        -0.1800 
      2 C          -3.8923  -15.7490  -44.8199 C.2       0 UNK         0.5000 
      3 O          -4.3630  -16.8387  -44.5049 O.2       0 UNK        -0.5000 
      4 N          -3.3567  -15.5598  -46.0357 N.am      1 UNK        -0.5000 
      5 CA         -2.7093  -14.3462  -46.5468 C.3       1 UNK         0.1400 
      6 C6         -2.4971  -14.4112  -48.0849 C.3       23 UNK        -0.0398 
      7 S7         -1.2178  -15.5907  -48.6516 S.3       23 UNK        -0.2404 
      8 C8         -2.0835  -16.5488  -49.9310 C.3       23 UNK        -0.0205 
      9 C9         -1.0974  -17.4492  -50.6580 C.ar      23 UNK        -0.0193 
     10 C10        -0.5519  -17.0549  -51.8822 C.ar      23 UNK        -0.1150 
     11 C11         0.3932  -17.8570  -52.5289 C.ar      23 UNK        -0.0193 
     12 C12         0.7978  -19.0588  -51.9401 C.ar      23 UNK        -0.1150 
     13 C13         0.2565  -19.4659  -50.7178 C.ar      23 UNK        -0.0193 
     14 C14        -0.6976  -18.6609  -50.0893 C.ar      23 UNK        -0.1150 
     15 C15         0.6845  -20.7782  -50.0791 C.3       23 UNK        -0.0205 
     16 S16         1.4578  -20.5215  -48.4452 S.3       23 UNK        -0.2404 
     17 C17         1.3423  -22.2057  -47.7454 C.3       23 UNK        -0.0398 
     18 CA          0.1189  -22.5087  -46.8352 C.3       11 UNK         0.1400 
     19 N           0.2892  -22.1034  -45.4364 N.am      11 UNK        -0.5000 
     20 C          -0.4661  -22.6011  -44.4425 C.2       10 UNK         0.5000 
     21 O          -1.3463  -23.4458  -44.6159 O.2       10 UNK        -0.5000 
     22 CA         -0.2319  -22.0534  -43.0255 C.3       10 UNK         0.1400 
     23 CB          1.0393  -22.6572  -42.4105 C.3       10 UNK        -0.1800 
     24 N          -0.1670  -20.5940  -42.9842 N.am      10 UNK        -0.5000 
     25 C          -1.1829  -19.7765  -43.2980 C.2       9 UNK         0.5000 
     26 O          -2.3004  -20.1744  -43.6274 O.2       9 UNK        -0.5000 
     27 CA         -0.8876  -18.2636  -43.2824 C.3       9 UNK         0.1400 
     28 CB         -0.9475  -17.7000  -41.8553 C.3       9 UNK        -0.1800 
     29 N           0.4075  -17.9400  -43.8785 N.am      9 UNK        -0.5000 
     30 C           0.7251  -18.1803  -45.1587 C.2       8 UNK         0.5000 
     31 O          -0.0457  -18.6827  -45.9743 O.2       8 UNK        -0.5000 
     32 CA          2.1745  -17.8832  -45.5709 C.3       8 UNK         0.1400 
     33 CB          2.3876  -16.3799  -45.8017 C.3       8 UNK        -0.1800 
     34 N           3.1242  -18.3804  -44.5744 N.am      8 UNK        -0.5000 
     35 C           3.3509  -19.6811  -44.3361 C.2       7 UNK         0.5000 
     36 O           2.8086  -20.5976  -44.9545 O.2       7 UNK        -0.5000 
     37 CA          4.3228  -20.0168  -43.1896 C.3       7 UNK         0.1400 
     38 CB          5.7765  -19.9787  -43.6840 C.3       7 UNK        -0.1800 
     39 N           4.1790  -19.1243  -42.0384 N.am      7 UNK        -0.5000 
     40 C           3.0915  -19.0619  -41.2567 C.2       6 UNK         0.5000 
     41 O           2.0975  -19.7684  -41.4118 O.2       6 UNK        -0.5000 
     42 CA          3.0965  -18.0013  -40.1402 C.3       6 UNK         0.1400 
     43 CB          3.7216  -18.5698  -38.8578 C.3       6 UNK        -0.1800 
     44 N           3.7892  -16.7649  -40.5126 N.am      6 UNK        -0.5000 
     45 C           3.4244  -15.9699  -41.5261 C.2       5 UNK         0.5000 
     46 O           2.4724  -16.2106  -42.2722 O.2       5 UNK        -0.5000 
     47 CA          4.2676  -14.7051  -41.7383 C.3       5 UNK         0.1400 
     48 CB          4.7098  -14.5644  -43.2044 C.3       5 UNK        -0.1800 
     49 N           3.4613  -13.5509  -41.3654 N.am      5 UNK        -0.5000 
     50 C           3.5193  -12.9172  -40.1865 C.2       4 UNK         0.5000 
     51 O           4.3437  -13.1827  -39.3105 O.2       4 UNK        -0.5000 
     52 CA          2.4786  -11.8059  -39.9279 C.3       4 UNK         0.1400 
     53 CB          3.0614  -10.4300  -40.2852 C.3       4 UNK        -0.1800 
     54 N           1.2277  -11.9977  -40.6642 N.am      4 UNK        -0.5000 
     55 C           0.3669  -13.0036  -40.4591 C.2       3 UNK         0.5000 
     56 O           0.4728  -13.8077  -39.5322 O.2       3 UNK        -0.5000 
     57 CA         -0.8040  -13.1560  -41.4536 C.3       3 UNK         0.1400 
     58 CB         -2.1042  -12.6309  -40.8240 C.3       3 UNK        -0.1800 
     59 N          -0.6406  -12.5364  -42.7771 N.am      3 UNK        -0.5000 
     60 C           0.3797  -12.7119  -43.6309 C.2       2 UNK         0.5000 
     61 O           1.4328  -13.2766  -43.3401 O.2       2 UNK        -0.5000 
     62 CA          0.1517  -12.1898  -45.0653 C.3       2 UNK         0.1400 
     63 CB          1.3634  -12.4343  -45.9888 C.3       2 UNK        -0.1800 
     64 N          -1.0671  -12.7365  -45.6799 N.am      2 UNK        -0.5000 
     65 C          -1.3978  -14.0341  -45.7897 C.2       1 UNK         0.5000 
     66 O          -0.7275  -14.9615  -45.3331 O.2       1 UNK        -0.5000 
     67 C          -1.2341  -22.0355  -47.4061 C.2       11 UNK         0.5000 
     68 O          -1.8684  -22.7969  -48.1335 O.2       11 UNK        -0.5000 
     69 N          -1.6798  -20.8249  -47.0363 N.am      12 UNK        -0.5000 
     70 CA         -2.9832  -20.2756  -47.4088 C.3       12 UNK         0.1400 
     71 CB         -3.0979  -18.8218  -46.9353 C.3       12 UNK        -0.1800 
     72 C          -4.1515  -21.1086  -46.8621 C.2       12 UNK         0.5000 
     73 O          -5.0937  -21.3751  -47.6048 O.2       12 UNK        -0.5000 
     74 N          -4.0545  -21.5424  -45.5982 N.am      13 UNK        -0.5000 
     75 CA         -5.0280  -22.4282  -44.9595 C.3       13 UNK         0.1400 
     76 CB         -4.7101  -22.5426  -43.4610 C.3       13 UNK        -0.1800 
     77 C          -5.0907  -23.8223  -45.6133 C.2       13 UNK         0.5000 
     78 O          -6.1799  -24.3832  -45.7385 O.2       13 UNK        -0.5000 
     79 N          -3.9291  -24.3497  -46.0221 N.am      14 UNK        -0.5000 
     80 CA         -3.7978  -25.6507  -46.6733 C.3       14 UNK         0.1400 
     81 CB         -2.3392  -26.1245  -46.5697 C.3       14 UNK        -0.1800 
     82 C          -4.2658  -25.6390  -48.1406 C.2       14 UNK         0.5000 
     83 O          -5.0567  -26.4980  -48.5323 O.2       14 UNK        -0.5000 
     84 N          -3.7466  -24.6912  -48.9314 N.am      15 UNK        -0.5000 
     85 CA         -3.9139  -24.6463  -50.3852 C.3       15 UNK         0.1400 
     86 CB         -2.6521  -24.0191  -51.0046 C.3       15 UNK        -0.1800 
     87 C          -5.1547  -23.8653  -50.8479 C.2       15 UNK         0.5000 
     88 O          -5.5265  -23.9812  -52.0177 O.2       15 UNK        -0.5000 
     89 N          -5.7247  -23.0300  -49.9641 N.am      16 UNK        -0.5000 
     90 CA         -6.8055  -22.0677  -50.2311 C.3       16 UNK         0.1400 
     91 CB         -8.1171  -22.8047  -50.5749 C.3       16 UNK        -0.1800 
     92 C          -6.4214  -21.0145  -51.2960 C.2       16 UNK         0.5000 
     93 O          -7.2999  -20.4861  -51.9786 O.2       16 UNK        -0.5000 
     94 N          -5.1078  -20.7903  -51.4726 N.am      17 UNK        -0.5000 
     95 CA         -4.4140  -20.0622  -52.5474 C.3       17 UNK         0.1400 
     96 CB         -4.7996  -18.5722  -52.5620 C.3       17 UNK        -0.1800 
     97 C          -4.5680  -20.6957  -53.9493 C.2       17 UNK         0.5000 
     98 O          -3.6199  -20.6629  -54.7338 O.2       17 UNK        -0.5000 
     99 N          -5.7351  -21.2830  -54.2367 N.am      18 UNK        -0.5000 
    100 CA        -6.1067  -21.9370  -55.4884 C.3       18 UNK         0.1400 
    101 CB        -7.5619  -22.4184  -55.3899 C.3       18 UNK        -0.1800 
    102 C         -5.1769  -23.0963  -55.8830 C.2       18 UNK         0.5000 
    103 O         -4.7353  -23.1439  -57.0312 O.2       18 UNK        -0.5000 
    104 N         -4.8531  -23.9844  -54.9304 N.am      19 UNK        -0.5000 
    105 CA        -3.9681  -25.1319  -55.1693 C.3       19 UNK         0.1400 
    106 CB        -4.1620  -26.1818  -54.0662 C.3       19 UNK        -0.1800 
    107 C         -2.4834  -24.7368  -55.3041 C.2       19 UNK         0.5000 
    108 O         -1.7020  -25.5087  -55.8602 O.2       19 UNK        -0.5000 
    109 N         -2.1273  -23.5352  -54.8283 N.am      20 UNK        -0.5000 
    110 CA        -0.8172  -22.9119  -55.0262 C.3       20 UNK         0.1400 
    111 CB        -0.5253  -21.9776  -53.8383 C.3       20 UNK        -0.1800 
    112 C         -0.7279  -22.1488  -56.3664 C.2       20 UNK         0.5000 
    113 O          0.3533  -21.6692  -56.7079 O.2       20 UNK        -0.5000 
    114 N         -1.8550  -22.0470  -57.0917 N.am      21 UNK        -0.5000 
    115 CA        -2.0697  -21.2850  -58.3267 C.3       21 UNK         0.1400 
    116 CB        -1.1756  -21.8029  -59.4730 C.3       21 UNK        -0.1800 
    117 C         -1.9714  -19.7588  -58.1151 C.2       21 UNK         0.5000 
    118 O         -1.6052  -19.0306  -59.0398 O.2       21 UNK        -0.5000 
    119 N         -2.3158  -19.3053  -56.9043 N.am      22 UNK        -0.5000 
    120 CA        -2.2806  -17.9008  -56.4691 C.3       22 UNK         0.1400 
    121 C         -3.6932  -17.2540  -56.3739 C.2       22 UNK         0.5000 
    122 N         -4.7751  -17.9625  -56.6748 N.am      22 UNK        -0.7600 
    123 O         -3.8116  -16.0791  -56.0373 O.2       22 UNK        -0.5000 
    124 C124       -1.5095  -17.7509  -55.1333 C.3       23 UNK        -0.0398 
    125 S125        0.2247  -18.3077  -55.2554 S.3       23 UNK        -0.2404 
    126 C126        0.9840  -17.4216  -53.8606 C.3       23 UNK        -0.0205 
    127 H127       -2.9639  -14.4725  -43.3441 H         1 UNK         0.0600 
    128 H128       -4.6557  -14.8288  -43.0171 H         1 UNK         0.0600 
    129 H129       -4.2470  -13.6648  -44.2663 H         1 UNK         0.0600 
    130 H130       -3.2895  -16.3569  -46.6498 H         1 UNK         0.3000 
    131 H131       -3.3987  -13.5199  -46.3659 H         1 UNK         0.0600 
    132 H132       -3.4448  -14.6427  -48.5730 H         1 UNK         0.0800 
    133 H133       -2.2162  -13.4248  -48.4575 H         1 UNK         0.0800 
    134 H134       -2.8774  -17.1452  -49.4802 H         1 UNK         0.0800 
    135 H135       -2.5647  -15.8683  -50.6353 H         1 UNK         0.0800 
    136 H136       -0.8544  -16.1168  -52.3258 H         1 UNK         0.1150 
    137 H137        1.5302  -19.6770  -52.4397 H         1 UNK         0.1150 
    138 H138       -1.0998  -18.9653  -49.1358 H         1 UNK         0.1150 
    139 H139       -0.1953  -21.4152  -49.9884 H         1 UNK         0.0800 
    140 H140        1.3854  -21.3135  -50.7214 H         1 UNK         0.0800 
    141 H141        2.2634  -22.4019  -47.1948 H         1 UNK         0.0800 
    142 H142        1.3535  -22.9150  -48.5745 H         1 UNK         0.0800 
    143 H143        0.0552  -23.5991  -46.8116 H         1 UNK         0.0600 
    144 H144        1.0128  -21.4186  -45.2368 H         1 UNK         0.3000 
    145 H145       -1.0799  -22.3618  -42.4104 H         1 UNK         0.0600 
    146 H146        1.0058  -23.7471  -42.4346 H         1 UNK         0.0600 
    147 H147        1.9351  -22.3439  -42.9465 H         1 UNK         0.0600 
    148 H148        1.1514  -22.3599  -41.3678 H         1 UNK         0.0600 
    149 H149        0.7079  -20.1894  -42.6626 H         1 UNK         0.3000 
    150 H150       -1.6565  -17.7671  -43.8777 H         1 UNK         0.0600 
    151 H151       -0.7815  -16.6230  -41.8523 H         1 UNK         0.0600 
    152 H152       -0.1961  -18.1552  -41.2097 H         1 UNK         0.0600 
    153 H153       -1.9243  -17.8821  -41.4057 H         1 UNK         0.0600 
    154 H154        1.0972  -17.4976  -43.2812 H         1 UNK         0.3000 
    155 H155        2.3718  -18.3981  -46.5129 H         1 UNK         0.0600 
    156 H156        1.7430  -16.0220  -46.6057 H         1 UNK         0.0600 
    157 H157        3.4170  -16.1597  -46.0838 H         1 UNK         0.0600 
    158 H158        2.1456  -15.7954  -44.9135 H         1 UNK         0.0600 
    159 H159        3.5545  -17.6915  -43.9756 H         1 UNK         0.3000 
    160 H160        4.1040  -21.0334  -42.8564 H         1 UNK         0.0600 
    161 H161        5.9171  -20.6498  -44.5324 H         1 UNK         0.0600 
    162 H162        6.4673  -20.2958  -42.9026 H         1 UNK         0.0600 
    163 H163        6.0680  -18.9779  -44.0051 H         1 UNK         0.0600 
    164 H164        4.9506  -18.5054  -41.8389 H         1 UNK         0.3000 
    165 H165        2.0562  -17.7455  -39.9278 H         1 UNK         0.0600 
    166 H166        3.6470  -17.8597  -38.0340 H         1 UNK         0.0600 
    167 H167        3.2106  -19.4818  -38.5459 H         1 UNK         0.0600 
    168 H168        4.7752  -18.8150  -38.9968 H         1 UNK         0.0600 
    169 H169        4.5701  -16.4930  -39.9325 H         1 UNK         0.3000 
    170 H170        5.1678  -14.7627  -41.1229 H         1 UNK         0.0600 
    171 H171        5.3538  -13.6951  -43.3362 H         1 UNK         0.0600 
    172 H172        5.2720  -15.4401  -43.5305 H         1 UNK         0.0600 
    173 H173        3.8591  -14.4493  -43.8764 H         1 UNK         0.0600 
    174 H174        2.7043  -13.3314  -42.0113 H         1 UNK         0.3000 
    175 H175        2.2473  -11.8130  -38.8607 H         1 UNK         0.0600 
    176 H176        3.2947  -10.3564  -41.3482 H         1 UNK         0.0600 
    177 H177        2.3647   -9.6292  -40.0367 H         1 UNK         0.0600 
    178 H178        3.9828  -10.2408  -39.7329 H         1 UNK         0.0600 
    179 H179        1.0679  -11.3917  -41.4551 H         1 UNK         0.3000 
    180 H180       -0.9220  -14.2267  -41.6274 H         1 UNK         0.0600 
    181 H181       -2.9678  -12.8430  -41.4540 H         1 UNK         0.0600 
    182 H182       -2.0628  -11.5530  -40.6628 H         1 UNK         0.0600 
    183 H183       -2.2901  -13.1001  -39.8568 H         1 UNK         0.0600 
    184 H184       -1.4474  -12.0366  -43.1207 H         1 UNK         0.3000 
    185 H185        0.0108  -11.1110  -44.9841 H         1 UNK         0.0600 
    186 H186        1.5683  -13.4979  -46.1126 H         1 UNK         0.0600 
    187 H187        1.1970  -12.0093  -46.9785 H         1 UNK         0.0600 
    188 H188        2.2648  -11.9725  -45.5840 H         1 UNK         0.0600 
    189 H189       -1.6926  -12.0467  -46.0726 H         1 UNK         0.3000 
    190 H190       -1.0755  -20.2220  -46.4824 H         1 UNK         0.3000 
    191 H191       -3.0489  -20.2863  -48.4986 H         1 UNK         0.0600 
    192 H192       -3.0309  -18.7537  -45.8498 H         1 UNK         0.0600 
    193 H193       -4.0513  -18.3860  -47.2361 H         1 UNK         0.0600 
    194 H194       -2.3057  -18.2007  -47.3495 H         1 UNK         0.0600 
    195 H195       -3.2704  -21.2359  -45.0298 H         1 UNK         0.3000 
    196 H196       -6.0138  -21.9701  -45.0627 H         1 UNK         0.0600 
    197 H197       -4.7475  -21.5671  -42.9755 H         1 UNK         0.0600 
    198 H198       -3.7180  -22.9618  -43.2903 H         1 UNK         0.0600 
    199 H199       -5.4313  -23.1859  -42.9556 H         1 UNK         0.0600 
    200 H200       -3.0728  -23.8392  -45.8391 H         1 UNK         0.3000 
    201 H201       -4.4181  -26.3686  -46.1323 H         1 UNK         0.0600 
    202 H202       -2.0267  -26.2101  -45.5288 H         1 UNK         0.0600 
    203 H203       -1.6537  -25.4377  -47.0668 H         1 UNK         0.0600 
    204 H204       -2.2130  -27.1054  -47.0296 H         1 UNK         0.0600 
    205 H205       -3.0949  -24.0142  -48.5352 H         1 UNK         0.3000 
    206 H206       -4.0075  -25.6658  -50.7639 H         1 UNK         0.0600 
    207 H207       -2.7011  -24.0207  -52.0927 H         1 UNK         0.0600 
    208 H208       -2.5199  -22.9828  -50.6923 H         1 UNK         0.0600 
    209 H209       -1.7559  -24.5706  -50.7204 H         1 UNK         0.0600 
    210 H210       -5.3252  -22.9686  -49.0345 H         1 UNK         0.3000 
    211 H211       -6.9793  -21.5159  -49.3078 H         1 UNK         0.0600 
    212 H212       -8.0611  -23.3078  -51.5406 H         1 UNK         0.0600 
    213 H213       -8.9563  -22.1096  -50.6186 H         1 UNK         0.0600 
    214 H214       -8.3572  -23.5531  -49.8198 H         1 UNK         0.0600 
    215 H215       -4.4964  -21.2978  -50.8502 H         1 UNK         0.3000 
    216 H216       -3.3518  -20.1193  -52.3031 H         1 UNK         0.0600 
    217 H217       -4.2069  -18.0231  -53.2941 H         1 UNK         0.0600 
    218 H218       -4.6228  -18.1108  -51.5905 H         1 UNK         0.0600 
    219 H219       -5.8483  -18.4235  -52.8201 H         1 UNK         0.0600 
    220 H220       -6.4606  -21.2171  -53.5299 H         1 UNK         0.3000 
    221 H221       -6.0492  -21.1851  -56.2777 H         1 UNK         0.0600 
    222 H222       -7.6943  -23.1342  -54.5773 H         1 UNK         0.0600 
    223 H223       -8.2412  -21.5842  -55.2135 H         1 UNK         0.0600 
    224 H224       -7.8778  -22.9051  -56.3137 H         1 UNK         0.0600 
    225 H225       -5.2297  -23.8807  -53.9915 H         1 UNK         0.3000 
    226 H226       -4.2641  -25.5935  -56.1138 H         1 UNK         0.0600 
    227 H227       -5.2123  -26.4514  -53.9542 H         1 UNK         0.0600 
    228 H228       -3.6139  -27.0953  -54.2997 H         1 UNK         0.0600 
    229 H229       -3.8014  -25.8265  -53.1040 H         1 UNK         0.0600 
    230 H230       -2.8424  -22.9497  -54.4205 H         1 UNK         0.3000 
    231 H231       -0.0477  -23.6865  -55.0399 H         1 UNK         0.0600 
    232 H232       -0.5784  -22.5113  -52.8894 H         1 UNK         0.0600 
    233 H233        0.4768  -21.5543  -53.9152 H         1 UNK         0.0600 
    234 H234       -1.2229  -21.1416  -53.7935 H         1 UNK         0.0600 
    235 H235       -2.6886  -22.4895  -56.7255 H         1 UNK         0.3000 
    236 H236       -3.1042  -21.4758  -58.6148 H         1 UNK         0.0600 
    237 H237       -0.1242  -21.5658  -59.3090 H         1 UNK         0.0600 
    238 H238       -1.2639  -22.8836  -59.5844 H         1 UNK         0.0600 
    239 H239       -1.4641  -21.3553  -60.4246 H         1 UNK         0.0600 
    240 H240       -2.6320  -19.9660  -56.1992 H         1 UNK         0.3000 
    241 H241       -1.7484  -17.3073  -57.2144 H         1 UNK         0.0600 
    242 H242       -5.6833  -17.5293  -56.6218 H         1 UNK         0.3800 
    243 H243       -4.6890  -18.9221  -56.9656 H         1 UNK         0.3800 
    244 H244       -1.5100  -16.7088  -54.8096 H         1 UNK         0.0800 
    245 H245       -1.9978  -18.3225  -54.3426 H         1 UNK         0.0800 
    246 H246        0.8670  -16.3463  -54.0044 H         1 UNK         0.0800 
    247 H247        2.0578  -17.6139  -53.8622 H         1 UNK         0.0800 
@<TRIPOS>BOND
     1    1    2 1    
     2    1  127 1    
     3    1  128 1    
     4    1  129 1    
     5    2    3 2    
     6    2    4 am   BACKBONE|DICT|INTERRES
     7    4    5 1    
     8    4  130 1    
     9    5    6 1    
    10    5   65 1    
    11    5  131 1    
    12    6    7 1    
    13    6  132 1    
    14    6  133 1    
    15    7    8 1    
    16    8    9 1    
    17    8  134 1    
    18    8  135 1    
    19    9   10 ar   
    20    9   14 ar   
    21   10   11 ar   
    22   10  136 1    
    23   11   12 ar   
    24   11  126 1    
    25   12   13 ar   
    26   12  137 1    
    27   13   14 ar   
    28   13   15 1    
    29   14  138 1    
    30   15   16 1    
    31   15  139 1    
    32   15  140 1    
    33   16   17 1    
    34   17   18 1    
    35   17  141 1    
    36   17  142 1    
    37   18   19 1    
    38   18   67 1    
    39   18  143 1    
    40   19   20 am   BACKBONE|DICT|INTERRES
    41   19  144 1    
    42   20   21 2    
    43   20   22 1    
    44   22   23 1    
    45   22   24 1    
    46   22  145 1    
    47   23  146 1    
    48   23  147 1    
    49   23  148 1    
    50   24   25 am   BACKBONE|DICT|INTERRES
    51   24  149 1    
    52   25   26 2    
    53   25   27 1    
    54   27   28 1    
    55   27   29 1    
    56   27  150 1    
    57   28  151 1    
    58   28  152 1    
    59   28  153 1    
    60   29   30 am   BACKBONE|DICT|INTERRES
    61   29  154 1    
    62   30   31 2    
    63   30   32 1    
    64   32   33 1    
    65   32   34 1    
    66   32  155 1    
    67   33  156 1    
    68   33  157 1    
    69   33  158 1    
    70   34   35 am   BACKBONE|DICT|INTERRES
    71   34  159 1    
    72   35   36 2    
    73   35   37 1    
    74   37   38 1    
    75   37   39 1    
    76   37  160 1    
    77   38  161 1    
    78   38  162 1    
    79   38  163 1    
    80   39   40 am   BACKBONE|DICT|INTERRES
    81   39  164 1    
    82   40   41 2    
    83   40   42 1    
    84   42   43 1    
    85   42   44 1    
    86   42  165 1    
    87   43  166 1    
    88   43  167 1    
    89   43  168 1    
    90   44   45 am   BACKBONE|DICT|INTERRES
    91   44  169 1    
    92   45   46 2    
    93   45   47 1    
    94   47   48 1    
    95   47   49 1    
    96   47  170 1    
    97   48  171 1    
    98   48  172 1    
    99   48  173 1    
   100   49   50 am   BACKBONE|DICT|INTERRES
   101   49  174 1    
   102   50   51 2    
   103   50   52 1    
   104   52   53 1    
   105   52   54 1    
   106   52  175 1    
   107   53  176 1    
   108   53  177 1    
   109   53  178 1    
   110   54   55 am   BACKBONE|DICT|INTERRES
   111   54  179 1    
   112   55   56 2    
   113   55   57 1    
   114   57   58 1    
   115   57   59 1    
   116   57  180 1    
   117   58  181 1    
   118   58  182 1    
   119   58  183 1    
   120   59   60 am   BACKBONE|DICT|INTERRES
   121   59  184 1    
   122   60   61 2    
   123   60   62 1    
   124   62   63 1    
   125   62   64 1    
   126   62  185 1    
   127   63  186 1    
   128   63  187 1    
   129   63  188 1    
   130   64   65 am   BACKBONE|DICT|INTERRES
   131   64  189 1    
   132   65   66 2    
   133   67   68 2    
   134   67   69 am   BACKBONE|DICT|INTERRES
   135   69   70 1    
   136   69  190 1    
   137   70   71 1    
   138   70   72 1    
   139   70  191 1    
   140   71  192 1    
   141   71  193 1    
   142   71  194 1    
   143   72   73 2    
   144   72   74 am   BACKBONE|DICT|INTERRES
   145   74   75 1    
   146   74  195 1    
   147   75   76 1    
   148   75   77 1    
   149   75  196 1    
   150   76  197 1    
   151   76  198 1    
   152   76  199 1    
   153   77   78 2    
   154   77   79 am   BACKBONE|DICT|INTERRES
   155   79   80 1    
   156   79  200 1    
   157   80   81 1    
   158   80   82 1    
   159   80  201 1    
   160   81  202 1    
   161   81  203 1    
   162   81  204 1    
   163   82   83 2    
   164   82   84 am   BACKBONE|DICT|INTERRES
   165   84   85 1    
   166   84  205 1    
   167   85   86 1    
   168   85   87 1    
   169   85  206 1    
   170   86  207 1    
   171   86  208 1    
   172   86  209 1    
   173   87   88 2    
   174   87   89 am   BACKBONE|DICT|INTERRES
   175   89   90 1    
   176   89  210 1    
   177   90   91 1    
   178   90   92 1    
   179   90  211 1    
   180   91  212 1    
   181   91  213 1    
   182   91  214 1    
   183   92   93 2    
   184   92   94 am   BACKBONE|DICT|INTERRES
   185   94   95 1    
   186   94  215 1    
   187   95   96 1    
   188   95   97 1    
   189   95  216 1    
   190   96  217 1    
   191   96  218 1    
   192   96  219 1    
   193   97   98 2    
   194   97   99 am   BACKBONE|DICT|INTERRES
   195   99  100 1    
   196   99  220 1    
   197  100  101 1    
   198  100  102 1    
   199  100  221 1    
   200  101  222 1    
   201  101  223 1    
   202  101  224 1    
   203  102  103 2    
   204  102  104 am   BACKBONE|DICT|INTERRES
   205  104  105 1    
   206  104  225 1    
   207  105  106 1    
   208  105  107 1    
   209  105  226 1    
   210  106  227 1    
   211  106  228 1    
   212  106  229 1    
   213  107  108 2    
   214  107  109 am   BACKBONE|DICT|INTERRES
   215  109  110 1    
   216  109  230 1    
   217  110  111 1    
   218  110  112 1    
   219  110  231 1    
   220  111  232 1    
   221  111  233 1    
   222  111  234 1    
   223  112  113 2    
   224  112  114 am   BACKBONE|DICT|INTERRES
   225  114  115 1    
   226  114  235 1    
   227  115  116 1    
   228  115  117 1    
   229  115  236 1    
   230  116  237 1    
   231  116  238 1    
   232  116  239 1    
   233  117  118 2    
   234  117  119 am   BACKBONE|DICT|INTERRES
   235  119  120 1    
   236  119  240 1    
   237  120  121 1    
   238  120  124 1    
   239  120  241 1    
   240  121  122 am   BACKBONE|DICT|INTERRES
   241  121  123 2    
   242  122  242 1    
   243  122  243 1    
   244  124  125 1    
   245  124  244 1    
   246  124  245 1    
   247  125  126 1    
   248  126  246 1    
   249  126  247 1    
@<TRIPOS>SUBSTRUCTURE
     1 UNK         1 GROUP             0       ****    0 ROOT    
