@<TRIPOS>MOLECULE
3R540
247   249    1
SMALL
USER_CHARGES


@<TRIPOS>ATOM
      1 CA          6.7323  -14.0791  -48.1006 C.3       0 UNK        -0.1800 
      2 C           5.2261  -14.2883  -48.0337 C.2       0 UNK         0.5000 
      3 O           4.7467  -14.9819  -47.1360 O.2       0 UNK        -0.5000 
      4 N           4.4868  -13.6949  -48.9814 N.am      1 UNK        -0.5000 
      5 CA          3.0254  -13.7439  -49.1002 C.3       1 UNK         0.1400 
      6 C6          2.5251  -13.0270  -50.3823 C.3       23 UNK        -0.0398 
      7 S7          3.0741  -13.8291  -51.9307 S.3       23 UNK        -0.2404 
      8 C8          1.4945  -14.0949  -52.8135 C.3       23 UNK        -0.0205 
      9 C9          0.8920  -15.4732  -52.5603 C.ar      23 UNK        -0.0193 
     10 C10         0.5991  -16.3221  -53.6347 C.ar      23 UNK        -0.1150 
     11 C11         0.0536  -17.5912  -53.4120 C.ar      23 UNK        -0.0193 
     12 C12        -0.1848  -18.0171  -52.1031 C.ar      23 UNK        -0.1150 
     13 C13         0.0971  -17.1776  -51.0241 C.ar      23 UNK        -0.0193 
     14 C14         0.6143  -15.9024  -51.2590 C.ar      23 UNK        -0.1150 
     15 C15        -0.1195  -17.6590  -49.6025 C.3       23 UNK        -0.0205 
     16 S16         1.4086  -18.4088  -48.9685 S.3       23 UNK        -0.2404 
     17 C17         0.9112  -18.8332  -47.2726 C.3       23 UNK        -0.0398 
     18 CA          0.6099  -20.3398  -47.0875 C.3       11 UNK         0.1400 
     19 N           0.7498  -20.7444  -45.6897 N.am      11 UNK        -0.5000 
     20 C           0.7057  -22.0004  -45.2288 C.2       10 UNK         0.5000 
     21 O           0.5683  -22.9902  -45.9465 O.2       10 UNK        -0.5000 
     22 CA          0.7847  -22.1713  -43.7010 C.3       10 UNK         0.1400 
     23 CB          2.2381  -22.0855  -43.2115 C.3       10 UNK        -0.1800 
     24 N          -0.0305  -21.1866  -42.9883 N.am      10 UNK        -0.5000 
     25 C          -1.3687  -21.1290  -43.0488 C.2       9 UNK         0.5000 
     26 O          -2.0606  -21.9209  -43.6903 O.2       9 UNK        -0.5000 
     27 CA         -2.0413  -19.9624  -42.3024 C.3       9 UNK         0.1400 
     28 CB         -2.0887  -20.2362  -40.7917 C.3       9 UNK        -0.1800 
     29 N          -1.3795  -18.6796  -42.5439 N.am      9 UNK        -0.5000 
     30 C          -1.2779  -18.0908  -43.7438 C.2       8 UNK         0.5000 
     31 O          -1.7594  -18.5511  -44.7779 O.2       8 UNK        -0.5000 
     32 CA         -0.4491  -16.7975  -43.8169 C.3       8 UNK         0.1400 
     33 CB         -1.2741  -15.5950  -43.3364 C.3       8 UNK        -0.1800 
     34 N           0.8045  -16.8741  -43.0638 N.am      8 UNK        -0.5000 
     35 C           1.7735  -17.7762  -43.2804 C.2       7 UNK         0.5000 
     36 O           1.7146  -18.6488  -44.1412 O.2       7 UNK        -0.5000 
     37 CA          3.0009  -17.7232  -42.3629 C.3       7 UNK         0.1400 
     38 CB          3.9716  -16.6339  -42.8336 C.3       7 UNK        -0.1800 
     39 N           2.6126  -17.4927  -40.9744 N.am      7 UNK        -0.5000 
     40 C           2.0319  -18.4216  -40.2012 C.2       6 UNK         0.5000 
     41 O           1.8216  -19.5810  -40.5610 O.2       6 UNK        -0.5000 
     42 CA          1.5706  -17.9609  -38.8069 C.3       6 UNK         0.1400 
     43 CB          2.7441  -17.9639  -37.8157 C.3       6 UNK        -0.1800 
     44 N           0.9559  -16.6324  -38.8290 N.am      6 UNK        -0.5000 
     45 C          -0.1888  -16.3405  -39.4617 C.2       5 UNK         0.5000 
     46 O          -0.8584  -17.1661  -40.0828 O.2       5 UNK        -0.5000 
     47 CA         -0.6473  -14.8716  -39.4220 C.3       5 UNK         0.1400 
     48 CB         -1.4905  -14.6085  -38.1654 C.3       5 UNK        -0.1800 
     49 N           0.4401  -13.8894  -39.4883 N.am      5 UNK        -0.5000 
     50 C           1.3315  -13.7791  -40.4830 C.2       4 UNK         0.5000 
     51 O           1.4124  -14.5803  -41.4180 O.2       4 UNK        -0.5000 
     52 CA          2.2547  -12.5471  -40.4171 C.3       4 UNK         0.1400 
     53 CB          3.2259  -12.6100  -39.2195 C.3       4 UNK        -0.1800 
     54 N           2.9353  -12.3050  -41.6947 N.am      4 UNK        -0.5000 
     55 C           4.0174  -12.9043  -42.2090 C.2       3 UNK         0.5000 
     56 O           4.7452  -13.6812  -41.5892 O.2       3 UNK        -0.5000 
     57 CA          4.3072  -12.5912  -43.6950 C.3       3 UNK         0.1400 
     58 CB          5.7139  -13.0380  -44.1310 C.3       3 UNK        -0.1800 
     59 N           3.3271  -13.2138  -44.5890 N.am      3 UNK        -0.5000 
     60 C           2.0478  -12.8407  -44.7330 C.2       2 UNK         0.5000 
     61 O           1.5529  -11.8708  -44.1537 O.2       2 UNK        -0.5000 
     62 CA          1.1931  -13.6991  -45.6900 C.3       2 UNK         0.1400 
     63 CB         -0.2047  -13.1043  -45.9606 C.3       2 UNK        -0.1800 
     64 N           1.8710  -14.0131  -46.9524 N.am      2 UNK        -0.5000 
     65 C           2.3499  -13.1392  -47.8503 C.2       1 UNK         0.5000 
     66 O           2.2911  -11.9140  -47.7278 O.2       1 UNK        -0.5000 
     67 C          -0.7695  -20.7245  -47.6569 C.2       11 UNK         0.5000 
     68 O          -0.8350  -21.2963  -48.7436 O.2       11 UNK        -0.5000 
     69 N          -1.8420  -20.4500  -46.8993 N.am      12 UNK        -0.5000 
     70 CA         -3.2116  -20.8324  -47.2405 C.3       12 UNK         0.1400 
     71 CB         -4.1968  -20.2240  -46.2326 C.3       12 UNK        -0.1800 
     72 C          -3.3910  -22.3562  -47.3280 C.2       12 UNK         0.5000 
     73 O          -4.0042  -22.8315  -48.2831 O.2       12 UNK        -0.5000 
     74 N          -2.8211  -23.0950  -46.3648 N.am      13 UNK        -0.5000 
     75 CA         -2.8077  -24.5588  -46.3458 C.3       13 UNK         0.1400 
     76 CB         -2.2215  -25.0584  -45.0171 C.3       13 UNK        -0.1800 
     77 C          -2.0554  -25.1608  -47.5476 C.2       13 UNK         0.5000 
     78 O          -2.5790  -26.0692  -48.1941 O.2       13 UNK        -0.5000 
     79 N          -0.8744  -24.6078  -47.8617 N.am      14 UNK        -0.5000 
     80 CA         -0.0672  -24.9625  -49.0334 C.3       14 UNK         0.1400 
     81 CB          1.2872  -24.2415  -48.9610 C.3       14 UNK        -0.1800 
     82 C          -0.7760  -24.6601  -50.3686 C.2       14 UNK         0.5000 
     83 O          -0.6322  -25.4261  -51.3213 O.2       14 UNK        -0.5000 
     84 N          -1.5732  -23.5848  -50.3923 N.am      15 UNK        -0.5000 
     85 CA         -2.4414  -23.1792  -51.4975 C.3       15 UNK         0.1400 
     86 CB         -2.6409  -21.6544  -51.4376 C.3       15 UNK        -0.1800 
     87 C          -3.7906  -23.9329  -51.5352 C.2       15 UNK         0.5000 
     88 O          -4.7164  -23.4631  -52.1964 O.2       15 UNK        -0.5000 
     89 N          -3.8927  -25.0731  -50.8340 N.am      16 UNK        -0.5000 
     90 CA         -5.0382  -25.9880  -50.7783 C.3       16 UNK         0.1400 
     91 CB         -5.2848  -26.6381  -52.1564 C.3       16 UNK        -0.1800 
     92 C          -6.2979  -25.3301  -50.1809 C.2       16 UNK         0.5000 
     93 O          -7.3809  -25.4158  -50.7615 O.2       16 UNK        -0.5000 
     94 N          -6.1104  -24.6729  -49.0278 N.am      17 UNK        -0.5000 
     95 CA         -7.0845  -23.8511  -48.3009 C.3       17 UNK         0.1400 
     96 CB         -8.3049  -24.6781  -47.8435 C.3       17 UNK        -0.1800 
     97 C          -7.4541  -22.5801  -49.0921 C.2       17 UNK         0.5000 
     98 O          -8.6272  -22.2095  -49.1642 O.2       17 UNK        -0.5000 
     99 N          -6.4206  -21.9456  -49.6666 N.am      18 UNK        -0.5000 
    100 CA        -6.4561  -20.7432  -50.5035 C.3       18 UNK         0.1400 
    101 CB        -6.7993  -19.5057  -49.6491 C.3       18 UNK        -0.1800 
    102 C         -7.3640  -20.9054  -51.7412 C.2       18 UNK         0.5000 
    103 O         -8.2542  -20.0848  -51.9767 O.2       18 UNK        -0.5000 
    104 N         -7.1276  -21.9806  -52.5032 N.am      19 UNK        -0.5000 
    105 CA        -7.8114  -22.2812  -53.7593 C.3       19 UNK         0.1400 
    106 CB        -7.4844  -23.7268  -54.1659 C.3       19 UNK        -0.1800 
    107 C         -7.3981  -21.3086  -54.8788 C.2       19 UNK         0.5000 
    108 O         -6.2983  -20.7518  -54.8393 O.2       19 UNK        -0.5000 
    109 N         -8.2639  -21.1652  -55.8915 N.am      20 UNK        -0.5000 
    110 CA        -8.0686  -20.2869  -57.0529 C.3       20 UNK         0.1400 
    111 CB        -9.3476  -20.2931  -57.9042 C.3       20 UNK        -0.1800 
    112 C         -6.8423  -20.6411  -57.9204 C.2       20 UNK         0.5000 
    113 O         -6.2975  -19.7622  -58.5892 O.2       20 UNK        -0.5000 
    114 N         -6.4167  -21.9110  -57.8743 N.am      21 UNK        -0.5000 
    115 CA        -5.1950  -22.4113  -58.5070 C.3       21 UNK         0.1400 
    116 CB        -5.2711  -23.9449  -58.5737 C.3       21 UNK        -0.1800 
    117 C         -3.9038  -21.9686  -57.7852 C.2       21 UNK         0.5000 
    118 O         -2.8295  -22.0429  -58.3824 O.2       21 UNK        -0.5000 
    119 N         -4.0226  -21.5272  -56.5242 N.am      22 UNK        -0.5000 
    120 CA        -2.9279  -21.0848  -55.6448 C.3       22 UNK         0.1400 
    121 C         -1.9531  -22.2178  -55.1940 C.2       22 UNK         0.5000 
    122 N         -2.3235  -23.4884  -55.3031 N.am      22 UNK        -0.7600 
    123 O         -0.8552  -21.9523  -54.7154 O.2       22 UNK        -0.5000 
    124 C124       -2.2058  -19.8111  -56.1849 C.3       23 UNK        -0.0398 
    125 S125       -2.0611  -18.5011  -54.9226 S.3       23 UNK        -0.2404 
    126 C126       -0.2760  -18.5128  -54.5751 C.3       23 UNK        -0.0205 
    127 H127        7.0155  -13.4271  -48.9272 H         1 UNK         0.0600 
    128 H128        7.2370  -15.0360  -48.2337 H         1 UNK         0.0600 
    129 H129        7.0916  -13.6300  -47.1751 H         1 UNK         0.0600 
    130 H130        4.9523  -13.1413  -49.6861 H         1 UNK         0.3000 
    131 H131        2.7418  -14.7962  -49.1666 H         1 UNK         0.0600 
    132 H132        1.4356  -12.9676  -50.3786 H         1 UNK         0.0800 
    133 H133        2.8738  -11.9928  -50.4007 H         1 UNK         0.0800 
    134 H134        0.7698  -13.3241  -52.5492 H         1 UNK         0.0800 
    135 H135        1.6887  -13.9649  -53.8792 H         1 UNK         0.0800 
    136 H136        0.7935  -15.9960  -54.6470 H         1 UNK         0.1150 
    137 H137       -0.5873  -19.0045  -51.9256 H         1 UNK         0.1150 
    138 H138        0.8233  -15.2572  -50.4207 H         1 UNK         0.1150 
    139 H139       -0.4171  -16.8253  -48.9644 H         1 UNK         0.0800 
    140 H140       -0.9317  -18.3869  -49.5697 H         1 UNK         0.0800 
    141 H141        0.0808  -18.2084  -46.9395 H         1 UNK         0.0800 
    142 H142        1.7619  -18.5510  -46.6534 H         1 UNK         0.0800 
    143 H143        1.3600  -20.9073  -47.6428 H         1 UNK         0.0600 
    144 H144        0.9252  -19.9934  -45.0246 H         1 UNK         0.3000 
    145 H145        0.4023  -23.1647  -43.4574 H         1 UNK         0.0600 
    146 H146        2.3035  -22.2691  -42.1389 H         1 UNK         0.0600 
    147 H147        2.8615  -22.8297  -43.7086 H         1 UNK         0.0600 
    148 H148        2.6750  -21.1061  -43.4083 H         1 UNK         0.0600 
    149 H149        0.4644  -20.4884  -42.4492 H         1 UNK         0.3000 
    150 H150       -3.0673  -19.8828  -42.6676 H         1 UNK         0.0600 
    151 H151       -2.5758  -21.1891  -40.5809 H         1 UNK         0.0600 
    152 H152       -2.6500  -19.4610  -40.2697 H         1 UNK         0.0600 
    153 H153       -1.0887  -20.2722  -40.3572 H         1 UNK         0.0600 
    154 H154       -0.9901  -18.2074  -41.7326 H         1 UNK         0.3000 
    155 H155       -0.1883  -16.6355  -44.8641 H         1 UNK         0.0600 
    156 H156       -1.6738  -15.7572  -42.3362 H         1 UNK         0.0600 
    157 H157       -0.6790  -14.6826  -43.3127 H         1 UNK         0.0600 
    158 H158       -2.1212  -15.4173  -43.9998 H         1 UNK         0.0600 
    159 H159        0.9543  -16.1644  -42.3509 H         1 UNK         0.3000 
    160 H160        3.5157  -18.6846  -42.4241 H         1 UNK         0.0600 
    161 H161        3.4816  -15.6629  -42.8819 H         1 UNK         0.0600 
    162 H162        4.3515  -16.8551  -43.8319 H         1 UNK         0.0600 
    163 H163        4.8304  -16.5475  -42.1678 H         1 UNK         0.0600 
    164 H164        2.6931  -16.5464  -40.6301 H         1 UNK         0.3000 
    165 H165        0.8222  -18.6734  -38.4530 H         1 UNK         0.0600 
    166 H166        2.4095  -17.7168  -36.8081 H         1 UNK         0.0600 
    167 H167        3.2125  -18.9480  -37.7693 H         1 UNK         0.0600 
    168 H168        3.5149  -17.2462  -38.0995 H         1 UNK         0.0600 
    169 H169        1.4442  -15.8905  -38.3497 H         1 UNK         0.3000 
    170 H170       -1.2842  -14.7052  -40.2918 H         1 UNK         0.0600 
    171 H171       -0.8995  -14.7122  -37.2546 H         1 UNK         0.0600 
    172 H172       -1.9161  -13.6050  -38.1780 H         1 UNK         0.0600 
    173 H173       -2.3225  -15.3110  -38.0988 H         1 UNK         0.0600 
    174 H174        0.4480  -13.1934  -38.7568 H         1 UNK         0.3000 
    175 H175        1.6090  -11.6799  -40.2718 H         1 UNK         0.0600 
    176 H176        3.9361  -11.7834  -39.2413 H         1 UNK         0.0600 
    177 H177        3.7920  -13.5415  -39.1991 H         1 UNK         0.0600 
    178 H178        2.6855  -12.5446  -38.2748 H         1 UNK         0.0600 
    179 H179        2.3810  -11.7783  -42.3636 H         1 UNK         0.3000 
    180 H180        4.2516  -11.5077  -43.8194 H         1 UNK         0.0600 
    181 H181        5.8243  -14.1225  -44.0891 H         1 UNK         0.0600 
    182 H182        6.4804  -12.6024  -43.4888 H         1 UNK         0.0600 
    183 H183        5.9268  -12.7192  -45.1511 H         1 UNK         0.0600 
    184 H184        3.6579  -14.0027  -45.1285 H         1 UNK         0.3000 
    185 H185        1.0526  -14.6502  -45.1781 H         1 UNK         0.0600 
    186 H186       -0.7531  -12.9464  -45.0316 H         1 UNK         0.0600 
    187 H187       -0.1438  -12.1414  -46.4684 H         1 UNK         0.0600 
    188 H188       -0.8035  -13.7728  -46.5791 H         1 UNK         0.0600 
    189 H189        2.0413  -14.9951  -47.1202 H         1 UNK         0.3000 
    190 H190       -1.7194  -19.9357  -46.0299 H         1 UNK         0.3000 
    191 H191       -3.4372  -20.4157  -48.2240 H         1 UNK         0.0600 
    192 H192       -4.1419  -19.1353  -46.2384 H         1 UNK         0.0600 
    193 H193       -5.2242  -20.4992  -46.4749 H         1 UNK         0.0600 
    194 H194       -3.9947  -20.5627  -45.2159 H         1 UNK         0.0600 
    195 H195       -2.3623  -22.6244  -45.5913 H         1 UNK         0.3000 
    196 H196       -3.8442  -24.8977  -46.4029 H         1 UNK         0.0600 
    197 H197       -2.2275  -26.1482  -44.9729 H         1 UNK         0.0600 
    198 H198       -2.8029  -24.6949  -44.1697 H         1 UNK         0.0600 
    199 H199       -1.1915  -24.7299  -44.8791 H         1 UNK         0.0600 
    200 H200       -0.4936  -23.8886  -47.2515 H         1 UNK         0.3000 
    201 H201        0.1176  -26.0378  -48.9945 H         1 UNK         0.0600 
    202 H202        1.8282  -24.5095  -48.0534 H         1 UNK         0.0600 
    203 H203        1.1672  -23.1579  -48.9705 H         1 UNK         0.0600 
    204 H204        1.9190  -24.5099  -49.8084 H         1 UNK         0.0600 
    205 H205       -1.5785  -22.9760  -49.5800 H         1 UNK         0.3000 
    206 H206       -1.9316  -23.4096  -52.4336 H         1 UNK         0.0600 
    207 H207       -1.6840  -21.1351  -51.4861 H         1 UNK         0.0600 
    208 H208       -3.2425  -21.2953  -52.2730 H         1 UNK         0.0600 
    209 H209       -3.1375  -21.3524  -50.5161 H         1 UNK         0.0600 
    210 H210       -3.1000  -25.3464  -50.2673 H         1 UNK         0.3000 
    211 H211       -4.7567  -26.7849  -50.0884 H         1 UNK         0.0600 
    212 H212       -5.6067  -25.9084  -52.8996 H         1 UNK         0.0600 
    213 H213       -6.0598  -27.4028  -52.0938 H         1 UNK         0.0600 
    214 H214       -4.3823  -27.1211  -52.5307 H         1 UNK         0.0600 
    215 H215       -5.1577  -24.5876  -48.6936 H         1 UNK         0.3000 
    216 H216       -6.5752  -23.5067  -47.3997 H         1 UNK         0.0600 
    217 H217       -8.9387  -24.0946  -47.1749 H         1 UNK         0.0600 
    218 H218       -7.9952  -25.5705  -47.2999 H         1 UNK         0.0600 
    219 H219       -8.9251  -24.9933  -48.6828 H         1 UNK         0.0600 
    220 H220       -5.5009  -22.3442  -49.5077 H         1 UNK         0.3000 
    221 H221       -5.4452  -20.6039  -50.8875 H         1 UNK         0.0600 
    222 H222       -7.8083  -19.5625  -49.2396 H         1 UNK         0.0600 
    223 H223       -6.1048  -19.3981  -48.8159 H         1 UNK         0.0600 
    224 H224       -6.7374  -18.5928  -50.2425 H         1 UNK         0.0600 
    225 H225       -6.3337  -22.5766  -52.2766 H         1 UNK         0.3000 
    226 H226       -8.8874  -22.1943  -53.5952 H         1 UNK         0.0600 
    227 H227       -7.7685  -24.4295  -53.3824 H         1 UNK         0.0600 
    228 H228       -8.0224  -24.0149  -55.0697 H         1 UNK         0.0600 
    229 H229       -6.4191  -23.8582  -54.3609 H         1 UNK         0.0600 
    230 H230       -9.1380  -21.6704  -55.8595 H         1 UNK         0.3000 
    231 H231       -7.9142  -19.2736  -56.6763 H         1 UNK         0.0600 
    232 H232       -9.5719  -21.2900  -58.2857 H         1 UNK         0.0600 
    233 H233       -9.2494  -19.6276  -58.7629 H         1 UNK         0.0600 
    234 H234      -10.2077  -19.9513  -57.3280 H         1 UNK         0.0600 
    235 H235       -6.9363  -22.5662  -57.3097 H         1 UNK         0.3000 
    236 H236       -5.1495  -22.0256  -59.5276 H         1 UNK         0.0600 
    237 H237       -6.1406  -24.2721  -59.1441 H         1 UNK         0.0600 
    238 H238       -4.3890  -24.3600  -59.0631 H         1 UNK         0.0600 
    239 H239       -5.3347  -24.3890  -57.5794 H         1 UNK         0.0600 
    240 H240       -4.9469  -21.4567  -56.1116 H         1 UNK         0.3000 
    241 H241       -3.4463  -20.8124  -54.7251 H         1 UNK         0.0600 
    242 H242       -3.2239  -23.7292  -55.6831 H         1 UNK         0.3800 
    243 H243       -1.6858  -24.2146  -55.0194 H         1 UNK         0.3800 
    244 H244       -2.7729  -19.3706  -57.0060 H         1 UNK         0.0800 
    245 H245       -1.2289  -20.0466  -56.6108 H         1 UNK         0.0800 
    246 H246        0.0485  -19.5256  -54.3347 H         1 UNK         0.0800 
    247 H247        0.2712  -18.2147  -55.4707 H         1 UNK         0.0800 
@<TRIPOS>BOND
     1    1    2 1    
     2    1  127 1    
     3    1  128 1    
     4    1  129 1    
     5    2    3 2    
     6    2    4 am   BACKBONE|DICT|INTERRES
     7    4    5 1    
     8    4  130 1    
     9    5    6 1    
    10    5   65 1    
    11    5  131 1    
    12    6    7 1    
    13    6  132 1    
    14    6  133 1    
    15    7    8 1    
    16    8    9 1    
    17    8  134 1    
    18    8  135 1    
    19    9   10 ar   
    20    9   14 ar   
    21   10   11 ar   
    22   10  136 1    
    23   11   12 ar   
    24   11  126 1    
    25   12   13 ar   
    26   12  137 1    
    27   13   14 ar   
    28   13   15 1    
    29   14  138 1    
    30   15   16 1    
    31   15  139 1    
    32   15  140 1    
    33   16   17 1    
    34   17   18 1    
    35   17  141 1    
    36   17  142 1    
    37   18   19 1    
    38   18   67 1    
    39   18  143 1    
    40   19   20 am   BACKBONE|DICT|INTERRES
    41   19  144 1    
    42   20   21 2    
    43   20   22 1    
    44   22   23 1    
    45   22   24 1    
    46   22  145 1    
    47   23  146 1    
    48   23  147 1    
    49   23  148 1    
    50   24   25 am   BACKBONE|DICT|INTERRES
    51   24  149 1    
    52   25   26 2    
    53   25   27 1    
    54   27   28 1    
    55   27   29 1    
    56   27  150 1    
    57   28  151 1    
    58   28  152 1    
    59   28  153 1    
    60   29   30 am   BACKBONE|DICT|INTERRES
    61   29  154 1    
    62   30   31 2    
    63   30   32 1    
    64   32   33 1    
    65   32   34 1    
    66   32  155 1    
    67   33  156 1    
    68   33  157 1    
    69   33  158 1    
    70   34   35 am   BACKBONE|DICT|INTERRES
    71   34  159 1    
    72   35   36 2    
    73   35   37 1    
    74   37   38 1    
    75   37   39 1    
    76   37  160 1    
    77   38  161 1    
    78   38  162 1    
    79   38  163 1    
    80   39   40 am   BACKBONE|DICT|INTERRES
    81   39  164 1    
    82   40   41 2    
    83   40   42 1    
    84   42   43 1    
    85   42   44 1    
    86   42  165 1    
    87   43  166 1    
    88   43  167 1    
    89   43  168 1    
    90   44   45 am   BACKBONE|DICT|INTERRES
    91   44  169 1    
    92   45   46 2    
    93   45   47 1    
    94   47   48 1    
    95   47   49 1    
    96   47  170 1    
    97   48  171 1    
    98   48  172 1    
    99   48  173 1    
   100   49   50 am   BACKBONE|DICT|INTERRES
   101   49  174 1    
   102   50   51 2    
   103   50   52 1    
   104   52   53 1    
   105   52   54 1    
   106   52  175 1    
   107   53  176 1    
   108   53  177 1    
   109   53  178 1    
   110   54   55 am   BACKBONE|DICT|INTERRES
   111   54  179 1    
   112   55   56 2    
   113   55   57 1    
   114   57   58 1    
   115   57   59 1    
   116   57  180 1    
   117   58  181 1    
   118   58  182 1    
   119   58  183 1    
   120   59   60 am   BACKBONE|DICT|INTERRES
   121   59  184 1    
   122   60   61 2    
   123   60   62 1    
   124   62   63 1    
   125   62   64 1    
   126   62  185 1    
   127   63  186 1    
   128   63  187 1    
   129   63  188 1    
   130   64   65 am   BACKBONE|DICT|INTERRES
   131   64  189 1    
   132   65   66 2    
   133   67   68 2    
   134   67   69 am   BACKBONE|DICT|INTERRES
   135   69   70 1    
   136   69  190 1    
   137   70   71 1    
   138   70   72 1    
   139   70  191 1    
   140   71  192 1    
   141   71  193 1    
   142   71  194 1    
   143   72   73 2    
   144   72   74 am   BACKBONE|DICT|INTERRES
   145   74   75 1    
   146   74  195 1    
   147   75   76 1    
   148   75   77 1    
   149   75  196 1    
   150   76  197 1    
   151   76  198 1    
   152   76  199 1    
   153   77   78 2    
   154   77   79 am   BACKBONE|DICT|INTERRES
   155   79   80 1    
   156   79  200 1    
   157   80   81 1    
   158   80   82 1    
   159   80  201 1    
   160   81  202 1    
   161   81  203 1    
   162   81  204 1    
   163   82   83 2    
   164   82   84 am   BACKBONE|DICT|INTERRES
   165   84   85 1    
   166   84  205 1    
   167   85   86 1    
   168   85   87 1    
   169   85  206 1    
   170   86  207 1    
   171   86  208 1    
   172   86  209 1    
   173   87   88 2    
   174   87   89 am   BACKBONE|DICT|INTERRES
   175   89   90 1    
   176   89  210 1    
   177   90   91 1    
   178   90   92 1    
   179   90  211 1    
   180   91  212 1    
   181   91  213 1    
   182   91  214 1    
   183   92   93 2    
   184   92   94 am   BACKBONE|DICT|INTERRES
   185   94   95 1    
   186   94  215 1    
   187   95   96 1    
   188   95   97 1    
   189   95  216 1    
   190   96  217 1    
   191   96  218 1    
   192   96  219 1    
   193   97   98 2    
   194   97   99 am   BACKBONE|DICT|INTERRES
   195   99  100 1    
   196   99  220 1    
   197  100  101 1    
   198  100  102 1    
   199  100  221 1    
   200  101  222 1    
   201  101  223 1    
   202  101  224 1    
   203  102  103 2    
   204  102  104 am   BACKBONE|DICT|INTERRES
   205  104  105 1    
   206  104  225 1    
   207  105  106 1    
   208  105  107 1    
   209  105  226 1    
   210  106  227 1    
   211  106  228 1    
   212  106  229 1    
   213  107  108 2    
   214  107  109 am   BACKBONE|DICT|INTERRES
   215  109  110 1    
   216  109  230 1    
   217  110  111 1    
   218  110  112 1    
   219  110  231 1    
   220  111  232 1    
   221  111  233 1    
   222  111  234 1    
   223  112  113 2    
   224  112  114 am   BACKBONE|DICT|INTERRES
   225  114  115 1    
   226  114  235 1    
   227  115  116 1    
   228  115  117 1    
   229  115  236 1    
   230  116  237 1    
   231  116  238 1    
   232  116  239 1    
   233  117  118 2    
   234  117  119 am   BACKBONE|DICT|INTERRES
   235  119  120 1    
   236  119  240 1    
   237  120  121 1    
   238  120  124 1    
   239  120  241 1    
   240  121  122 am   BACKBONE|DICT|INTERRES
   241  121  123 2    
   242  122  242 1    
   243  122  243 1    
   244  124  125 1    
   245  124  244 1    
   246  124  245 1    
   247  125  126 1    
   248  126  246 1    
   249  126  247 1    
@<TRIPOS>SUBSTRUCTURE
     1 UNK         1 GROUP             0       ****    0 ROOT    
