@<TRIPOS>MOLECULE
3R540
247   249    1
SMALL
USER_CHARGES


@<TRIPOS>ATOM
      1 CA         -2.0869  -14.3395  -49.8068 C.3       0 UNK        -0.1800 
      2 C          -0.8302  -14.0175  -49.0100 C.2       0 UNK         0.5000 
      3 O          -0.9274  -13.5796  -47.8640 O.2       0 UNK        -0.5000 
      4 N           0.3450  -14.2247  -49.6218 N.am      1 UNK        -0.5000 
      5 CA          1.6809  -14.0786  -49.0244 C.3       1 UNK         0.1400 
      6 C6          1.9716  -15.1846  -47.9690 C.3       23 UNK        -0.0398 
      7 S7          3.7469  -15.5350  -47.6948 S.3       23 UNK        -0.2404 
      8 C8          4.3068  -16.2228  -49.2897 C.3       23 UNK        -0.0205 
      9 C9          3.5797  -17.5056  -49.6590 C.ar      23 UNK        -0.0193 
     10 C10         2.4179  -17.4574  -50.4346 C.ar      23 UNK        -0.1150 
     11 C11         1.7258  -18.6286  -50.7474 C.ar      23 UNK        -0.0193 
     12 C12         2.2330  -19.8601  -50.3271 C.ar      23 UNK        -0.1150 
     13 C13         3.4020  -19.9235  -49.5631 C.ar      23 UNK        -0.0193 
     14 C14         4.0675  -18.7415  -49.2260 C.ar      23 UNK        -0.1150 
     15 C15         3.9437  -21.2657  -49.0960 C.3       23 UNK        -0.0205 
     16 S16         3.1971  -21.7761  -47.5171 S.3       23 UNK        -0.2404 
     17 C17         1.5072  -22.2066  -48.0507 C.3       23 UNK        -0.0398 
     18 CA          0.8785  -23.2983  -47.1607 C.3       11 UNK         0.1400 
     19 N           0.6029  -22.8289  -45.8017 N.am      11 UNK        -0.5000 
     20 C           0.2703  -23.6310  -44.7818 C.2       10 UNK         0.5000 
     21 O           0.2213  -24.8578  -44.8676 O.2       10 UNK        -0.5000 
     22 CA         -0.1413  -22.9461  -43.4664 C.3       10 UNK         0.1400 
     23 CB          1.0896  -22.5208  -42.6526 C.3       10 UNK        -0.1800 
     24 N          -1.0167  -21.7952  -43.6969 N.am      10 UNK        -0.5000 
     25 C          -2.2412  -21.8865  -44.2371 C.2       9 UNK         0.5000 
     26 O          -2.7795  -22.9566  -44.5200 O.2       9 UNK        -0.5000 
     27 CA         -2.9779  -20.5731  -44.5481 C.3       9 UNK         0.1400 
     28 CB         -3.7418  -20.0817  -43.3103 C.3       9 UNK        -0.1800 
     29 N          -2.0915  -19.5180  -45.0384 N.am      9 UNK        -0.5000 
     30 C          -1.4192  -19.5628  -46.1986 C.2       8 UNK         0.5000 
     31 O          -1.4662  -20.5115  -46.9806 O.2       8 UNK        -0.5000 
     32 CA         -0.4852  -18.3765  -46.5052 C.3       8 UNK         0.1400 
     33 CB         -1.2853  -17.1345  -46.9087 C.3       8 UNK        -0.1800 
     34 N           0.3723  -18.0303  -45.3750 N.am      8 UNK        -0.5000 
     35 C           1.2443  -18.8617  -44.7905 C.2       7 UNK         0.5000 
     36 O           1.4476  -20.0187  -45.1563 O.2       7 UNK        -0.5000 
     37 CA          1.9582  -18.3194  -43.5433 C.3       7 UNK         0.1400 
     38 CB          3.1139  -17.3841  -43.9338 C.3       7 UNK        -0.1800 
     39 N           1.0256  -17.6167  -42.6606 N.am      7 UNK        -0.5000 
     40 C           0.0659  -18.2210  -41.9447 C.2       6 UNK         0.5000 
     41 O          -0.1076  -19.4395  -41.9238 O.2       6 UNK        -0.5000 
     42 CA         -0.8812  -17.3063  -41.1458 C.3       6 UNK         0.1400 
     43 CB         -0.2339  -16.8767  -39.8208 C.3       6 UNK        -0.1800 
     44 N          -1.2882  -16.1175  -41.8966 N.am      6 UNK        -0.5000 
     45 C          -2.0507  -16.1471  -42.9983 C.2       5 UNK         0.5000 
     46 O          -2.5124  -17.1783  -43.4802 O.2       5 UNK        -0.5000 
     47 CA         -2.3161  -14.8092  -43.7084 C.3       5 UNK         0.1400 
     48 CB         -3.5841  -14.1446  -43.1541 C.3       5 UNK        -0.1800 
     49 N          -1.2059  -13.8595  -43.6444 N.am      5 UNK        -0.5000 
     50 C           0.0421  -14.0756  -44.0805 C.2       4 UNK         0.5000 
     51 O           0.4470  -15.1665  -44.4885 O.2       4 UNK        -0.5000 
     52 CA          0.9600  -12.8372  -44.0934 C.3       4 UNK         0.1400 
     53 CB          2.4407  -13.1994  -44.3010 C.3       4 UNK        -0.1800 
     54 N           0.5131  -11.9082  -45.1365 N.am      4 UNK        -0.5000 
     55 C          -0.5346  -11.0779  -45.0064 C.2       3 UNK         0.5000 
     56 O          -1.1143  -10.9059  -43.9317 O.2       3 UNK        -0.5000 
     57 CA         -1.0912  -10.3869  -46.2689 C.3       3 UNK         0.1400 
     58 CB         -1.5611   -8.9405  -46.0044 C.3       3 UNK        -0.1800 
     59 N          -0.2241  -10.4791  -47.4457 N.am      3 UNK        -0.5000 
     60 C           0.9146   -9.8170  -47.6952 C.2       2 UNK         0.5000 
     61 O           1.4009   -8.9679  -46.9468 O.2       2 UNK        -0.5000 
     62 CA          1.6292  -10.2030  -49.0116 C.3       2 UNK         0.1400 
     63 CB          3.0971   -9.7293  -49.0622 C.3       2 UNK        -0.1800 
     64 N           1.5384  -11.6406  -49.3108 N.am      2 UNK        -0.5000 
     65 C           1.9557  -12.6425  -48.5200 C.2       1 UNK         0.5000 
     66 O           2.4901  -12.4564  -47.4281 O.2       1 UNK        -0.5000 
     67 C          -0.3739  -23.8991  -47.8316 C.2       11 UNK         0.5000 
     68 O          -0.2515  -24.9208  -48.5084 O.2       11 UNK        -0.5000 
     69 N          -1.5499  -23.2877  -47.6267 N.am      12 UNK        -0.5000 
     70 CA         -2.8403  -23.7756  -48.1252 C.3       12 UNK         0.1400 
     71 CB         -3.9340  -22.7289  -47.8707 C.3       12 UNK        -0.1800 
     72 C          -3.2376  -25.1330  -47.5215 C.2       12 UNK         0.5000 
     73 O          -3.7357  -25.9995  -48.2401 O.2       12 UNK        -0.5000 
     74 N          -2.9780  -25.3066  -46.2187 N.am      13 UNK        -0.5000 
     75 CA         -3.1459  -26.5720  -45.5064 C.3       13 UNK         0.1400 
     76 CB         -3.0054  -26.3298  -43.9959 C.3       13 UNK        -0.1800 
     77 C          -2.1569  -27.6530  -45.9832 C.2       13 UNK         0.5000 
     78 O          -2.5243  -28.8277  -46.0290 O.2       13 UNK        -0.5000 
     79 N          -0.9304  -27.2394  -46.3319 N.am      14 UNK        -0.5000 
     80 CA          0.1225  -28.1101  -46.8452 C.3       14 UNK         0.1400 
     81 CB          1.4868  -27.4086  -46.7442 C.3       14 UNK        -0.1800 
     82 C          -0.1524  -28.5983  -48.2789 C.2       14 UNK         0.5000 
     83 O          -0.1952  -29.8114  -48.4920 O.2       14 UNK        -0.5000 
     84 N          -0.3145  -27.6697  -49.2354 N.am      15 UNK        -0.5000 
     85 CA         -0.4310  -28.0034  -50.6608 C.3       15 UNK         0.1400 
     86 CB          0.9344  -28.4829  -51.2011 C.3       15 UNK        -0.1800 
     87 C          -0.9681  -26.8820  -51.5713 C.2       15 UNK         0.5000 
     88 O          -1.4090  -27.2020  -52.6772 O.2       15 UNK        -0.5000 
     89 N          -0.8843  -25.6057  -51.1654 N.am      16 UNK        -0.5000 
     90 CA         -1.2226  -24.4652  -52.0271 C.3       16 UNK         0.1400 
     91 CB         -0.6811  -23.1602  -51.4164 C.3       16 UNK        -0.1800 
     92 C          -2.7309  -24.3512  -52.3281 C.2       16 UNK         0.5000 
     93 O          -3.5634  -24.7747  -51.5237 O.2       16 UNK        -0.5000 
     94 N          -3.0427  -23.7601  -53.4853 N.am      17 UNK        -0.5000 
     95 CA         -4.3959  -23.4911  -53.9662 C.3       17 UNK         0.1400 
     96 CB         -5.0006  -24.7622  -54.5960 C.3       17 UNK        -0.1800 
     97 C          -4.3350  -22.2984  -54.9354 C.2       17 UNK         0.5000 
     98 O          -4.7774  -22.4006  -56.0808 O.2       17 UNK        -0.5000 
     99 N          -3.7325  -21.1978  -54.4673 N.am      18 UNK        -0.5000 
    100 CA        -3.4460  -19.9941  -55.2578 C.3       18 UNK         0.1400 
    101 CB        -2.0052  -19.5367  -54.9695 C.3       18 UNK        -0.1800 
    102 C         -4.4645  -18.8580  -55.0246 C.2       18 UNK         0.5000 
    103 O         -4.2312  -17.7418  -55.4910 O.2       18 UNK        -0.5000 
    104 N         -5.5698  -19.1668  -54.3298 N.am      19 UNK        -0.5000 
    105 CA        -6.6749  -18.2847  -53.9320 C.3       19 UNK         0.1400 
    106 CB        -7.3109  -17.5842  -55.1522 C.3       19 UNK        -0.1800 
    107 C         -6.2932  -17.2883  -52.8176 C.2       19 UNK         0.5000 
    108 O         -5.1321  -17.2106  -52.4098 O.2       19 UNK        -0.5000 
    109 N         -7.3090  -16.5816  -52.2992 N.am      20 UNK        -0.5000 
    110 CA        -7.2672  -15.7549  -51.0868 C.3       20 UNK         0.1400 
    111 CB        -6.3654  -14.5145  -51.2865 C.3       20 UNK        -0.1800 
    112 C         -6.9033  -16.6207  -49.8605 C.2       20 UNK         0.5000 
    113 O         -7.4393  -17.7244  -49.7281 O.2       20 UNK        -0.5000 
    114 N         -5.9838  -16.1503  -49.0068 N.am      21 UNK        -0.5000 
    115 CA        -5.4604  -16.9116  -47.8676 C.3       21 UNK         0.1400 
    116 CB        -4.6409  -15.9796  -46.9619 C.3       21 UNK        -0.1800 
    117 C         -4.6450  -18.1557  -48.2858 C.2       21 UNK         0.5000 
    118 O         -4.5665  -19.1062  -47.5101 O.2       21 UNK        -0.5000 
    119 N         -4.0979  -18.1429  -49.5100 N.am      22 UNK        -0.5000 
    120 CA        -3.4583  -19.2933  -50.1688 C.3       22 UNK         0.1400 
    121 C         -4.4686  -20.2809  -50.8314 C.2       22 UNK         0.5000 
    122 N         -5.7793  -20.1281  -50.6764 N.am      22 UNK        -0.7600 
    123 O         -4.0523  -21.2093  -51.5180 O.2       22 UNK        -0.5000 
    124 C124       -2.3755  -18.8477  -51.1865 C.3       23 UNK        -0.0398 
    125 S125       -0.9384  -18.0539  -50.4004 S.3       23 UNK        -0.2404 
    126 C126        0.4146  -18.5624  -51.5097 C.3       23 UNK        -0.0205 
    127 H127       -1.8843  -14.3837  -50.8771 H         1 UNK         0.0600 
    128 H128       -2.8500  -13.5801  -49.6371 H         1 UNK         0.0600 
    129 H129       -2.4866  -15.3048  -49.4980 H         1 UNK         0.0600 
    130 H130        0.3356  -14.5636  -50.5735 H         1 UNK         0.3000 
    131 H131        2.3650  -14.2170  -49.8598 H         1 UNK         0.0600 
    132 H132        1.5132  -14.9303  -47.0124 H         1 UNK         0.0800 
    133 H133        1.4970  -16.1208  -48.2614 H         1 UNK         0.0800 
    134 H134        4.2013  -15.4826  -50.0826 H         1 UNK         0.0800 
    135 H135        5.3773  -16.4214  -49.2189 H         1 UNK         0.0800 
    136 H136        2.0295  -16.5065  -50.7679 H         1 UNK         0.1150 
    137 H137        1.7056  -20.7678  -50.5816 H         1 UNK         0.1150 
    138 H138        4.9639  -18.7829  -48.6232 H         1 UNK         0.1150 
    139 H139        3.7750  -22.0306  -49.8555 H         1 UNK         0.0800 
    140 H140        5.0252  -21.2035  -48.9667 H         1 UNK         0.0800 
    141 H141        0.8952  -21.3031  -48.0561 H         1 UNK         0.0800 
    142 H142        1.5589  -22.5562  -49.0827 H         1 UNK         0.0800 
    143 H143        1.6031  -24.1110  -47.0782 H         1 UNK         0.0600 
    144 H144        0.6698  -21.8277  -45.6429 H         1 UNK         0.3000 
    145 H145       -0.6990  -23.6753  -42.8751 H         1 UNK         0.0600 
    146 H146        0.7987  -22.1036  -41.6885 H         1 UNK         0.0600 
    147 H147        1.7391  -23.3743  -42.4550 H         1 UNK         0.0600 
    148 H148        1.6836  -21.7715  -43.1752 H         1 UNK         0.0600 
    149 H149       -0.6494  -20.8828  -43.4530 H         1 UNK         0.3000 
    150 H150       -3.7074  -20.7791  -45.3334 H         1 UNK         0.0600 
    151 H151       -4.4071  -20.8564  -42.9271 H         1 UNK         0.0600 
    152 H152       -4.3579  -19.2145  -43.5483 H         1 UNK         0.0600 
    153 H153       -3.0624  -19.8012  -42.5044 H         1 UNK         0.0600 
    154 H154       -2.0334  -18.6808  -44.4637 H         1 UNK         0.3000 
    155 H155        0.1600  -18.6588  -47.3402 H         1 UNK         0.0600 
    156 H156       -0.6291  -16.3001  -47.1468 H         1 UNK         0.0600 
    157 H157       -1.9485  -16.8144  -46.1091 H         1 UNK         0.0600 
    158 H158       -1.8989  -17.3310  -47.7850 H         1 UNK         0.0600 
    159 H159        0.2889  -17.0866  -45.0089 H         1 UNK         0.3000 
    160 H160        2.3763  -19.1680  -42.9976 H         1 UNK         0.0600 
    161 H161        2.7647  -16.5134  -44.4898 H         1 UNK         0.0600 
    162 H162        3.8357  -17.9033  -44.5656 H         1 UNK         0.0600 
    163 H163        3.6483  -17.0275  -43.0534 H         1 UNK         0.0600 
    164 H164        1.0494  -16.6072  -42.6892 H         1 UNK         0.3000 
    165 H165       -1.7796  -17.8826  -40.9139 H         1 UNK         0.0600 
    166 H166        0.6564  -16.2681  -39.9841 H         1 UNK         0.0600 
    167 H167       -0.9291  -16.2986  -39.2118 H         1 UNK         0.0600 
    168 H168        0.0655  -17.7459  -39.2336 H         1 UNK         0.0600 
    169 H169       -0.9455  -15.2257  -41.5716 H         1 UNK         0.3000 
    170 H170       -2.4874  -15.0253  -44.7638 H         1 UNK         0.0600 
    171 H171       -4.4387  -14.8198  -43.2181 H         1 UNK         0.0600 
    172 H172       -3.4653  -13.8612  -42.1077 H         1 UNK         0.0600 
    173 H173       -3.8381  -13.2473  -43.7189 H         1 UNK         0.0600 
    174 H174       -1.4409  -12.9111  -43.3741 H         1 UNK         0.3000 
    175 H175        0.8809  -12.3497  -43.1195 H         1 UNK         0.0600 
    176 H176        3.0626  -12.3060  -44.3584 H         1 UNK         0.0600 
    177 H177        2.8102  -13.8029  -43.4713 H         1 UNK         0.0600 
    178 H178        2.5996  -13.7760  -45.2113 H         1 UNK         0.0600 
    179 H179        0.9446  -12.0212  -46.0469 H         1 UNK         0.3000 
    180 H180       -1.9796  -10.9622  -46.5335 H         1 UNK         0.0600 
    181 H181       -1.9473   -8.4770  -46.9122 H         1 UNK         0.0600 
    182 H182       -2.3637   -8.9208  -45.2662 H         1 UNK         0.0600 
    183 H183       -0.7564   -8.3135  -45.6204 H         1 UNK         0.0600 
    184 H184       -0.4896  -11.2016  -48.1018 H         1 UNK         0.3000 
    185 H185        1.0909   -9.6880  -49.8085 H         1 UNK         0.0600 
    186 H186        3.5672  -10.0028  -50.0068 H         1 UNK         0.0600 
    187 H187        3.1614   -8.6443  -48.9716 H         1 UNK         0.0600 
    188 H188        3.6905  -10.1600  -48.2552 H         1 UNK         0.0600 
    189 H189        1.0842  -11.8817  -50.1809 H         1 UNK         0.3000 
    190 H190       -1.5594  -22.4000  -47.1302 H         1 UNK         0.3000 
    191 H191       -2.7505  -23.9104  -49.2018 H         1 UNK         0.0600 
    192 H192       -4.8639  -23.0130  -48.3644 H         1 UNK         0.0600 
    193 H193       -3.6471  -21.7531  -48.2574 H         1 UNK         0.0600 
    194 H194       -4.1489  -22.6154  -46.8090 H         1 UNK         0.0600 
    195 H195       -2.6387  -24.5163  -45.6773 H         1 UNK         0.3000 
    196 H196       -4.1569  -26.9368  -45.6994 H         1 UNK         0.0600 
    197 H197       -3.1537  -27.2542  -43.4365 H         1 UNK         0.0600 
    198 H198       -3.7456  -25.6120  -43.6418 H         1 UNK         0.0600 
    199 H199       -2.0183  -25.9446  -43.7392 H         1 UNK         0.0600 
    200 H200       -0.6941  -26.2624  -46.2068 H         1 UNK         0.3000 
    201 H201        0.1657  -28.9912  -46.2013 H         1 UNK         0.0600 
    202 H202        1.7079  -27.1234  -45.7156 H         1 UNK         0.0600 
    203 H203        1.5321  -26.5095  -47.3568 H         1 UNK         0.0600 
    204 H204        2.2879  -28.0694  -47.0773 H         1 UNK         0.0600 
    205 H205       -0.3046  -26.6860  -48.9765 H         1 UNK         0.3000 
    206 H206       -1.1445  -28.8251  -50.7540 H         1 UNK         0.0600 
    207 H207        1.2685  -29.3964  -50.7100 H         1 UNK         0.0600 
    208 H208        0.8843  -28.7015  -52.2687 H         1 UNK         0.0600 
    209 H209        1.7056  -27.7252  -51.0579 H         1 UNK         0.0600 
    210 H210       -0.5652  -25.3849  -50.2270 H         1 UNK         0.3000 
    211 H211       -0.7042  -24.6185  -52.9765 H         1 UNK         0.0600 
    212 H212       -1.2054  -22.8834  -50.5039 H         1 UNK         0.0600 
    213 H213       -0.7977  -22.3286  -52.1125 H         1 UNK         0.0600 
    214 H214        0.3811  -23.2415  -51.1866 H         1 UNK         0.0600 
    215 H215       -2.3009  -23.4213  -54.0825 H         1 UNK         0.3000 
    216 H216       -5.0248  -23.1882  -53.1266 H         1 UNK         0.0600 
    217 H217       -6.0106  -24.5752  -54.9625 H         1 UNK         0.0600 
    218 H218       -5.0664  -25.5717  -53.8690 H         1 UNK         0.0600 
    219 H219       -4.4030  -25.1162  -55.4368 H         1 UNK         0.0600 
    220 H220       -3.4818  -21.1774  -53.4832 H         1 UNK         0.3000 
    221 H221       -3.4969  -20.2359  -56.3213 H         1 UNK         0.0600 
    222 H222       -1.8921  -19.1624  -53.9548 H         1 UNK         0.0600 
    223 H223       -1.2948  -20.3516  -55.1097 H         1 UNK         0.0600 
    224 H224       -1.7091  -18.7328  -55.6443 H         1 UNK         0.0600 
    225 H225       -5.6243  -20.1083  -53.9703 H         1 UNK         0.3000 
    226 H226       -7.4282  -18.9473  -53.5032 H         1 UNK         0.0600 
    227 H227       -7.5153  -18.2946  -55.9533 H         1 UNK         0.0600 
    228 H228       -8.2604  -17.1176  -54.8889 H         1 UNK         0.0600 
    229 H229       -6.6687  -16.8002  -55.5541 H         1 UNK         0.0600 
    230 H230       -8.2332  -16.7351  -52.6767 H         1 UNK         0.3000 
    231 H231       -8.2852  -15.4009  -50.9185 H         1 UNK         0.0600 
    232 H232       -6.4565  -13.8216  -50.4494 H         1 UNK         0.0600 
    233 H233       -6.6538  -13.9665  -52.1836 H         1 UNK         0.0600 
    234 H234       -5.3120  -14.7777  -51.3878 H         1 UNK         0.0600 
    235 H235       -5.5811  -15.2400  -49.1742 H         1 UNK         0.3000 
    236 H236       -6.3138  -17.2698  -47.2877 H         1 UNK         0.0600 
    237 H237       -3.7685  -15.5757  -47.4750 H         1 UNK         0.0600 
    238 H238       -5.2418  -15.1399  -46.6127 H         1 UNK         0.0600 
    239 H239       -4.2910  -16.5124  -46.0767 H         1 UNK         0.0600 
    240 H240       -4.2612  -17.3434  -50.1057 H         1 UNK         0.3000 
    241 H241       -2.9482  -19.8769  -49.4013 H         1 UNK         0.0600 
    242 H242       -6.1615  -19.3524  -50.1509 H         1 UNK         0.3800 
    243 H243       -6.4024  -20.8005  -51.0912 H         1 UNK         0.3800 
    244 H244       -2.0090  -19.7161  -51.7335 H         1 UNK         0.0800 
    245 H245       -2.7908  -18.1667  -51.9291 H         1 UNK         0.0800 
    246 H246        0.2033  -19.5342  -51.9574 H         1 UNK         0.0800 
    247 H247        0.4931  -17.8532  -52.3349 H         1 UNK         0.0800 
@<TRIPOS>BOND
     1    1    2 1    
     2    1  127 1    
     3    1  128 1    
     4    1  129 1    
     5    2    3 2    
     6    2    4 am   BACKBONE|DICT|INTERRES
     7    4    5 1    
     8    4  130 1    
     9    5    6 1    
    10    5   65 1    
    11    5  131 1    
    12    6    7 1    
    13    6  132 1    
    14    6  133 1    
    15    7    8 1    
    16    8    9 1    
    17    8  134 1    
    18    8  135 1    
    19    9   10 ar   
    20    9   14 ar   
    21   10   11 ar   
    22   10  136 1    
    23   11   12 ar   
    24   11  126 1    
    25   12   13 ar   
    26   12  137 1    
    27   13   14 ar   
    28   13   15 1    
    29   14  138 1    
    30   15   16 1    
    31   15  139 1    
    32   15  140 1    
    33   16   17 1    
    34   17   18 1    
    35   17  141 1    
    36   17  142 1    
    37   18   19 1    
    38   18   67 1    
    39   18  143 1    
    40   19   20 am   BACKBONE|DICT|INTERRES
    41   19  144 1    
    42   20   21 2    
    43   20   22 1    
    44   22   23 1    
    45   22   24 1    
    46   22  145 1    
    47   23  146 1    
    48   23  147 1    
    49   23  148 1    
    50   24   25 am   BACKBONE|DICT|INTERRES
    51   24  149 1    
    52   25   26 2    
    53   25   27 1    
    54   27   28 1    
    55   27   29 1    
    56   27  150 1    
    57   28  151 1    
    58   28  152 1    
    59   28  153 1    
    60   29   30 am   BACKBONE|DICT|INTERRES
    61   29  154 1    
    62   30   31 2    
    63   30   32 1    
    64   32   33 1    
    65   32   34 1    
    66   32  155 1    
    67   33  156 1    
    68   33  157 1    
    69   33  158 1    
    70   34   35 am   BACKBONE|DICT|INTERRES
    71   34  159 1    
    72   35   36 2    
    73   35   37 1    
    74   37   38 1    
    75   37   39 1    
    76   37  160 1    
    77   38  161 1    
    78   38  162 1    
    79   38  163 1    
    80   39   40 am   BACKBONE|DICT|INTERRES
    81   39  164 1    
    82   40   41 2    
    83   40   42 1    
    84   42   43 1    
    85   42   44 1    
    86   42  165 1    
    87   43  166 1    
    88   43  167 1    
    89   43  168 1    
    90   44   45 am   BACKBONE|DICT|INTERRES
    91   44  169 1    
    92   45   46 2    
    93   45   47 1    
    94   47   48 1    
    95   47   49 1    
    96   47  170 1    
    97   48  171 1    
    98   48  172 1    
    99   48  173 1    
   100   49   50 am   BACKBONE|DICT|INTERRES
   101   49  174 1    
   102   50   51 2    
   103   50   52 1    
   104   52   53 1    
   105   52   54 1    
   106   52  175 1    
   107   53  176 1    
   108   53  177 1    
   109   53  178 1    
   110   54   55 am   BACKBONE|DICT|INTERRES
   111   54  179 1    
   112   55   56 2    
   113   55   57 1    
   114   57   58 1    
   115   57   59 1    
   116   57  180 1    
   117   58  181 1    
   118   58  182 1    
   119   58  183 1    
   120   59   60 am   BACKBONE|DICT|INTERRES
   121   59  184 1    
   122   60   61 2    
   123   60   62 1    
   124   62   63 1    
   125   62   64 1    
   126   62  185 1    
   127   63  186 1    
   128   63  187 1    
   129   63  188 1    
   130   64   65 am   BACKBONE|DICT|INTERRES
   131   64  189 1    
   132   65   66 2    
   133   67   68 2    
   134   67   69 am   BACKBONE|DICT|INTERRES
   135   69   70 1    
   136   69  190 1    
   137   70   71 1    
   138   70   72 1    
   139   70  191 1    
   140   71  192 1    
   141   71  193 1    
   142   71  194 1    
   143   72   73 2    
   144   72   74 am   BACKBONE|DICT|INTERRES
   145   74   75 1    
   146   74  195 1    
   147   75   76 1    
   148   75   77 1    
   149   75  196 1    
   150   76  197 1    
   151   76  198 1    
   152   76  199 1    
   153   77   78 2    
   154   77   79 am   BACKBONE|DICT|INTERRES
   155   79   80 1    
   156   79  200 1    
   157   80   81 1    
   158   80   82 1    
   159   80  201 1    
   160   81  202 1    
   161   81  203 1    
   162   81  204 1    
   163   82   83 2    
   164   82   84 am   BACKBONE|DICT|INTERRES
   165   84   85 1    
   166   84  205 1    
   167   85   86 1    
   168   85   87 1    
   169   85  206 1    
   170   86  207 1    
   171   86  208 1    
   172   86  209 1    
   173   87   88 2    
   174   87   89 am   BACKBONE|DICT|INTERRES
   175   89   90 1    
   176   89  210 1    
   177   90   91 1    
   178   90   92 1    
   179   90  211 1    
   180   91  212 1    
   181   91  213 1    
   182   91  214 1    
   183   92   93 2    
   184   92   94 am   BACKBONE|DICT|INTERRES
   185   94   95 1    
   186   94  215 1    
   187   95   96 1    
   188   95   97 1    
   189   95  216 1    
   190   96  217 1    
   191   96  218 1    
   192   96  219 1    
   193   97   98 2    
   194   97   99 am   BACKBONE|DICT|INTERRES
   195   99  100 1    
   196   99  220 1    
   197  100  101 1    
   198  100  102 1    
   199  100  221 1    
   200  101  222 1    
   201  101  223 1    
   202  101  224 1    
   203  102  103 2    
   204  102  104 am   BACKBONE|DICT|INTERRES
   205  104  105 1    
   206  104  225 1    
   207  105  106 1    
   208  105  107 1    
   209  105  226 1    
   210  106  227 1    
   211  106  228 1    
   212  106  229 1    
   213  107  108 2    
   214  107  109 am   BACKBONE|DICT|INTERRES
   215  109  110 1    
   216  109  230 1    
   217  110  111 1    
   218  110  112 1    
   219  110  231 1    
   220  111  232 1    
   221  111  233 1    
   222  111  234 1    
   223  112  113 2    
   224  112  114 am   BACKBONE|DICT|INTERRES
   225  114  115 1    
   226  114  235 1    
   227  115  116 1    
   228  115  117 1    
   229  115  236 1    
   230  116  237 1    
   231  116  238 1    
   232  116  239 1    
   233  117  118 2    
   234  117  119 am   BACKBONE|DICT|INTERRES
   235  119  120 1    
   236  119  240 1    
   237  120  121 1    
   238  120  124 1    
   239  120  241 1    
   240  121  122 am   BACKBONE|DICT|INTERRES
   241  121  123 2    
   242  122  242 1    
   243  122  243 1    
   244  124  125 1    
   245  124  244 1    
   246  124  245 1    
   247  125  126 1    
   248  126  246 1    
   249  126  247 1    
@<TRIPOS>SUBSTRUCTURE
     1 UNK         1 GROUP             0       ****    0 ROOT    
