@<TRIPOS>MOLECULE
3R540
247   249    1
SMALL
USER_CHARGES


@<TRIPOS>ATOM
      1 CA          2.3693  -14.8519  -53.6864 C.3       0 UNK        -0.1800 
      2 C           2.0725  -15.4076  -52.3013 C.2       0 UNK         0.5000 
      3 O           2.9871  -15.8508  -51.6064 O.2       0 UNK        -0.5000 
      4 N           0.7982  -15.3747  -51.8899 N.am      1 UNK        -0.5000 
      5 CA          0.3187  -15.8901  -50.6017 C.3       1 UNK         0.1400 
      6 C6         -1.2139  -16.1000  -50.5903 C.3       23 UNK        -0.0398 
      7 S7         -2.2095  -14.6116  -50.9720 S.3       23 UNK        -0.2404 
      8 C8         -2.6030  -13.9210  -49.3310 C.3       23 UNK        -0.0205 
      9 C9         -3.5333  -14.7958  -48.4992 C.ar      23 UNK        -0.0193 
     10 C10        -4.9200  -14.6174  -48.5539 C.ar      23 UNK        -0.1150 
     11 C11        -5.7623  -15.3334  -47.6953 C.ar      23 UNK        -0.0193 
     12 C12        -5.2087  -16.2711  -46.8159 C.ar      23 UNK        -0.1150 
     13 C13        -3.8264  -16.4740  -46.7628 C.ar      23 UNK        -0.0193 
     14 C14        -2.9981  -15.7188  -47.5976 C.ar      23 UNK        -0.1150 
     15 C15        -3.2334  -17.4251  -45.7281 C.3       23 UNK        -0.0205 
     16 S16        -1.8124  -18.3981  -46.3404 S.3       23 UNK        -0.2404 
     17 C17        -2.5978  -19.9847  -46.7677 C.3       23 UNK        -0.0398 
     18 CA         -1.6081  -21.1789  -46.7583 C.3       11 UNK         0.1400 
     19 N          -0.8447  -21.3159  -45.5131 N.am      11 UNK        -0.5000 
     20 C           0.1768  -22.1732  -45.3464 C.2       10 UNK         0.5000 
     21 O           0.6066  -22.8985  -46.2409 O.2       10 UNK        -0.5000 
     22 CA          0.8108  -22.2771  -43.9484 C.3       10 UNK         0.1400 
     23 CB          2.0261  -21.3432  -43.8486 C.3       10 UNK        -0.1800 
     24 N          -0.1239  -21.9810  -42.8658 N.am      10 UNK        -0.5000 
     25 C          -1.2394  -22.6722  -42.5862 C.2       9 UNK         0.5000 
     26 O          -1.5693  -23.7007  -43.1797 O.2       9 UNK        -0.5000 
     27 CA         -2.1720  -22.0802  -41.5051 C.3       9 UNK         0.1400 
     28 CB         -1.8722  -22.7071  -40.1360 C.3       9 UNK        -0.1800 
     29 N          -2.0778  -20.6191  -41.3957 N.am      9 UNK        -0.5000 
     30 C          -2.3360  -19.7671  -42.3971 C.2       8 UNK         0.5000 
     31 O          -2.8341  -20.1253  -43.4644 O.2       8 UNK        -0.5000 
     32 CA         -1.9303  -18.2872  -42.2267 C.3       8 UNK         0.1400 
     33 CB         -3.1706  -17.4226  -41.9546 C.3       8 UNK        -0.1800 
     34 N          -0.9004  -17.9559  -41.2304 N.am      8 UNK        -0.5000 
     35 C           0.2952  -18.5381  -41.0533 C.2       7 UNK         0.5000 
     36 O           0.6305  -19.6083  -41.5569 O.2       7 UNK        -0.5000 
     37 CA          1.3106  -17.7307  -40.2362 C.3       7 UNK         0.1400 
     38 CB          2.5507  -18.5465  -39.8246 C.3       7 UNK        -0.1800 
     39 N           1.7139  -16.6071  -41.0718 N.am      7 UNK        -0.5000 
     40 C           2.0411  -15.3851  -40.6366 C.2       6 UNK         0.5000 
     41 O           2.1112  -15.0832  -39.4445 O.2       6 UNK        -0.5000 
     42 CA          2.3243  -14.3075  -41.7065 C.3       6 UNK         0.1400 
     43 CB          3.8372  -14.1527  -41.9250 C.3       6 UNK        -0.1800 
     44 N           1.6905  -14.5724  -43.0001 N.am      6 UNK        -0.5000 
     45 C           0.3705  -14.6426  -43.2219 C.2       5 UNK         0.5000 
     46 O          -0.4795  -14.4094  -42.3620 O.2       5 UNK        -0.5000 
     47 CA         -0.0827  -15.0701  -44.6320 C.3       5 UNK         0.1400 
     48 CB         -0.4938  -13.8331  -45.4443 C.3       5 UNK        -0.1800 
     49 N           0.8991  -15.8441  -45.4012 N.am      5 UNK        -0.5000 
     50 C           1.4809  -16.9934  -45.0248 C.2       4 UNK         0.5000 
     51 O           1.3093  -17.5138  -43.9244 O.2       4 UNK        -0.5000 
     52 CA          2.4485  -17.6512  -46.0244 C.3       4 UNK         0.1400 
     53 CB          1.7162  -18.6621  -46.9200 C.3       4 UNK        -0.1800 
     54 N           3.1176  -16.6615  -46.8677 N.am      4 UNK        -0.5000 
     55 C           4.2380  -16.0079  -46.5321 C.2       3 UNK         0.5000 
     56 O           4.8497  -16.1950  -45.4801 O.2       3 UNK        -0.5000 
     57 CA          4.7608  -14.9626  -47.5375 C.3       3 UNK         0.1400 
     58 CB          5.7062  -15.6193  -48.5547 C.3       3 UNK        -0.1800 
     59 N           3.6851  -14.2807  -48.2581 N.am      3 UNK        -0.5000 
     60 C           2.8487  -13.3916  -47.7042 C.2       2 UNK         0.5000 
     61 O           2.9426  -12.9995  -46.5411 O.2       2 UNK        -0.5000 
     62 CA          1.6924  -12.8762  -48.5854 C.3       2 UNK         0.1400 
     63 CB          2.0818  -11.5547  -49.2638 C.3       2 UNK        -0.1800 
     64 N           1.2425  -13.8225  -49.6111 N.am      2 UNK        -0.5000 
     65 C           0.7825  -15.0620  -49.3852 C.2       1 UNK         0.5000 
     66 O           0.7221  -15.5641  -48.2641 O.2       1 UNK        -0.5000 
     67 C          -2.3609  -22.4856  -47.0596 C.2       11 UNK         0.5000 
     68 O          -2.2316  -23.0233  -48.1582 O.2       11 UNK        -0.5000 
     69 N          -3.0929  -22.9928  -46.0571 N.am      12 UNK        -0.5000 
     70 CA         -3.8519  -24.2413  -46.1241 C.3       12 UNK         0.1400 
     71 CB         -4.7106  -24.3889  -44.8592 C.3       12 UNK        -0.1800 
     72 C          -2.9489  -25.4698  -46.3254 C.2       12 UNK         0.5000 
     73 O          -3.2609  -26.3189  -47.1613 O.2       12 UNK        -0.5000 
     74 N          -1.8203  -25.5113  -45.6015 N.am      13 UNK        -0.5000 
     75 CA         -0.7931  -26.5507  -45.7190 C.3       13 UNK         0.1400 
     76 CB          0.2719  -26.3367  -44.6341 C.3       13 UNK        -0.1800 
     77 C          -0.1385  -26.6071  -47.1145 C.2       13 UNK         0.5000 
     78 O           0.2014  -27.6933  -47.5836 O.2       13 UNK        -0.5000 
     79 N          -0.0121  -25.4433  -47.7641 N.am      14 UNK        -0.5000 
     80 CA          0.5054  -25.2730  -49.1206 C.3       14 UNK         0.1400 
     81 CB          1.2822  -23.9471  -49.1837 C.3       14 UNK        -0.1800 
     82 C          -0.5955  -25.3407  -50.2014 C.2       14 UNK         0.5000 
     83 O          -0.3649  -24.8672  -51.3139 O.2       14 UNK        -0.5000 
     84 N          -1.7685  -25.9069  -49.8745 N.am      15 UNK        -0.5000 
     85 CA         -2.9223  -26.1181  -50.7590 C.3       15 UNK         0.1400 
     86 CB         -2.5848  -27.1498  -51.8563 C.3       15 UNK        -0.1800 
     87 C          -3.4804  -24.7961  -51.3249 C.2       15 UNK         0.5000 
     88 O          -3.6046  -24.6359  -52.5405 O.2       15 UNK        -0.5000 
     89 N          -3.7642  -23.8620  -50.4074 N.am      16 UNK        -0.5000 
     90 CA         -4.1620  -22.4706  -50.6398 C.3       16 UNK         0.1400 
     91 CB         -5.5009  -22.3768  -51.4026 C.3       16 UNK        -0.1800 
     92 C          -3.0311  -21.6538  -51.2932 C.2       16 UNK         0.5000 
     93 O          -3.2999  -20.8227  -52.1571 O.2       16 UNK        -0.5000 
     94 N          -1.7831  -21.9056  -50.8700 N.am      17 UNK        -0.5000 
     95 CA         -0.5419  -21.3293  -51.4057 C.3       17 UNK         0.1400 
     96 CB         -0.4284  -19.8400  -51.0164 C.3       17 UNK        -0.1800 
     97 C          -0.3917  -21.5746  -52.9245 C.2       17 UNK         0.5000 
     98 O          -0.0931  -20.6394  -53.6686 O.2       17 UNK        -0.5000 
     99 N          -0.6665  -22.8262  -53.3260 N.am      18 UNK        -0.5000 
    100 CA        -0.7399  -23.4320  -54.6639 C.3       18 UNK         0.1400 
    101 CB         0.3667  -24.4982  -54.7667 C.3       18 UNK        -0.1800 
    102 C         -0.7427  -22.4718  -55.8811 C.2       18 UNK         0.5000 
    103 O          0.2570  -22.4062  -56.5971 O.2       18 UNK        -0.5000 
    104 N         -1.8193  -21.7191  -56.1453 N.am      19 UNK        -0.5000 
    105 CA        -3.0643  -21.6005  -55.3863 C.3       19 UNK         0.1400 
    106 CB        -4.1602  -22.4436  -56.0622 C.3       19 UNK        -0.1800 
    107 C         -3.4151  -20.1037  -55.2851 C.2       19 UNK         0.5000 
    108 O         -4.4802  -19.6778  -55.7346 O.2       19 UNK        -0.5000 
    109 N         -2.4615  -19.3190  -54.7665 N.am      20 UNK        -0.5000 
    110 CA        -2.5181  -17.8600  -54.6936 C.3       20 UNK         0.1400 
    111 CB        -1.0910  -17.3263  -54.4829 C.3       20 UNK        -0.1800 
    112 C         -3.4583  -17.3008  -53.6076 C.2       20 UNK         0.5000 
    113 O         -3.9177  -16.1671  -53.7545 O.2       20 UNK        -0.5000 
    114 N         -3.6993  -18.0611  -52.5307 N.am      21 UNK        -0.5000 
    115 CA        -4.5009  -17.6290  -51.3841 C.3       21 UNK         0.1400 
    116 CB        -4.0989  -18.4321  -50.1336 C.3       21 UNK        -0.1800 
    117 C         -6.0110  -17.7461  -51.6466 C.2       21 UNK         0.5000 
    118 O         -6.4419  -18.3087  -52.6558 O.2       21 UNK        -0.5000 
    119 N         -6.7898  -17.2147  -50.7000 N.am      22 UNK        -0.5000 
    120 CA        -8.2588  -17.2141  -50.7093 C.3       22 UNK         0.1400 
    121 C         -8.9404  -18.6025  -50.5083 C.2       22 UNK         0.5000 
    122 N         -8.2272  -19.6440  -50.0968 N.am      22 UNK        -0.7600 
    123 O        -10.1389  -18.7363  -50.7410 O.2       22 UNK        -0.5000 
    124 C124       -8.8109  -16.1502  -49.7291 C.3       23 UNK        -0.0398 
    125 S125       -8.3270  -16.4320  -47.9859 S.3       23 UNK        -0.2404 
    126 C126       -7.2501  -15.0071  -47.6219 C.3       23 UNK        -0.0205 
    127 H127        3.0670  -14.0176  -53.6147 H         1 UNK         0.0600 
    128 H128        1.4655  -14.4992  -54.1839 H         1 UNK         0.0600 
    129 H129        2.8209  -15.6234  -54.3100 H         1 UNK         0.0600 
    130 H130        0.0888  -14.9738  -52.4874 H         1 UNK         0.3000 
    131 H131        0.7689  -16.8767  -50.4703 H         1 UNK         0.0600 
    132 H132       -1.4608  -16.8412  -51.3482 H         1 UNK         0.0800 
    133 H133       -1.5347  -16.5510  -49.6535 H         1 UNK         0.0800 
    134 H134       -3.0652  -12.9438  -49.4770 H         1 UNK         0.0800 
    135 H135       -1.6821  -13.7261  -48.7819 H         1 UNK         0.0800 
    136 H136       -5.3353  -13.8750  -49.2210 H         1 UNK         0.1150 
    137 H137       -5.8563  -16.8099  -46.1383 H         1 UNK         0.1150 
    138 H138       -1.9262  -15.8325  -47.5247 H         1 UNK         0.1150 
    139 H139       -2.9020  -16.8231  -44.8841 H         1 UNK         0.0800 
    140 H140       -3.9993  -18.0927  -45.3317 H         1 UNK         0.0800 
    141 H141       -3.0526  -19.8774  -47.7535 H         1 UNK         0.0800 
    142 H142       -3.4180  -20.1664  -46.0718 H         1 UNK         0.0800 
    143 H143       -0.8888  -21.0199  -47.5650 H         1 UNK         0.0600 
    144 H144       -1.1721  -20.7696  -44.7263 H         1 UNK         0.3000 
    145 H145        1.1580  -23.3022  -43.8130 H         1 UNK         0.0600 
    146 H146        2.5249  -21.4453  -42.8847 H         1 UNK         0.0600 
    147 H147        2.7603  -21.5707  -44.6225 H         1 UNK         0.0600 
    148 H148        1.7389  -20.2977  -43.9660 H         1 UNK         0.0600 
    149 H149        0.0750  -21.1361  -42.3311 H         1 UNK         0.3000 
    150 H150       -3.1976  -22.3308  -41.7833 H         1 UNK         0.0600 
    151 H151       -1.9548  -23.7940  -40.1780 H         1 UNK         0.0600 
    152 H152       -2.5745  -22.3575  -39.3792 H         1 UNK         0.0600 
    153 H153       -0.8637  -22.4668  -39.7967 H         1 UNK         0.0600 
    154 H154       -1.6381  -20.2530  -40.5643 H         1 UNK         0.3000 
    155 H155       -1.5158  -17.9832  -43.1894 H         1 UNK         0.0600 
    156 H156       -3.9635  -17.6269  -42.6755 H         1 UNK         0.0600 
    157 H157       -2.9347  -16.3606  -42.0284 H         1 UNK         0.0600 
    158 H158       -3.5771  -17.6098  -40.9601 H         1 UNK         0.0600 
    159 H159       -1.0449  -17.0742  -40.7594 H         1 UNK         0.3000 
    160 H160        0.8071  -17.3735  -39.3354 H         1 UNK         0.0600 
    161 H161        3.1049  -18.9027  -40.6940 H         1 UNK         0.0600 
    162 H162        2.2655  -19.4182  -39.2345 H         1 UNK         0.0600 
    163 H163        3.2308  -17.9495  -39.2170 H         1 UNK         0.0600 
    164 H164        1.6478  -16.7750  -42.0729 H         1 UNK         0.3000 
    165 H165        1.9314  -13.3611  -41.3298 H         1 UNK         0.0600 
    166 H166        4.0552  -13.3375  -42.6153 H         1 UNK         0.0600 
    167 H167        4.3478  -13.9291  -40.9874 H         1 UNK         0.0600 
    168 H168        4.2790  -15.0637  -42.3314 H         1 UNK         0.0600 
    169 H169        2.3074  -14.7782  -43.7727 H         1 UNK         0.3000 
    170 H170       -0.9581  -15.7065  -44.5064 H         1 UNK         0.0600 
    171 H171       -0.8314  -14.1018  -46.4434 H         1 UNK         0.0600 
    172 H172       -1.3128  -13.3018  -44.9580 H         1 UNK         0.0600 
    173 H173        0.3348  -13.1324  -45.5483 H         1 UNK         0.0600 
    174 H174        1.0456  -15.5447  -46.3598 H         1 UNK         0.3000 
    175 H175        3.1957  -18.1994  -45.4466 H         1 UNK         0.0600 
    176 H176        0.9737  -18.1785  -47.5552 H         1 UNK         0.0600 
    177 H177        2.4137  -19.1943  -47.5666 H         1 UNK         0.0600 
    178 H178        1.1967  -19.4087  -46.3196 H         1 UNK         0.0600 
    179 H179        2.6339  -16.3974  -47.7158 H         1 UNK         0.3000 
    180 H180        5.3278  -14.2161  -46.9771 H         1 UNK         0.0600 
    181 H181        5.1880  -16.3581  -49.1677 H         1 UNK         0.0600 
    182 H182        6.5296  -16.1280  -48.0515 H         1 UNK         0.0600 
    183 H183        6.1434  -14.8770  -49.2227 H         1 UNK         0.0600 
    184 H184        3.5365  -14.5495  -49.2210 H         1 UNK         0.3000 
    185 H185        0.8434  -12.6826  -47.9278 H         1 UNK         0.0600 
    186 H186        1.2400  -11.1277  -49.8093 H         1 UNK         0.0600 
    187 H187        2.3981  -10.8150  -48.5271 H         1 UNK         0.0600 
    188 H188        2.9045  -11.6911  -49.9668 H         1 UNK         0.0600 
    189 H189        1.2596  -13.4947  -50.5655 H         1 UNK         0.3000 
    190 H190       -3.0967  -22.5097  -45.1697 H         1 UNK         0.3000 
    191 H191       -4.5223  -24.1779  -46.9839 H         1 UNK         0.0600 
    192 H192       -5.4033  -23.5538  -44.7535 H         1 UNK         0.0600 
    193 H193       -5.3062  -25.3019  -44.8970 H         1 UNK         0.0600 
    194 H194       -4.0996  -24.4333  -43.9571 H         1 UNK         0.0600 
    195 H195       -1.6610  -24.7867  -44.9084 H         1 UNK         0.3000 
    196 H196       -1.2758  -27.5135  -45.5394 H         1 UNK         0.0600 
    197 H197        1.0024  -27.1465  -44.6404 H         1 UNK         0.0600 
    198 H198       -0.1739  -26.3067  -43.6396 H         1 UNK         0.0600 
    199 H199        0.8157  -25.4051  -44.7879 H         1 UNK         0.0600 
    200 H200       -0.2854  -24.5911  -47.2881 H         1 UNK         0.3000 
    201 H201        1.2092  -26.0776  -49.3421 H         1 UNK         0.0600 
    202 H202        2.0919  -23.9334  -48.4540 H         1 UNK         0.0600 
    203 H203        0.6336  -23.0966  -48.9728 H         1 UNK         0.0600 
    204 H204        1.7328  -23.7922  -50.1646 H         1 UNK         0.0600 
    205 H205       -1.8945  -26.2162  -48.9186 H         1 UNK         0.3000 
    206 H206       -3.7116  -26.5454  -50.1387 H         1 UNK         0.0600 
    207 H207       -2.2223  -28.0816  -51.4224 H         1 UNK         0.0600 
    208 H208       -3.4680  -27.3899  -52.4492 H         1 UNK         0.0600 
    209 H209       -1.8223  -26.7809  -52.5432 H         1 UNK         0.0600 
    210 H210       -3.5137  -24.0667  -49.4472 H         1 UNK         0.3000 
    211 H211       -4.3210  -22.0304  -49.6548 H         1 UNK         0.0600 
    212 H212       -5.4093  -22.7218  -52.4327 H         1 UNK         0.0600 
    213 H213       -5.8563  -21.3462  -51.4405 H         1 UNK         0.0600 
    214 H214       -6.2754  -22.9694  -50.9161 H         1 UNK         0.0600 
    215 H215       -1.6784  -22.5855  -50.1257 H         1 UNK         0.3000 
    216 H216        0.2840  -21.8569  -50.9310 H         1 UNK         0.0600 
    217 H217        0.5435  -19.4351  -51.3005 H         1 UNK         0.0600 
    218 H218       -1.1888  -19.2377  -51.5117 H         1 UNK         0.0600 
    219 H219       -0.5369  -19.7013  -49.9405 H         1 UNK         0.0600 
    220 H220       -0.8509  -23.4916  -52.5796 H         1 UNK         0.3000 
    221 H221       -1.6881  -23.9703  -54.6985 H         1 UNK         0.0600 
    222 H222        1.3575  -24.0577  -54.6493 H         1 UNK         0.0600 
    223 H223        0.2489  -25.2638  -53.9995 H         1 UNK         0.0600 
    224 H224        0.3404  -25.0044  -55.7324 H         1 UNK         0.0600 
    225 H225       -1.7579  -21.0847  -56.9286 H         1 UNK         0.3000 
    226 H226       -2.9473  -21.9711  -54.3713 H         1 UNK         0.0600 
    227 H227       -3.8858  -23.4982  -56.0889 H         1 UNK         0.0600 
    228 H228       -5.1006  -22.3684  -55.5147 H         1 UNK         0.0600 
    229 H229       -4.3454  -22.1188  -57.0867 H         1 UNK         0.0600 
    230 H230       -1.6108  -19.7560  -54.4201 H         1 UNK         0.3000 
    231 H231       -2.8775  -17.4869  -55.6549 H         1 UNK         0.0600 
    232 H232       -0.6516  -17.7061  -53.5598 H         1 UNK         0.0600 
    233 H233       -1.0815  -16.2370  -54.4289 H         1 UNK         0.0600 
    234 H234       -0.4368  -17.6160  -55.3055 H         1 UNK         0.0600 
    235 H235       -3.3911  -19.0313  -52.5244 H         1 UNK         0.3000 
    236 H236       -4.2853  -16.5780  -51.1890 H         1 UNK         0.0600 
    237 H237       -3.0174  -18.4952  -50.0221 H         1 UNK         0.0600 
    238 H238       -4.4846  -17.9626  -49.2289 H         1 UNK         0.0600 
    239 H239       -4.4964  -19.4452  -50.1605 H         1 UNK         0.0600 
    240 H240       -6.3631  -16.7965  -49.8856 H         1 UNK         0.3000 
    241 H241       -8.5585  -16.8984  -51.7105 H         1 UNK         0.0600 
    242 H242       -7.2478  -19.5415  -49.8933 H         1 UNK         0.3800 
    243 H243       -8.6794  -20.5360  -49.9744 H         1 UNK         0.3800 
    244 H244       -9.9006  -16.1166  -49.7789 H         1 UNK         0.0800 
    245 H245       -8.4809  -15.1618  -50.0498 H         1 UNK         0.0800 
    246 H246       -7.4689  -14.6738  -46.6065 H         1 UNK         0.0800 
    247 H247       -7.5012  -14.1628  -48.2649 H         1 UNK         0.0800 
@<TRIPOS>BOND
     1    1    2 1    
     2    1  127 1    
     3    1  128 1    
     4    1  129 1    
     5    2    3 2    
     6    2    4 am   BACKBONE|DICT|INTERRES
     7    4    5 1    
     8    4  130 1    
     9    5    6 1    
    10    5   65 1    
    11    5  131 1    
    12    6    7 1    
    13    6  132 1    
    14    6  133 1    
    15    7    8 1    
    16    8    9 1    
    17    8  134 1    
    18    8  135 1    
    19    9   10 ar   
    20    9   14 ar   
    21   10   11 ar   
    22   10  136 1    
    23   11   12 ar   
    24   11  126 1    
    25   12   13 ar   
    26   12  137 1    
    27   13   14 ar   
    28   13   15 1    
    29   14  138 1    
    30   15   16 1    
    31   15  139 1    
    32   15  140 1    
    33   16   17 1    
    34   17   18 1    
    35   17  141 1    
    36   17  142 1    
    37   18   19 1    
    38   18   67 1    
    39   18  143 1    
    40   19   20 am   BACKBONE|DICT|INTERRES
    41   19  144 1    
    42   20   21 2    
    43   20   22 1    
    44   22   23 1    
    45   22   24 1    
    46   22  145 1    
    47   23  146 1    
    48   23  147 1    
    49   23  148 1    
    50   24   25 am   BACKBONE|DICT|INTERRES
    51   24  149 1    
    52   25   26 2    
    53   25   27 1    
    54   27   28 1    
    55   27   29 1    
    56   27  150 1    
    57   28  151 1    
    58   28  152 1    
    59   28  153 1    
    60   29   30 am   BACKBONE|DICT|INTERRES
    61   29  154 1    
    62   30   31 2    
    63   30   32 1    
    64   32   33 1    
    65   32   34 1    
    66   32  155 1    
    67   33  156 1    
    68   33  157 1    
    69   33  158 1    
    70   34   35 am   BACKBONE|DICT|INTERRES
    71   34  159 1    
    72   35   36 2    
    73   35   37 1    
    74   37   38 1    
    75   37   39 1    
    76   37  160 1    
    77   38  161 1    
    78   38  162 1    
    79   38  163 1    
    80   39   40 am   BACKBONE|DICT|INTERRES
    81   39  164 1    
    82   40   41 2    
    83   40   42 1    
    84   42   43 1    
    85   42   44 1    
    86   42  165 1    
    87   43  166 1    
    88   43  167 1    
    89   43  168 1    
    90   44   45 am   BACKBONE|DICT|INTERRES
    91   44  169 1    
    92   45   46 2    
    93   45   47 1    
    94   47   48 1    
    95   47   49 1    
    96   47  170 1    
    97   48  171 1    
    98   48  172 1    
    99   48  173 1    
   100   49   50 am   BACKBONE|DICT|INTERRES
   101   49  174 1    
   102   50   51 2    
   103   50   52 1    
   104   52   53 1    
   105   52   54 1    
   106   52  175 1    
   107   53  176 1    
   108   53  177 1    
   109   53  178 1    
   110   54   55 am   BACKBONE|DICT|INTERRES
   111   54  179 1    
   112   55   56 2    
   113   55   57 1    
   114   57   58 1    
   115   57   59 1    
   116   57  180 1    
   117   58  181 1    
   118   58  182 1    
   119   58  183 1    
   120   59   60 am   BACKBONE|DICT|INTERRES
   121   59  184 1    
   122   60   61 2    
   123   60   62 1    
   124   62   63 1    
   125   62   64 1    
   126   62  185 1    
   127   63  186 1    
   128   63  187 1    
   129   63  188 1    
   130   64   65 am   BACKBONE|DICT|INTERRES
   131   64  189 1    
   132   65   66 2    
   133   67   68 2    
   134   67   69 am   BACKBONE|DICT|INTERRES
   135   69   70 1    
   136   69  190 1    
   137   70   71 1    
   138   70   72 1    
   139   70  191 1    
   140   71  192 1    
   141   71  193 1    
   142   71  194 1    
   143   72   73 2    
   144   72   74 am   BACKBONE|DICT|INTERRES
   145   74   75 1    
   146   74  195 1    
   147   75   76 1    
   148   75   77 1    
   149   75  196 1    
   150   76  197 1    
   151   76  198 1    
   152   76  199 1    
   153   77   78 2    
   154   77   79 am   BACKBONE|DICT|INTERRES
   155   79   80 1    
   156   79  200 1    
   157   80   81 1    
   158   80   82 1    
   159   80  201 1    
   160   81  202 1    
   161   81  203 1    
   162   81  204 1    
   163   82   83 2    
   164   82   84 am   BACKBONE|DICT|INTERRES
   165   84   85 1    
   166   84  205 1    
   167   85   86 1    
   168   85   87 1    
   169   85  206 1    
   170   86  207 1    
   171   86  208 1    
   172   86  209 1    
   173   87   88 2    
   174   87   89 am   BACKBONE|DICT|INTERRES
   175   89   90 1    
   176   89  210 1    
   177   90   91 1    
   178   90   92 1    
   179   90  211 1    
   180   91  212 1    
   181   91  213 1    
   182   91  214 1    
   183   92   93 2    
   184   92   94 am   BACKBONE|DICT|INTERRES
   185   94   95 1    
   186   94  215 1    
   187   95   96 1    
   188   95   97 1    
   189   95  216 1    
   190   96  217 1    
   191   96  218 1    
   192   96  219 1    
   193   97   98 2    
   194   97   99 am   BACKBONE|DICT|INTERRES
   195   99  100 1    
   196   99  220 1    
   197  100  101 1    
   198  100  102 1    
   199  100  221 1    
   200  101  222 1    
   201  101  223 1    
   202  101  224 1    
   203  102  103 2    
   204  102  104 am   BACKBONE|DICT|INTERRES
   205  104  105 1    
   206  104  225 1    
   207  105  106 1    
   208  105  107 1    
   209  105  226 1    
   210  106  227 1    
   211  106  228 1    
   212  106  229 1    
   213  107  108 2    
   214  107  109 am   BACKBONE|DICT|INTERRES
   215  109  110 1    
   216  109  230 1    
   217  110  111 1    
   218  110  112 1    
   219  110  231 1    
   220  111  232 1    
   221  111  233 1    
   222  111  234 1    
   223  112  113 2    
   224  112  114 am   BACKBONE|DICT|INTERRES
   225  114  115 1    
   226  114  235 1    
   227  115  116 1    
   228  115  117 1    
   229  115  236 1    
   230  116  237 1    
   231  116  238 1    
   232  116  239 1    
   233  117  118 2    
   234  117  119 am   BACKBONE|DICT|INTERRES
   235  119  120 1    
   236  119  240 1    
   237  120  121 1    
   238  120  124 1    
   239  120  241 1    
   240  121  122 am   BACKBONE|DICT|INTERRES
   241  121  123 2    
   242  122  242 1    
   243  122  243 1    
   244  124  125 1    
   245  124  244 1    
   246  124  245 1    
   247  125  126 1    
   248  126  246 1    
   249  126  247 1    
@<TRIPOS>SUBSTRUCTURE
     1 UNK         1 GROUP             0       ****    0 ROOT    
