@<TRIPOS>MOLECULE
3R540
247   249    1
SMALL
USER_CHARGES


@<TRIPOS>ATOM
      1 CA         -4.8399  -15.7628  -44.7091 C.3       0 UNK        -0.1800 
      2 C          -3.5785  -14.9133  -44.7511 C.2       0 UNK         0.5000 
      3 O          -3.4829  -13.9114  -44.0422 O.2       0 UNK        -0.5000 
      4 N          -2.5877  -15.3270  -45.5515 N.am      1 UNK        -0.5000 
      5 CA         -1.3056  -14.6395  -45.7703 C.3       1 UNK         0.1400 
      6 C6         -0.6173  -15.0690  -47.0926 C.3       23 UNK        -0.0398 
      7 S7         -0.6181  -16.8661  -47.4304 S.3       23 UNK        -0.2404 
      8 C8         -0.8368  -16.8397  -49.2409 C.3       23 UNK        -0.0205 
      9 C9         -0.5829  -18.1768  -49.9321 C.ar      23 UNK        -0.0193 
     10 C10        -1.4298  -18.5874  -50.9678 C.ar      23 UNK        -0.1150 
     11 C11        -1.1371  -19.7304  -51.7173 C.ar      23 UNK        -0.0193 
     12 C12        -0.0067  -20.4881  -51.3997 C.ar      23 UNK        -0.1150 
     13 C13         0.8488  -20.0939  -50.3684 C.ar      23 UNK        -0.0193 
     14 C14         0.5515  -18.9412  -49.6335 C.ar      23 UNK        -0.1150 
     15 C15         2.1463  -20.8550  -50.1251 C.3       23 UNK        -0.0205 
     16 S16         1.8889  -22.4911  -49.3711 S.3       23 UNK        -0.2404 
     17 C17         1.3752  -22.0261  -47.6856 C.3       23 UNK        -0.0398 
     18 CA          0.1391  -22.7988  -47.1673 C.3       11 UNK         0.1400 
     19 N          -0.0925  -22.5247  -45.7477 N.am      11 UNK        -0.5000 
     20 C          -0.9010  -23.2306  -44.9445 C.2       10 UNK         0.5000 
     21 O          -1.5242  -24.2272  -45.3081 O.2       10 UNK        -0.5000 
     22 CA         -1.0800  -22.7075  -43.5045 C.3       10 UNK         0.1400 
     23 CB          0.0153  -23.2699  -42.5868 C.3       10 UNK        -0.1800 
     24 N          -1.0752  -21.2454  -43.4208 N.am      10 UNK        -0.5000 
     25 C          -1.9798  -20.4512  -44.0098 C.2       9 UNK         0.5000 
     26 O          -2.9600  -20.8761  -44.6171 O.2       9 UNK        -0.5000 
     27 CA         -1.7331  -18.9312  -43.9646 C.3       9 UNK         0.1400 
     28 CB         -2.5599  -18.3050  -42.8330 C.3       9 UNK        -0.1800 
     29 N          -0.3225  -18.5302  -43.8489 N.am      9 UNK        -0.5000 
     30 C           0.6501  -18.8916  -44.7012 C.2       8 UNK         0.5000 
     31 O           0.4666  -19.6724  -45.6338 O.2       8 UNK        -0.5000 
     32 CA          2.0619  -18.3133  -44.4961 C.3       8 UNK         0.1400 
     33 CB          2.4799  -17.4415  -45.6906 C.3       8 UNK        -0.1800 
     34 N           2.2301  -17.5262  -43.2760 N.am      8 UNK        -0.5000 
     35 C           2.4766  -18.0322  -42.0601 C.2       7 UNK         0.5000 
     36 O           2.3875  -19.2321  -41.7972 O.2       7 UNK        -0.5000 
     37 CA          2.8996  -17.0206  -40.9670 C.3       7 UNK         0.1400 
     38 CB          3.8110  -17.6514  -39.8944 C.3       7 UNK        -0.1800 
     39 N           3.5020  -15.7923  -41.5126 N.am      7 UNK        -0.5000 
     40 C           4.6239  -15.6887  -42.2466 C.2       6 UNK         0.5000 
     41 O           5.3669  -16.6357  -42.5043 O.2       6 UNK        -0.5000 
     42 CA          4.9467  -14.3036  -42.8408 C.3       6 UNK         0.1400 
     43 CB          4.6636  -14.2991  -44.3524 C.3       6 UNK        -0.1800 
     44 N           4.1742  -13.2216  -42.2304 N.am      6 UNK        -0.5000 
     45 C           4.4864  -12.5952  -41.0880 C.2       5 UNK         0.5000 
     46 O           5.4751  -12.8771  -40.4096 O.2       5 UNK        -0.5000 
     47 CA          3.5138  -11.4959  -40.6099 C.3       5 UNK         0.1400 
     48 CB          4.2365  -10.2872  -39.9793 C.3       5 UNK        -0.1800 
     49 N           2.5461  -11.0854  -41.6371 N.am      5 UNK        -0.5000 
     50 C           2.7613  -10.3592  -42.7472 C.2       4 UNK         0.5000 
     51 O           3.8514   -9.8676  -43.0391 O.2       4 UNK        -0.5000 
     52 CA          1.5766  -10.1825  -43.7255 C.3       4 UNK         0.1400 
     53 CB          1.9395  -10.7218  -45.1196 C.3       4 UNK        -0.1800 
     54 N           0.3519  -10.8509  -43.2800 N.am      4 UNK        -0.5000 
     55 C          -0.5010  -10.3767  -42.3604 C.2       3 UNK         0.5000 
     56 O          -0.3963   -9.2631  -41.8463 O.2       3 UNK        -0.5000 
     57 CA         -1.6388  -11.3174  -41.9075 C.3       3 UNK         0.1400 
     58 CB         -2.9578  -10.9279  -42.5912 C.3       3 UNK        -0.1800 
     59 N          -1.3767  -12.7403  -42.1552 N.am      3 UNK        -0.5000 
     60 C          -0.3677  -13.4497  -41.6228 C.2       2 UNK         0.5000 
     61 O           0.4506  -12.9803  -40.8326 O.2       2 UNK        -0.5000 
     62 CA         -0.1954  -14.9085  -42.0899 C.3       2 UNK         0.1400 
     63 CB         -0.7775  -15.8754  -41.0496 C.3       2 UNK        -0.1800 
     64 N          -0.7910  -15.1630  -43.4035 N.am      2 UNK        -0.5000 
     65 C          -0.3506  -14.6244  -44.5501 C.2       1 UNK         0.5000 
     66 O           0.7357  -14.0503  -44.6340 O.2       1 UNK        -0.5000 
     67 C          -1.1271  -22.5050  -47.9957 C.2       11 UNK         0.5000 
     68 O          -1.4890  -23.3114  -48.8545 O.2       11 UNK        -0.5000 
     69 N          -1.8027  -21.3893  -47.6815 N.am      12 UNK        -0.5000 
     70 CA         -3.0756  -21.0031  -48.2863 C.3       12 UNK         0.1400 
     71 CB         -3.4350  -19.5638  -47.8906 C.3       12 UNK        -0.1800 
     72 C          -4.2164  -21.9616  -47.9074 C.2       12 UNK         0.5000 
     73 O          -5.0018  -22.3253  -48.7810 O.2       12 UNK        -0.5000 
     74 N          -4.2803  -22.3585  -46.6287 N.am      13 UNK        -0.5000 
     75 CA         -5.2809  -23.2761  -46.0807 C.3       13 UNK         0.1400 
     76 CB         -5.1849  -23.2883  -44.5477 C.3       13 UNK        -0.1800 
     77 C          -5.1584  -24.7022  -46.6432 C.2       13 UNK         0.5000 
     78 O          -6.1758  -25.3104  -46.9777 O.2       13 UNK        -0.5000 
     79 N          -3.9192  -25.1999  -46.7650 N.am      14 UNK        -0.5000 
     80 CA         -3.6072  -26.4696  -47.4264 C.3       14 UNK         0.1400 
     81 CB         -2.1672  -26.8775  -47.0784 C.3       14 UNK        -0.1800 
     82 C          -3.7783  -26.3979  -48.9562 C.2       14 UNK         0.5000 
     83 O          -4.0119  -27.4280  -49.5891 O.2       14 UNK        -0.5000 
     84 N          -3.6373  -25.1837  -49.5066 N.am      15 UNK        -0.5000 
     85 CA         -3.6174  -24.8238  -50.9230 C.3       15 UNK         0.1400 
     86 CB         -5.0050  -25.0105  -51.5673 C.3       15 UNK        -0.1800 
     87 C          -2.4822  -25.5390  -51.6743 C.2       15 UNK         0.5000 
     88 O          -2.7010  -26.1036  -52.7464 O.2       15 UNK        -0.5000 
     89 N          -1.2842  -25.5179  -51.0735 N.am      16 UNK        -0.5000 
     90 CA         -0.1171  -26.2923  -51.5044 C.3       16 UNK         0.1400 
     91 CB          0.9810  -26.1818  -50.4379 C.3       16 UNK        -0.1800 
     92 C           0.4247  -25.9060  -52.8945 C.2       16 UNK         0.5000 
     93 O           0.9867  -26.7601  -53.5811 O.2       16 UNK        -0.5000 
     94 N           0.2273  -24.6428  -53.2952 N.am      17 UNK        -0.5000 
     95 CA          0.5691  -24.1403  -54.6283 C.3       17 UNK         0.1400 
     96 CB          0.8077  -22.6260  -54.5428 C.3       17 UNK        -0.1800 
     97 C          -0.5109  -24.4525  -55.6851 C.2       17 UNK         0.5000 
     98 O          -0.2311  -24.3239  -56.8773 O.2       17 UNK        -0.5000 
     99 N          -1.7193  -24.8323  -55.2369 N.am      18 UNK        -0.5000 
    100 CA        -2.9164  -25.1472  -56.0279 C.3       18 UNK         0.1400 
    101 CB        -2.7027  -26.4445  -56.8349 C.3       18 UNK        -0.1800 
    102 C         -3.4244  -23.9764  -56.9005 C.2       18 UNK         0.5000 
    103 O         -4.0666  -24.2076  -57.9271 O.2       18 UNK        -0.5000 
    104 N         -3.1286  -22.7400  -56.4822 N.am      19 UNK        -0.5000 
    105 CA        -3.5162  -21.5121  -57.1697 C.3       19 UNK         0.1400 
    106 CB        -2.4403  -20.4464  -56.9067 C.3       19 UNK        -0.1800 
    107 C         -4.8827  -21.0133  -56.6756 C.2       19 UNK         0.5000 
    108 O         -5.2775  -21.3005  -55.5435 O.2       19 UNK        -0.5000 
    109 N         -5.5482  -20.1992  -57.5048 N.am      20 UNK        -0.5000 
    110 CA        -6.8109  -19.5240  -57.1787 C.3       20 UNK         0.1400 
    111 CB        -7.3742  -18.8797  -58.4548 C.3       20 UNK        -0.1800 
    112 C         -6.6798  -18.4733  -56.0542 C.2       20 UNK         0.5000 
    113 O         -7.6834  -18.1117  -55.4400 O.2       20 UNK        -0.5000 
    114 N         -5.4465  -18.0142  -55.8009 N.am      21 UNK        -0.5000 
    115 CA        -5.0813  -17.1085  -54.7127 C.3       21 UNK         0.1400 
    116 CB        -3.7061  -16.4992  -55.0313 C.3       21 UNK        -0.1800 
    117 C         -5.0571  -17.7827  -53.3247 C.2       21 UNK         0.5000 
    118 O         -5.0078  -17.0696  -52.3212 O.2       21 UNK        -0.5000 
    119 N         -5.0525  -19.1236  -53.2775 N.am      22 UNK        -0.5000 
    120 CA        -5.0682  -19.9091  -52.0334 C.3       22 UNK         0.1400 
    121 C         -6.4817  -19.9094  -51.3610 C.2       22 UNK         0.5000 
    122 N         -6.6654  -20.5869  -50.2358 N.am      22 UNK        -0.7600 
    123 O         -7.4391  -19.3095  -51.8459 O.2       22 UNK        -0.5000 
    124 C124       -4.5402  -21.3538  -52.2544 C.3       23 UNK        -0.0398 
    125 S125       -2.8400  -21.6422  -52.8958 S.3       23 UNK        -0.2404 
    126 C126       -1.9402  -20.0549  -52.9677 C.3       23 UNK        -0.0205 
    127 H127       -4.7533  -16.6484  -45.3394 H         1 UNK         0.0600 
    128 H128       -5.6946  -15.1807  -45.0533 H         1 UNK         0.0600 
    129 H129       -5.0375  -16.0905  -43.6885 H         1 UNK         0.0600 
    130 H130       -2.7106  -16.1654  -46.1021 H         1 UNK         0.3000 
    131 H131       -1.5559  -13.5845  -45.9023 H         1 UNK         0.0600 
    132 H132        0.4089  -14.7020  -47.1528 H         1 UNK         0.0800 
    133 H133       -1.1397  -14.5756  -47.9134 H         1 UNK         0.0800 
    134 H134       -1.8453  -16.4841  -49.4587 H         1 UNK         0.0800 
    135 H135       -0.1500  -16.1091  -49.6704 H         1 UNK         0.0800 
    136 H136       -2.2815  -17.9776  -51.2362 H         1 UNK         0.1150 
    137 H137        0.2396  -21.3577  -51.9901 H         1 UNK         0.1150 
    138 H138        1.2281  -18.6111  -48.8581 H         1 UNK         0.1150 
    139 H139        2.6579  -20.9906  -51.0790 H         1 UNK         0.0800 
    140 H140        2.8261  -20.2738  -49.5000 H         1 UNK         0.0800 
    141 H141        1.1952  -20.9527  -47.6504 H         1 UNK         0.0800 
    142 H142        2.2250  -22.2071  -47.0263 H         1 UNK         0.0800 
    143 H143        0.3486  -23.8667  -47.2621 H         1 UNK         0.0600 
    144 H144        0.3015  -21.6576  -45.3994 H         1 UNK         0.3000 
    145 H145       -2.0462  -23.0618  -43.1400 H         1 UNK         0.0600 
    146 H146       -0.1481  -22.9738  -41.5505 H         1 UNK         0.0600 
    147 H147        0.0259  -24.3603  -42.6146 H         1 UNK         0.0600 
    148 H148        1.0064  -22.9235  -42.8830 H         1 UNK         0.0600 
    149 H149       -0.2956  -20.8154  -42.9443 H         1 UNK         0.3000 
    150 H150       -2.0998  -18.5274  -44.9105 H         1 UNK         0.0600 
    151 H151       -2.1886  -18.6007  -41.8513 H         1 UNK         0.0600 
    152 H152       -3.6037  -18.6172  -42.8929 H         1 UNK         0.0600 
    153 H153       -2.5562  -17.2194  -42.8899 H         1 UNK         0.0600 
    154 H154       -0.0823  -17.8993  -43.1009 H         1 UNK         0.3000 
    155 H155        2.7430  -19.1660  -44.4556 H         1 UNK         0.0600 
    156 H156        1.8847  -16.5305  -45.7526 H         1 UNK         0.0600 
    157 H157        2.3619  -17.9771  -46.6336 H         1 UNK         0.0600 
    158 H158        3.5275  -17.1497  -45.6153 H         1 UNK         0.0600 
    159 H159        2.3187  -16.5297  -43.4034 H         1 UNK         0.3000 
    160 H160        1.9806  -16.7144  -40.4671 H         1 UNK         0.0600 
    161 H161        4.7239  -18.0621  -40.3265 H         1 UNK         0.0600 
    162 H162        3.3016  -18.4652  -39.3772 H         1 UNK         0.0600 
    163 H163        4.0971  -16.9186  -39.1399 H         1 UNK         0.0600 
    164 H164        2.9951  -14.9378  -41.3342 H         1 UNK         0.3000 
    165 H165        6.0118  -14.1163  -42.6887 H         1 UNK         0.0600 
    166 H166        4.9378  -13.3442  -44.8014 H         1 UNK         0.0600 
    167 H167        5.2389  -15.0729  -44.8625 H         1 UNK         0.0600 
    168 H168        3.6092  -14.4786  -44.5676 H         1 UNK         0.0600 
    169 H169        3.3523  -12.9144  -42.7286 H         1 UNK         0.3000 
    170 H170        2.9183  -11.9578  -39.8212 H         1 UNK         0.0600 
    171 H171        4.7942  -10.5877  -39.0916 H         1 UNK         0.0600 
    172 H172        4.9487   -9.8316  -40.6674 H         1 UNK         0.0600 
    173 H173        3.5269   -9.5197  -39.6703 H         1 UNK         0.0600 
    174 H174        1.6169  -11.4682  -41.4980 H         1 UNK         0.3000 
    175 H175        1.3834   -9.1114  -43.8134 H         1 UNK         0.0600 
    176 H176        2.1924  -11.7823  -45.0886 H         1 UNK         0.0600 
    177 H177        1.1143  -10.5942  -45.8205 H         1 UNK         0.0600 
    178 H178        2.7988  -10.1932  -45.5343 H         1 UNK         0.0600 
    179 H179        0.1927  -11.7783  -43.6482 H         1 UNK         0.3000 
    180 H180       -1.7588  -11.1857  -40.8303 H         1 UNK         0.0600 
    181 H181       -2.9038  -11.0625  -43.6723 H         1 UNK         0.0600 
    182 H182       -3.2058   -9.8829  -42.4009 H         1 UNK         0.0600 
    183 H183       -3.7871  -11.5309  -42.2208 H         1 UNK         0.0600 
    184 H184       -2.0201  -13.2024  -42.7901 H         1 UNK         0.3000 
    185 H185        0.8759  -15.0917  -42.1657 H         1 UNK         0.0600 
    186 H186       -0.3757  -15.6701  -40.0563 H         1 UNK         0.0600 
    187 H187       -1.8629  -15.7914  -40.9832 H         1 UNK         0.0600 
    188 H188       -0.5279  -16.9087  -41.2843 H         1 UNK         0.0600 
    189 H189       -1.7160  -15.5659  -43.4130 H         1 UNK         0.3000 
    190 H190       -1.4331  -20.7854  -46.9605 H         1 UNK         0.3000 
    191 H191       -2.9516  -21.0358  -49.3712 H         1 UNK         0.0600 
    192 H192       -2.6524  -18.8692  -48.1845 H         1 UNK         0.0600 
    193 H193       -4.3533  -19.2422  -48.3836 H         1 UNK         0.0600 
    194 H194       -3.5862  -19.4602  -46.8163 H         1 UNK         0.0600 
    195 H195       -3.6366  -21.9438  -45.9585 H         1 UNK         0.3000 
    196 H196       -6.2666  -22.8947  -46.3554 H         1 UNK         0.0600 
    197 H197       -5.9349  -23.9506  -44.1137 H         1 UNK         0.0600 
    198 H198       -5.3517  -22.2934  -44.1344 H         1 UNK         0.0600 
    199 H199       -4.2071  -23.6318  -44.2093 H         1 UNK         0.0600 
    200 H200       -3.1315  -24.6696  -46.4043 H         1 UNK         0.3000 
    201 H201       -4.2849  -27.2372  -47.0471 H         1 UNK         0.0600 
    202 H202       -1.9090  -27.8336  -47.5356 H         1 UNK         0.0600 
    203 H203       -2.0372  -26.9860  -46.0015 H         1 UNK         0.0600 
    204 H204       -1.4449  -26.1393  -47.4302 H         1 UNK         0.0600 
    205 H205       -3.3978  -24.4245  -48.8820 H         1 UNK         0.3000 
    206 H206       -3.3709  -23.7646  -50.9498 H         1 UNK         0.0600 
    207 H207       -5.7680  -24.4581  -51.0184 H         1 UNK         0.0600 
    208 H208       -5.0105  -24.6402  -52.5932 H         1 UNK         0.0600 
    209 H209       -5.3021  -26.0591  -51.5946 H         1 UNK         0.0600 
    210 H210       -1.1931  -24.9844  -50.2158 H         1 UNK         0.3000 
    211 H211       -0.4264  -27.3381  -51.5601 H         1 UNK         0.0600 
    212 H212        1.3354  -25.1572  -50.3368 H         1 UNK         0.0600 
    213 H213        1.8406  -26.8015  -50.6961 H         1 UNK         0.0600 
    214 H214        0.6224  -26.5121  -49.4627 H         1 UNK         0.0600 
    215 H215       -0.2376  -24.0050  -52.6657 H         1 UNK         0.3000 
    216 H216        1.4986  -24.6083  -54.9596 H         1 UNK         0.0600 
    217 H217        1.1293  -22.2255  -55.5051 H         1 UNK         0.0600 
    218 H218        1.5843  -22.3864  -53.8161 H         1 UNK         0.0600 
    219 H219       -0.1004  -22.0978  -54.2582 H         1 UNK         0.0600 
    220 H220       -1.8319  -24.9726  -54.2396 H         1 UNK         0.3000 
    221 H221       -3.7092  -25.3405  -55.3039 H         1 UNK         0.0600 
    222 H222       -1.9633  -26.3123  -57.6252 H         1 UNK         0.0600 
    223 H223       -2.3646  -27.2562  -56.1906 H         1 UNK         0.0600 
    224 H224       -3.6303  -26.7722  -57.3056 H         1 UNK         0.0600 
    225 H225       -2.6639  -22.6313  -55.5929 H         1 UNK         0.3000 
    226 H226       -3.5706  -21.6940  -58.2452 H         1 UNK         0.0600 
    227 H227       -1.4515  -20.8033  -57.1960 H         1 UNK         0.0600 
    228 H228       -2.6368  -19.5393  -57.4792 H         1 UNK         0.0600 
    229 H229       -2.4007  -20.1665  -55.8545 H         1 UNK         0.0600 
    230 H230       -5.1581  -20.0003  -58.4152 H         1 UNK         0.3000 
    231 H231       -7.5192  -20.2808  -56.8349 H         1 UNK         0.0600 
    232 H232       -6.6985  -18.1231  -58.8556 H         1 UNK         0.0600 
    233 H233       -8.3311  -18.3940  -58.2583 H         1 UNK         0.0600 
    234 H234       -7.5444  -19.6252  -59.2318 H         1 UNK         0.0600 
    235 H235       -4.6901  -18.3558  -56.3736 H         1 UNK         0.3000 
    236 H236       -5.8150  -16.3007  -54.6722 H         1 UNK         0.0600 
    237 H237       -3.7228  -15.9600  -55.9787 H         1 UNK         0.0600 
    238 H238       -3.4040  -15.7884  -54.2609 H         1 UNK         0.0600 
    239 H239       -2.9312  -17.2645  -55.0930 H         1 UNK         0.0600 
    240 H240       -5.1318  -19.6546  -54.1359 H         1 UNK         0.3000 
    241 H241       -4.3997  -19.4216  -51.3219 H         1 UNK         0.0600 
    242 H242       -7.5848  -20.5741  -49.8241 H         1 UNK         0.3800 
    243 H243       -5.9507  -21.1682  -49.8046 H         1 UNK         0.3800 
    244 H244       -4.5863  -21.8962  -51.3129 H         1 UNK         0.0800 
    245 H245       -5.2218  -21.8868  -52.9190 H         1 UNK         0.0800 
    246 H246       -1.2286  -20.1229  -53.7902 H         1 UNK         0.0800 
    247 H247       -2.5796  -19.2244  -53.2431 H         1 UNK         0.0800 
@<TRIPOS>BOND
     1    1    2 1    
     2    1  127 1    
     3    1  128 1    
     4    1  129 1    
     5    2    3 2    
     6    2    4 am   BACKBONE|DICT|INTERRES
     7    4    5 1    
     8    4  130 1    
     9    5    6 1    
    10    5   65 1    
    11    5  131 1    
    12    6    7 1    
    13    6  132 1    
    14    6  133 1    
    15    7    8 1    
    16    8    9 1    
    17    8  134 1    
    18    8  135 1    
    19    9   10 ar   
    20    9   14 ar   
    21   10   11 ar   
    22   10  136 1    
    23   11   12 ar   
    24   11  126 1    
    25   12   13 ar   
    26   12  137 1    
    27   13   14 ar   
    28   13   15 1    
    29   14  138 1    
    30   15   16 1    
    31   15  139 1    
    32   15  140 1    
    33   16   17 1    
    34   17   18 1    
    35   17  141 1    
    36   17  142 1    
    37   18   19 1    
    38   18   67 1    
    39   18  143 1    
    40   19   20 am   BACKBONE|DICT|INTERRES
    41   19  144 1    
    42   20   21 2    
    43   20   22 1    
    44   22   23 1    
    45   22   24 1    
    46   22  145 1    
    47   23  146 1    
    48   23  147 1    
    49   23  148 1    
    50   24   25 am   BACKBONE|DICT|INTERRES
    51   24  149 1    
    52   25   26 2    
    53   25   27 1    
    54   27   28 1    
    55   27   29 1    
    56   27  150 1    
    57   28  151 1    
    58   28  152 1    
    59   28  153 1    
    60   29   30 am   BACKBONE|DICT|INTERRES
    61   29  154 1    
    62   30   31 2    
    63   30   32 1    
    64   32   33 1    
    65   32   34 1    
    66   32  155 1    
    67   33  156 1    
    68   33  157 1    
    69   33  158 1    
    70   34   35 am   BACKBONE|DICT|INTERRES
    71   34  159 1    
    72   35   36 2    
    73   35   37 1    
    74   37   38 1    
    75   37   39 1    
    76   37  160 1    
    77   38  161 1    
    78   38  162 1    
    79   38  163 1    
    80   39   40 am   BACKBONE|DICT|INTERRES
    81   39  164 1    
    82   40   41 2    
    83   40   42 1    
    84   42   43 1    
    85   42   44 1    
    86   42  165 1    
    87   43  166 1    
    88   43  167 1    
    89   43  168 1    
    90   44   45 am   BACKBONE|DICT|INTERRES
    91   44  169 1    
    92   45   46 2    
    93   45   47 1    
    94   47   48 1    
    95   47   49 1    
    96   47  170 1    
    97   48  171 1    
    98   48  172 1    
    99   48  173 1    
   100   49   50 am   BACKBONE|DICT|INTERRES
   101   49  174 1    
   102   50   51 2    
   103   50   52 1    
   104   52   53 1    
   105   52   54 1    
   106   52  175 1    
   107   53  176 1    
   108   53  177 1    
   109   53  178 1    
   110   54   55 am   BACKBONE|DICT|INTERRES
   111   54  179 1    
   112   55   56 2    
   113   55   57 1    
   114   57   58 1    
   115   57   59 1    
   116   57  180 1    
   117   58  181 1    
   118   58  182 1    
   119   58  183 1    
   120   59   60 am   BACKBONE|DICT|INTERRES
   121   59  184 1    
   122   60   61 2    
   123   60   62 1    
   124   62   63 1    
   125   62   64 1    
   126   62  185 1    
   127   63  186 1    
   128   63  187 1    
   129   63  188 1    
   130   64   65 am   BACKBONE|DICT|INTERRES
   131   64  189 1    
   132   65   66 2    
   133   67   68 2    
   134   67   69 am   BACKBONE|DICT|INTERRES
   135   69   70 1    
   136   69  190 1    
   137   70   71 1    
   138   70   72 1    
   139   70  191 1    
   140   71  192 1    
   141   71  193 1    
   142   71  194 1    
   143   72   73 2    
   144   72   74 am   BACKBONE|DICT|INTERRES
   145   74   75 1    
   146   74  195 1    
   147   75   76 1    
   148   75   77 1    
   149   75  196 1    
   150   76  197 1    
   151   76  198 1    
   152   76  199 1    
   153   77   78 2    
   154   77   79 am   BACKBONE|DICT|INTERRES
   155   79   80 1    
   156   79  200 1    
   157   80   81 1    
   158   80   82 1    
   159   80  201 1    
   160   81  202 1    
   161   81  203 1    
   162   81  204 1    
   163   82   83 2    
   164   82   84 am   BACKBONE|DICT|INTERRES
   165   84   85 1    
   166   84  205 1    
   167   85   86 1    
   168   85   87 1    
   169   85  206 1    
   170   86  207 1    
   171   86  208 1    
   172   86  209 1    
   173   87   88 2    
   174   87   89 am   BACKBONE|DICT|INTERRES
   175   89   90 1    
   176   89  210 1    
   177   90   91 1    
   178   90   92 1    
   179   90  211 1    
   180   91  212 1    
   181   91  213 1    
   182   91  214 1    
   183   92   93 2    
   184   92   94 am   BACKBONE|DICT|INTERRES
   185   94   95 1    
   186   94  215 1    
   187   95   96 1    
   188   95   97 1    
   189   95  216 1    
   190   96  217 1    
   191   96  218 1    
   192   96  219 1    
   193   97   98 2    
   194   97   99 am   BACKBONE|DICT|INTERRES
   195   99  100 1    
   196   99  220 1    
   197  100  101 1    
   198  100  102 1    
   199  100  221 1    
   200  101  222 1    
   201  101  223 1    
   202  101  224 1    
   203  102  103 2    
   204  102  104 am   BACKBONE|DICT|INTERRES
   205  104  105 1    
   206  104  225 1    
   207  105  106 1    
   208  105  107 1    
   209  105  226 1    
   210  106  227 1    
   211  106  228 1    
   212  106  229 1    
   213  107  108 2    
   214  107  109 am   BACKBONE|DICT|INTERRES
   215  109  110 1    
   216  109  230 1    
   217  110  111 1    
   218  110  112 1    
   219  110  231 1    
   220  111  232 1    
   221  111  233 1    
   222  111  234 1    
   223  112  113 2    
   224  112  114 am   BACKBONE|DICT|INTERRES
   225  114  115 1    
   226  114  235 1    
   227  115  116 1    
   228  115  117 1    
   229  115  236 1    
   230  116  237 1    
   231  116  238 1    
   232  116  239 1    
   233  117  118 2    
   234  117  119 am   BACKBONE|DICT|INTERRES
   235  119  120 1    
   236  119  240 1    
   237  120  121 1    
   238  120  124 1    
   239  120  241 1    
   240  121  122 am   BACKBONE|DICT|INTERRES
   241  121  123 2    
   242  122  242 1    
   243  122  243 1    
   244  124  125 1    
   245  124  244 1    
   246  124  245 1    
   247  125  126 1    
   248  126  246 1    
   249  126  247 1    
@<TRIPOS>SUBSTRUCTURE
     1 UNK         1 GROUP             0       ****    0 ROOT    
