@<TRIPOS>MOLECULE
3R540
247   249    1
SMALL
USER_CHARGES


@<TRIPOS>ATOM
      1 CA         -4.6019  -15.1178  -47.3709 C.3       0 UNK        -0.1800 
      2 C          -3.6476  -13.9554  -47.6090 C.2       0 UNK         0.5000 
      3 O          -3.9868  -12.8094  -47.3121 O.2       0 UNK        -0.5000 
      4 N          -2.4604  -14.2493  -48.1504 N.am      1 UNK        -0.5000 
      5 CA         -1.3671  -13.2951  -48.3601 C.3       1 UNK         0.1400 
      6 C6         -0.2801  -13.8752  -49.3011 C.3       23 UNK        -0.0398 
      7 S7         -0.8866  -14.1890  -50.9957 S.3       23 UNK        -0.2404 
      8 C8         -1.2056  -15.9842  -51.0040 C.3       23 UNK        -0.0205 
      9 C9          0.0701  -16.8125  -50.9426 C.ar      23 UNK        -0.0193 
     10 C10         0.8051  -17.0703  -52.1030 C.ar      23 UNK        -0.1150 
     11 C11         1.9526  -17.8743  -52.0610 C.ar      23 UNK        -0.0193 
     12 C12         2.3839  -18.3725  -50.8277 C.ar      23 UNK        -0.1150 
     13 C13         1.6690  -18.1073  -49.6573 C.ar      23 UNK        -0.0193 
     14 C14         0.5032  -17.3439  -49.7268 C.ar      23 UNK        -0.1150 
     15 C15         2.1659  -18.6316  -48.3187 C.3       23 UNK        -0.0205 
     16 S16         1.9537  -20.4305  -48.1696 S.3       23 UNK        -0.2404 
     17 C17         0.1372  -20.5905  -48.1385 C.3       23 UNK        -0.0398 
     18 CA         -0.2978  -21.8706  -47.3938 C.3       11 UNK         0.1400 
     19 N           0.1351  -21.8833  -45.9938 N.am      11 UNK        -0.5000 
     20 C           0.2314  -22.9887  -45.2448 C.2       10 UNK         0.5000 
     21 O          -0.0545  -24.1134  -45.6508 O.2       10 UNK        -0.5000 
     22 CA          0.6884  -22.7968  -43.7885 C.3       10 UNK         0.1400 
     23 CB          2.2197  -22.7163  -43.7146 C.3       10 UNK        -0.1800 
     24 N           0.1018  -21.6038  -43.1756 N.am      10 UNK        -0.5000 
     25 C          -1.2050  -21.4624  -42.9101 C.2       9 UNK         0.5000 
     26 O          -2.0471  -22.3332  -43.1318 O.2       9 UNK        -0.5000 
     27 CA         -1.6459  -20.0936  -42.3622 C.3       9 UNK         0.1400 
     28 CB         -1.3649  -19.9974  -40.8563 C.3       9 UNK        -0.1800 
     29 N          -0.9921  -18.9820  -43.0561 N.am      9 UNK        -0.5000 
     30 C          -1.1667  -18.6957  -44.3527 C.2       8 UNK         0.5000 
     31 O          -1.8977  -19.3539  -45.0921 O.2       8 UNK        -0.5000 
     32 CA         -0.3520  -17.5267  -44.9378 C.3       8 UNK         0.1400 
     33 CB         -0.9743  -16.9564  -46.2301 C.3       8 UNK        -0.1800 
     34 N          -0.0665  -16.4539  -43.9815 N.am      8 UNK        -0.5000 
     35 C          -0.9492  -15.6320  -43.3942 C.2       7 UNK         0.5000 
     36 O          -2.1726  -15.7120  -43.5218 O.2       7 UNK        -0.5000 
     37 CA         -0.3211  -14.5435  -42.5018 C.3       7 UNK         0.1400 
     38 CB         -1.3585  -13.6398  -41.8027 C.3       7 UNK        -0.1800 
     39 N           0.6317  -15.1142  -41.5420 N.am      7 UNK        -0.5000 
     40 C           0.3515  -15.9857  -40.5596 C.2       6 UNK         0.5000 
     41 O          -0.7845  -16.3829  -40.2965 O.2       6 UNK        -0.5000 
     42 CA          1.5573  -16.5128  -39.7529 C.3       6 UNK         0.1400 
     43 CB          1.1765  -17.6244  -38.7537 C.3       6 UNK        -0.1800 
     44 N           2.6730  -16.9573  -40.5943 N.am      6 UNK        -0.5000 
     45 C           2.6553  -17.8614  -41.5836 C.2       5 UNK         0.5000 
     46 O           1.6339  -18.4244  -41.9824 O.2       5 UNK        -0.5000 
     47 CA          4.0157  -18.1613  -42.2531 C.3       5 UNK         0.1400 
     48 CB          3.8955  -19.1943  -43.3873 C.3       5 UNK        -0.1800 
     49 N           4.6482  -16.9547  -42.7878 N.am      5 UNK        -0.5000 
     50 C           5.2485  -15.9907  -42.0758 C.2       4 UNK         0.5000 
     51 O           5.3968  -16.0421  -40.8539 O.2       4 UNK        -0.5000 
     52 CA          5.7272  -14.7433  -42.8454 C.3       4 UNK         0.1400 
     53 CB          7.2423  -14.8132  -43.0895 C.3       4 UNK        -0.1800 
     54 N           5.0470  -14.5310  -44.1279 N.am      4 UNK        -0.5000 
     55 C           3.7402  -14.2786  -44.2784 C.2       3 UNK         0.5000 
     56 O           2.9330  -14.2403  -43.3452 O.2       3 UNK        -0.5000 
     57 CA          3.2537  -14.1090  -45.7268 C.3       3 UNK         0.1400 
     58 CB          2.9074  -15.4749  -46.3422 C.3       3 UNK        -0.1800 
     59 N           2.0735  -13.2548  -45.7958 N.am      3 UNK        -0.5000 
     60 C           2.0675  -11.9204  -45.7029 C.2       2 UNK         0.5000 
     61 O           3.0913  -11.2467  -45.5719 O.2       2 UNK        -0.5000 
     62 CA          0.6847  -11.2328  -45.8149 C.3       2 UNK         0.1400 
     63 CB          0.7887   -9.6996  -45.9063 C.3       2 UNK        -0.1800 
     64 N          -0.0907  -11.7216  -46.9625 N.am      2 UNK        -0.5000 
     65 C          -0.7306  -12.8966  -47.0113 C.2       1 UNK         0.5000 
     66 O          -0.7525  -13.6812  -46.0608 O.2       1 UNK        -0.5000 
     67 C          -1.8126  -22.1151  -47.5302 C.2       11 UNK         0.5000 
     68 O          -2.2378  -22.6820  -48.5356 O.2       11 UNK        -0.5000 
     69 N          -2.6041  -21.7156  -46.5262 N.am      12 UNK        -0.5000 
     70 CA         -4.0221  -22.0510  -46.4133 C.3       12 UNK         0.1400 
     71 CB         -4.6912  -21.1509  -45.3653 C.3       12 UNK        -0.1800 
     72 C          -4.2261  -23.5395  -46.0837 C.2       12 UNK         0.5000 
     73 O          -5.0799  -24.1770  -46.6982 O.2       12 UNK        -0.5000 
     74 N          -3.4083  -24.0816  -45.1681 N.am      13 UNK        -0.5000 
     75 CA         -3.3935  -25.5019  -44.8025 C.3       13 UNK         0.1400 
     76 CB         -2.5020  -25.7087  -43.5688 C.3       13 UNK        -0.1800 
     77 C          -2.9515  -26.4166  -45.9626 C.2       13 UNK         0.5000 
     78 O          -3.5403  -27.4800  -46.1579 O.2       13 UNK        -0.5000 
     79 N          -1.9569  -25.9644  -46.7393 N.am      14 UNK        -0.5000 
     80 CA         -1.4856  -26.6038  -47.9727 C.3       14 UNK         0.1400 
     81 CB         -0.0910  -26.0536  -48.3109 C.3       14 UNK        -0.1800 
     82 C          -2.4392  -26.4109  -49.1723 C.2       14 UNK         0.5000 
     83 O          -2.2233  -27.0247  -50.2171 O.2       14 UNK        -0.5000 
     84 N          -3.4525  -25.5497  -49.0068 N.am      15 UNK        -0.5000 
     85 CA         -4.5013  -25.1608  -49.9526 C.3       15 UNK         0.1400 
     86 CB         -5.3068  -26.3776  -50.4493 C.3       15 UNK        -0.1800 
     87 C          -4.0347  -24.2596  -51.1121 C.2       15 UNK         0.5000 
     88 O          -4.8619  -23.8901  -51.9438 O.2       15 UNK        -0.5000 
     89 N          -2.7573  -23.8590  -51.1299 N.am      16 UNK        -0.5000 
     90 CA         -2.1705  -22.9564  -52.1220 C.3       16 UNK         0.1400 
     91 CB         -0.6503  -22.8875  -51.9158 C.3       16 UNK        -0.1800 
     92 C          -2.7806  -21.5442  -52.0876 C.2       16 UNK         0.5000 
     93 O          -2.9901  -20.9415  -53.1447 O.2       16 UNK        -0.5000 
     94 N          -3.0724  -21.0535  -50.8761 N.am      17 UNK        -0.5000 
     95 CA         -3.7604  -19.7810  -50.6570 C.3       17 UNK         0.1400 
     96 CB         -3.3324  -19.1855  -49.3065 C.3       17 UNK        -0.1800 
     97 C          -5.2911  -19.9327  -50.7288 C.2       17 UNK         0.5000 
     98 O          -5.9678  -18.9943  -51.1466 O.2       17 UNK        -0.5000 
     99 N          -5.8101  -21.1020  -50.3248 N.am      18 UNK        -0.5000 
    100 CA        -7.2461  -21.3805  -50.2371 C.3       18 UNK         0.1400 
    101 CB        -7.4872  -22.5803  -49.3080 C.3       18 UNK        -0.1800 
    102 C         -7.8922  -21.6215  -51.6125 C.2       18 UNK         0.5000 
    103 O         -8.9549  -21.0646  -51.8891 O.2       18 UNK        -0.5000 
    104 N         -7.2360  -22.4324  -52.4543 N.am      19 UNK        -0.5000 
    105 CA        -7.6761  -22.7457  -53.8172 C.3       19 UNK         0.1400 
    106 CB        -7.1446  -24.1348  -54.2074 C.3       19 UNK        -0.1800 
    107 C         -7.2219  -21.6899  -54.8436 C.2       19 UNK         0.5000 
    108 O         -7.6319  -21.7640  -56.0024 O.2       19 UNK        -0.5000 
    109 N         -6.3766  -20.7447  -54.4050 N.am      20 UNK        -0.5000 
    110 CA        -5.7656  -19.6631  -55.1813 C.3       20 UNK         0.1400 
    111 CB        -6.8329  -18.6778  -55.7015 C.3       20 UNK        -0.1800 
    112 C         -4.8159  -20.1748  -56.2849 C.2       20 UNK         0.5000 
    113 O         -4.7108  -19.5578  -57.3465 O.2       20 UNK        -0.5000 
    114 N         -4.1166  -21.2852  -56.0021 N.am      21 UNK        -0.5000 
    115 CA        -3.0306  -21.8138  -56.8335 C.3       21 UNK         0.1400 
    116 CB        -2.6774  -23.2365  -56.3769 C.3       21 UNK        -0.1800 
    117 C         -1.7932  -20.8958  -56.7899 C.2       21 UNK         0.5000 
    118 O         -1.1186  -20.7267  -57.8061 O.2       21 UNK        -0.5000 
    119 N         -1.5688  -20.2800  -55.6241 N.am      22 UNK        -0.5000 
    120 CA        -0.7272  -19.0940  -55.4355 C.3       22 UNK         0.1400 
    121 C         -1.5345  -17.9435  -54.7688 C.2       22 UNK         0.5000 
    122 N         -2.5040  -18.2271  -53.9046 N.am      22 UNK        -0.7600 
    123 O         -1.3114  -16.7749  -55.0703 O.2       22 UNK        -0.5000 
    124 C124        0.5751  -19.4316  -54.6654 C.3       23 UNK        -0.0398 
    125 S125        1.8671  -18.1596  -54.8974 S.3       23 UNK        -0.2404 
    126 C126        2.7687  -18.2153  -53.3091 C.3       23 UNK        -0.0205 
    127 H127       -4.8340  -15.1986  -46.3088 H         1 UNK         0.0600 
    128 H128       -4.1753  -16.0670  -47.6966 H         1 UNK         0.0600 
    129 H129       -5.5330  -14.9585  -47.9149 H         1 UNK         0.0600 
    130 H130       -2.2378  -15.2122  -48.3439 H         1 UNK         0.3000 
    131 H131       -1.7822  -12.3943  -48.8174 H         1 UNK         0.0600 
    132 H132        0.1539  -14.7808  -48.8796 H         1 UNK         0.0800 
    133 H133        0.5498  -13.1728  -49.3974 H         1 UNK         0.0800 
    134 H134       -1.7447  -16.2304  -51.9192 H         1 UNK         0.0800 
    135 H135       -1.8754  -16.2466  -50.1848 H         1 UNK         0.0800 
    136 H136        0.4701  -16.6471  -53.0382 H         1 UNK         0.1150 
    137 H137        3.2802  -18.9750  -50.7747 H         1 UNK         0.1150 
    138 H138       -0.0634  -17.1492  -48.8322 H         1 UNK         0.1150 
    139 H139        1.6601  -18.1341  -47.4909 H         1 UNK         0.0800 
    140 H140        3.2252  -18.3928  -48.2138 H         1 UNK         0.0800 
    141 H141       -0.2143  -20.6002  -49.1721 H         1 UNK         0.0800 
    142 H142       -0.3003  -19.7113  -47.6676 H         1 UNK         0.0800 
    143 H143        0.1897  -22.7100  -47.8938 H         1 UNK         0.0600 
    144 H144        0.3789  -20.9954  -45.5841 H         1 UNK         0.3000 
    145 H145        0.3632  -23.6676  -43.2153 H         1 UNK         0.0600 
    146 H146        2.6092  -21.8937  -44.3151 H         1 UNK         0.0600 
    147 H147        2.6737  -23.6347  -44.0890 H         1 UNK         0.0600 
    148 H148        2.5614  -22.5803  -42.6884 H         1 UNK         0.0600 
    149 H149        0.7230  -20.8365  -42.9595 H         1 UNK         0.3000 
    150 H150       -2.7228  -20.0003  -42.5173 H         1 UNK         0.0600 
    151 H151       -0.3005  -20.0947  -40.6409 H         1 UNK         0.0600 
    152 H152       -1.8841  -20.7865  -40.3111 H         1 UNK         0.0600 
    153 H153       -1.7037  -19.0437  -40.4513 H         1 UNK         0.0600 
    154 H154       -0.3019  -18.4563  -42.5292 H         1 UNK         0.3000 
    155 H155        0.6138  -17.9579  -45.2033 H         1 UNK         0.0600 
    156 H156       -1.9226  -16.4551  -46.0380 H         1 UNK         0.0600 
    157 H157       -1.1764  -17.7382  -46.9597 H         1 UNK         0.0600 
    158 H158       -0.3043  -16.2357  -46.6965 H         1 UNK         0.0600 
    159 H159        0.9060  -16.3292  -43.7411 H         1 UNK         0.3000 
    160 H160        0.2579  -13.9044  -43.1701 H         1 UNK         0.0600 
    161 H161       -2.0261  -14.2066  -41.1534 H         1 UNK         0.0600 
    162 H162       -1.9794  -13.1265  -42.5379 H         1 UNK         0.0600 
    163 H163       -0.8709  -12.8747  -41.1988 H         1 UNK         0.0600 
    164 H164        1.6015  -14.8744  -41.7154 H         1 UNK         0.3000 
    165 H165        1.9265  -15.6649  -39.1744 H         1 UNK         0.0600 
    166 H166        0.4064  -17.2840  -38.0606 H         1 UNK         0.0600 
    167 H167        0.7938  -18.5091  -39.2613 H         1 UNK         0.0600 
    168 H168        2.0365  -17.9281  -38.1570 H         1 UNK         0.0600 
    169 H169        3.5736  -16.5331  -40.3906 H         1 UNK         0.3000 
    170 H170        4.6662  -18.5842  -41.4848 H         1 UNK         0.0600 
    171 H171        4.8690  -19.4184  -43.8239 H         1 UNK         0.0600 
    172 H172        3.4898  -20.1316  -43.0080 H         1 UNK         0.0600 
    173 H173        3.2397  -18.8469  -44.1869 H         1 UNK         0.0600 
    174 H174        4.5641  -16.8126  -43.7826 H         1 UNK         0.3000 
    175 H175        5.5218  -13.8766  -42.2137 H         1 UNK         0.0600 
    176 H176        7.7845  -14.9412  -42.1516 H         1 UNK         0.0600 
    177 H177        7.5072  -15.6490  -43.7383 H         1 UNK         0.0600 
    178 H178        7.6107  -13.8975  -43.5523 H         1 UNK         0.0600 
    179 H179        5.6339  -14.5616  -44.9494 H         1 UNK         0.3000 
    180 H180        4.0504  -13.6508  -46.3168 H         1 UNK         0.0600 
    181 H181        2.1235  -15.9817  -45.7809 H         1 UNK         0.0600 
    182 H182        3.7774  -16.1325  -46.3581 H         1 UNK         0.0600 
    183 H183        2.5646  -15.3689  -47.3719 H         1 UNK         0.0600 
    184 H184        1.1721  -13.7173  -45.8535 H         1 UNK         0.3000 
    185 H185        0.1398  -11.4702  -44.8986 H         1 UNK         0.0600 
    186 H186        1.3068   -9.2888  -45.0388 H         1 UNK         0.0600 
    187 H187        1.3352   -9.3854  -46.7963 H         1 UNK         0.0600 
    188 H188       -0.1988   -9.2389  -45.9384 H         1 UNK         0.0600 
    189 H189       -0.0758  -11.1363  -47.7856 H         1 UNK         0.3000 
    190 H190       -2.2123  -21.1471  -45.7816 H         1 UNK         0.3000 
    191 H191       -4.5002  -21.8560  -47.3755 H         1 UNK         0.0600 
    192 H192       -4.6021  -20.0991  -45.6382 H         1 UNK         0.0600 
    193 H193       -5.7547  -21.3763  -45.2785 H         1 UNK         0.0600 
    194 H194       -4.2454  -21.2776  -44.3785 H         1 UNK         0.0600 
    195 H195       -2.7632  -23.4775  -44.6693 H         1 UNK         0.3000 
    196 H196       -4.4130  -25.7840  -44.5314 H         1 UNK         0.0600 
    197 H197       -1.4668  -25.4309  -43.7660 H         1 UNK         0.0600 
    198 H198       -2.5071  -26.7531  -43.2545 H         1 UNK         0.0600 
    199 H199       -2.8523  -25.1132  -42.7255 H         1 UNK         0.0600 
    200 H200       -1.4585  -25.1278  -46.4470 H         1 UNK         0.3000 
    201 H201       -1.3967  -27.6772  -47.7941 H         1 UNK         0.0600 
    202 H202       -0.1242  -24.9856  -48.5263 H         1 UNK         0.0600 
    203 H203        0.6058  -26.2086  -47.4870 H         1 UNK         0.0600 
    204 H204        0.3269  -26.5519  -49.1865 H         1 UNK         0.0600 
    205 H205       -3.5188  -25.0949  -48.1057 H         1 UNK         0.3000 
    206 H206       -5.1806  -24.5454  -49.3658 H         1 UNK         0.0600 
    207 H207       -5.6559  -26.9862  -49.6151 H         1 UNK         0.0600 
    208 H208       -6.1877  -26.0602  -51.0088 H         1 UNK         0.0600 
    209 H209       -4.7176  -27.0145  -51.1091 H         1 UNK         0.0600 
    210 H210       -2.1716  -24.1260  -50.3513 H         1 UNK         0.3000 
    211 H211       -2.3673  -23.3790  -53.1072 H         1 UNK         0.0600 
    212 H212       -0.1940  -23.8715  -52.0253 H         1 UNK         0.0600 
    213 H213       -0.1845  -22.2299  -52.6512 H         1 UNK         0.0600 
    214 H214       -0.3938  -22.5086  -50.9257 H         1 UNK         0.0600 
    215 H215       -2.8497  -21.6178  -50.0617 H         1 UNK         0.3000 
    216 H216       -3.4630  -19.0719  -51.4309 H         1 UNK         0.0600 
    217 H217       -3.6155  -19.8249  -48.4714 H         1 UNK         0.0600 
    218 H218       -3.8010  -18.2141  -49.1450 H         1 UNK         0.0600 
    219 H219       -2.2543  -19.0329  -49.2675 H         1 UNK         0.0600 
    220 H220       -5.1818  -21.8339  -50.0347 H         1 UNK         0.3000 
    221 H221       -7.7307  -20.5110  -49.7871 H         1 UNK         0.0600 
    222 H222       -7.1477  -23.5136  -49.7554 H         1 UNK         0.0600 
    223 H223       -6.9803  -22.4561  -48.3507 H         1 UNK         0.0600 
    224 H224       -8.5513  -22.6953  -49.0986 H         1 UNK         0.0600 
    225 H225       -6.3665  -22.8732  -52.1597 H         1 UNK         0.3000 
    226 H226       -8.7671  -22.7829  -53.8425 H         1 UNK         0.0600 
    227 H227       -7.4231  -24.8878  -53.4699 H         1 UNK         0.0600 
    228 H228       -7.5529  -24.4530  -55.1673 H         1 UNK         0.0600 
    229 H229       -6.0579  -24.1400  -54.2991 H         1 UNK         0.0600 
    230 H230       -6.1137  -20.7854  -53.4310 H         1 UNK         0.3000 
    231 H231       -5.1378  -19.1142  -54.4789 H         1 UNK         0.0600 
    232 H232       -7.4630  -19.1274  -56.4693 H         1 UNK         0.0600 
    233 H233       -6.3673  -17.7939  -56.1388 H         1 UNK         0.0600 
    234 H234       -7.4796  -18.3356  -54.8935 H         1 UNK         0.0600 
    235 H235       -4.2498  -21.7140  -55.0973 H         1 UNK         0.3000 
    236 H236       -3.3814  -21.8624  -57.8665 H         1 UNK         0.0600 
    237 H237       -2.2627  -23.2449  -55.3702 H         1 UNK         0.0600 
    238 H238       -3.5531  -23.8858  -56.3880 H         1 UNK         0.0600 
    239 H239       -1.9334  -23.6813  -57.0388 H         1 UNK         0.0600 
    240 H240       -2.1778  -20.5084  -54.8466 H         1 UNK         0.3000 
    241 H241       -0.4418  -18.7188  -56.4205 H         1 UNK         0.0600 
    242 H242       -3.0350  -17.4652  -53.5168 H         1 UNK         0.3800 
    243 H243       -2.6917  -19.1783  -53.6065 H         1 UNK         0.3800 
    244 H244        0.9867  -20.3735  -55.0304 H         1 UNK         0.0800 
    245 H245        0.3679  -19.5865  -53.6054 H         1 UNK         0.0800 
    246 H246        3.6078  -17.5211  -53.3670 H         1 UNK         0.0800 
    247 H247        3.2008  -19.2119  -53.2042 H         1 UNK         0.0800 
@<TRIPOS>BOND
     1    1    2 1    
     2    1  127 1    
     3    1  128 1    
     4    1  129 1    
     5    2    3 2    
     6    2    4 am   BACKBONE|DICT|INTERRES
     7    4    5 1    
     8    4  130 1    
     9    5    6 1    
    10    5   65 1    
    11    5  131 1    
    12    6    7 1    
    13    6  132 1    
    14    6  133 1    
    15    7    8 1    
    16    8    9 1    
    17    8  134 1    
    18    8  135 1    
    19    9   10 ar   
    20    9   14 ar   
    21   10   11 ar   
    22   10  136 1    
    23   11   12 ar   
    24   11  126 1    
    25   12   13 ar   
    26   12  137 1    
    27   13   14 ar   
    28   13   15 1    
    29   14  138 1    
    30   15   16 1    
    31   15  139 1    
    32   15  140 1    
    33   16   17 1    
    34   17   18 1    
    35   17  141 1    
    36   17  142 1    
    37   18   19 1    
    38   18   67 1    
    39   18  143 1    
    40   19   20 am   BACKBONE|DICT|INTERRES
    41   19  144 1    
    42   20   21 2    
    43   20   22 1    
    44   22   23 1    
    45   22   24 1    
    46   22  145 1    
    47   23  146 1    
    48   23  147 1    
    49   23  148 1    
    50   24   25 am   BACKBONE|DICT|INTERRES
    51   24  149 1    
    52   25   26 2    
    53   25   27 1    
    54   27   28 1    
    55   27   29 1    
    56   27  150 1    
    57   28  151 1    
    58   28  152 1    
    59   28  153 1    
    60   29   30 am   BACKBONE|DICT|INTERRES
    61   29  154 1    
    62   30   31 2    
    63   30   32 1    
    64   32   33 1    
    65   32   34 1    
    66   32  155 1    
    67   33  156 1    
    68   33  157 1    
    69   33  158 1    
    70   34   35 am   BACKBONE|DICT|INTERRES
    71   34  159 1    
    72   35   36 2    
    73   35   37 1    
    74   37   38 1    
    75   37   39 1    
    76   37  160 1    
    77   38  161 1    
    78   38  162 1    
    79   38  163 1    
    80   39   40 am   BACKBONE|DICT|INTERRES
    81   39  164 1    
    82   40   41 2    
    83   40   42 1    
    84   42   43 1    
    85   42   44 1    
    86   42  165 1    
    87   43  166 1    
    88   43  167 1    
    89   43  168 1    
    90   44   45 am   BACKBONE|DICT|INTERRES
    91   44  169 1    
    92   45   46 2    
    93   45   47 1    
    94   47   48 1    
    95   47   49 1    
    96   47  170 1    
    97   48  171 1    
    98   48  172 1    
    99   48  173 1    
   100   49   50 am   BACKBONE|DICT|INTERRES
   101   49  174 1    
   102   50   51 2    
   103   50   52 1    
   104   52   53 1    
   105   52   54 1    
   106   52  175 1    
   107   53  176 1    
   108   53  177 1    
   109   53  178 1    
   110   54   55 am   BACKBONE|DICT|INTERRES
   111   54  179 1    
   112   55   56 2    
   113   55   57 1    
   114   57   58 1    
   115   57   59 1    
   116   57  180 1    
   117   58  181 1    
   118   58  182 1    
   119   58  183 1    
   120   59   60 am   BACKBONE|DICT|INTERRES
   121   59  184 1    
   122   60   61 2    
   123   60   62 1    
   124   62   63 1    
   125   62   64 1    
   126   62  185 1    
   127   63  186 1    
   128   63  187 1    
   129   63  188 1    
   130   64   65 am   BACKBONE|DICT|INTERRES
   131   64  189 1    
   132   65   66 2    
   133   67   68 2    
   134   67   69 am   BACKBONE|DICT|INTERRES
   135   69   70 1    
   136   69  190 1    
   137   70   71 1    
   138   70   72 1    
   139   70  191 1    
   140   71  192 1    
   141   71  193 1    
   142   71  194 1    
   143   72   73 2    
   144   72   74 am   BACKBONE|DICT|INTERRES
   145   74   75 1    
   146   74  195 1    
   147   75   76 1    
   148   75   77 1    
   149   75  196 1    
   150   76  197 1    
   151   76  198 1    
   152   76  199 1    
   153   77   78 2    
   154   77   79 am   BACKBONE|DICT|INTERRES
   155   79   80 1    
   156   79  200 1    
   157   80   81 1    
   158   80   82 1    
   159   80  201 1    
   160   81  202 1    
   161   81  203 1    
   162   81  204 1    
   163   82   83 2    
   164   82   84 am   BACKBONE|DICT|INTERRES
   165   84   85 1    
   166   84  205 1    
   167   85   86 1    
   168   85   87 1    
   169   85  206 1    
   170   86  207 1    
   171   86  208 1    
   172   86  209 1    
   173   87   88 2    
   174   87   89 am   BACKBONE|DICT|INTERRES
   175   89   90 1    
   176   89  210 1    
   177   90   91 1    
   178   90   92 1    
   179   90  211 1    
   180   91  212 1    
   181   91  213 1    
   182   91  214 1    
   183   92   93 2    
   184   92   94 am   BACKBONE|DICT|INTERRES
   185   94   95 1    
   186   94  215 1    
   187   95   96 1    
   188   95   97 1    
   189   95  216 1    
   190   96  217 1    
   191   96  218 1    
   192   96  219 1    
   193   97   98 2    
   194   97   99 am   BACKBONE|DICT|INTERRES
   195   99  100 1    
   196   99  220 1    
   197  100  101 1    
   198  100  102 1    
   199  100  221 1    
   200  101  222 1    
   201  101  223 1    
   202  101  224 1    
   203  102  103 2    
   204  102  104 am   BACKBONE|DICT|INTERRES
   205  104  105 1    
   206  104  225 1    
   207  105  106 1    
   208  105  107 1    
   209  105  226 1    
   210  106  227 1    
   211  106  228 1    
   212  106  229 1    
   213  107  108 2    
   214  107  109 am   BACKBONE|DICT|INTERRES
   215  109  110 1    
   216  109  230 1    
   217  110  111 1    
   218  110  112 1    
   219  110  231 1    
   220  111  232 1    
   221  111  233 1    
   222  111  234 1    
   223  112  113 2    
   224  112  114 am   BACKBONE|DICT|INTERRES
   225  114  115 1    
   226  114  235 1    
   227  115  116 1    
   228  115  117 1    
   229  115  236 1    
   230  116  237 1    
   231  116  238 1    
   232  116  239 1    
   233  117  118 2    
   234  117  119 am   BACKBONE|DICT|INTERRES
   235  119  120 1    
   236  119  240 1    
   237  120  121 1    
   238  120  124 1    
   239  120  241 1    
   240  121  122 am   BACKBONE|DICT|INTERRES
   241  121  123 2    
   242  122  242 1    
   243  122  243 1    
   244  124  125 1    
   245  124  244 1    
   246  124  245 1    
   247  125  126 1    
   248  126  246 1    
   249  126  247 1    
@<TRIPOS>SUBSTRUCTURE
     1 UNK         1 GROUP             0       ****    0 ROOT    
