@<TRIPOS>MOLECULE
3R540
247   249    1
SMALL
USER_CHARGES


@<TRIPOS>ATOM
      1 CA         -6.6587  -15.0168  -47.1094 C.3       0 UNK        -0.1800 
      2 C          -5.1739  -14.8786  -46.8074 C.2       0 UNK         0.5000 
      3 O          -4.7403  -13.8344  -46.3203 O.2       0 UNK        -0.5000 
      4 N          -4.3931  -15.9339  -47.0780 N.am      1 UNK        -0.5000 
      5 CA         -2.9308  -15.9779  -46.9117 C.3       1 UNK         0.1400 
      6 C6         -2.3011  -17.2434  -47.5517 C.3       23 UNK        -0.0398 
      7 S7         -2.7924  -17.4573  -49.2994 S.3       23 UNK        -0.2404 
      8 C8         -1.3550  -16.7981  -50.2017 C.3       23 UNK        -0.0205 
      9 C9         -0.4313  -17.9123  -50.6694 C.ar      23 UNK        -0.0193 
     10 C10        -0.6311  -18.5098  -51.9180 C.ar      23 UNK        -0.1150 
     11 C11         0.2026  -19.5437  -52.3558 C.ar      23 UNK        -0.0193 
     12 C12         1.2450  -19.9759  -51.5320 C.ar      23 UNK        -0.1150 
     13 C13         1.4449  -19.3984  -50.2756 C.ar      23 UNK        -0.0193 
     14 C14         0.6136  -18.3554  -49.8551 C.ar      23 UNK        -0.1150 
     15 C15         2.5224  -19.9443  -49.3509 C.3       23 UNK        -0.0205 
     16 S16         2.0282  -21.5395  -48.6201 S.3       23 UNK        -0.2404 
     17 C17         0.4032  -21.1124  -47.9112 C.3       23 UNK        -0.0398 
     18 CA         -0.0686  -22.1274  -46.8494 C.3       11 UNK         0.1400 
     19 N           0.6988  -22.0530  -45.6038 N.am      11 UNK        -0.5000 
     20 C           0.5935  -22.9259  -44.5914 C.2       10 UNK         0.5000 
     21 O          -0.0929  -23.9462  -44.6409 O.2       10 UNK        -0.5000 
     22 CA          1.3216  -22.5665  -43.2814 C.3       10 UNK         0.1400 
     23 CB          2.8034  -22.9653  -43.3376 C.3       10 UNK        -0.1800 
     24 N           1.1967  -21.1443  -42.9535 N.am      10 UNK        -0.5000 
     25 C           0.0362  -20.5400  -42.6586 C.2       9 UNK         0.5000 
     26 O          -1.0307  -21.1435  -42.5415 O.2       9 UNK        -0.5000 
     27 CA          0.0578  -19.0047  -42.5316 C.3       9 UNK         0.1400 
     28 CB          0.4126  -18.5639  -41.1042 C.3       9 UNK        -0.1800 
     29 N           0.9838  -18.3919  -43.4838 N.am      9 UNK        -0.5000 
     30 C           0.7575  -18.3112  -44.8020 C.2       8 UNK         0.5000 
     31 O          -0.2783  -18.7029  -45.3392 O.2       8 UNK        -0.5000 
     32 CA          1.9058  -17.7783  -45.6793 C.3       8 UNK         0.1400 
     33 CB          1.8561  -16.2557  -45.8125 C.3       8 UNK        -0.1800 
     34 N           3.2232  -18.1758  -45.1863 N.am      8 UNK        -0.5000 
     35 C           3.6780  -19.4342  -45.2350 C.2       7 UNK         0.5000 
     36 O           3.0298  -20.3680  -45.7001 O.2       7 UNK        -0.5000 
     37 CA          5.0602  -19.7111  -44.6189 C.3       7 UNK         0.1400 
     38 CB          6.1665  -19.4878  -45.6602 C.3       7 UNK        -0.1800 
     39 N           5.3451  -18.9089  -43.4283 N.am      7 UNK        -0.5000 
     40 C           4.6104  -18.8990  -42.3078 C.2       6 UNK         0.5000 
     41 O           3.5788  -19.5572  -42.1653 O.2       6 UNK        -0.5000 
     42 CA          5.0933  -18.0052  -41.1492 C.3       6 UNK         0.1400 
     43 CB          6.4966  -17.3924  -41.3622 C.3       6 UNK        -0.1800 
     44 N           4.1279  -16.9536  -40.8165 N.am      6 UNK        -0.5000 
     45 C           3.6669  -15.9845  -41.6211 C.2       5 UNK         0.5000 
     46 O           3.9245  -15.9048  -42.8256 O.2       5 UNK        -0.5000 
     47 CA          2.8078  -14.9080  -40.9268 C.3       5 UNK         0.1400 
     48 CB          3.6150  -14.1787  -39.8370 C.3       5 UNK        -0.1800 
     49 N           2.3072  -13.9000  -41.8605 N.am      5 UNK        -0.5000 
     50 C           1.1833  -14.0092  -42.5745 C.2       4 UNK         0.5000 
     51 O           0.4521  -15.0017  -42.5500 O.2       4 UNK        -0.5000 
     52 CA          0.8188  -12.7910  -43.4427 C.3       4 UNK         0.1400 
     53 CB          1.5035  -12.8466  -44.8165 C.3       4 UNK        -0.1800 
     54 N          -0.6253  -12.7525  -43.6401 N.am      4 UNK        -0.5000 
     55 C          -1.4582  -11.8500  -43.1050 C.2       3 UNK         0.5000 
     56 O          -1.0819  -10.8451  -42.5000 O.2       3 UNK        -0.5000 
     57 CA         -2.9727  -12.1180  -43.2469 C.3       3 UNK         0.1400 
     58 CB         -3.5577  -11.2971  -44.4057 C.3       3 UNK        -0.1800 
     59 N          -3.2901  -13.5318  -43.4569 N.am      3 UNK        -0.5000 
     60 C          -3.0555  -14.5080  -42.5664 C.2       2 UNK         0.5000 
     61 O          -2.7127  -14.2907  -41.4035 O.2       2 UNK        -0.5000 
     62 CA         -3.2113  -15.9683  -43.0424 C.3       2 UNK         0.1400 
     63 CB         -4.3962  -16.6356  -42.3249 C.3       2 UNK        -0.1800 
     64 N          -3.3822  -16.1280  -44.4909 N.am      2 UNK        -0.5000 
     65 C          -2.4855  -15.8113  -45.4396 C.2       1 UNK         0.5000 
     66 O          -1.3774  -15.3385  -45.1944 O.2       1 UNK        -0.5000 
     67 C          -1.5805  -21.9709  -46.5995 C.2       11 UNK         0.5000 
     68 O          -2.3559  -22.7268  -47.1795 O.2       11 UNK        -0.5000 
     69 N          -1.9832  -21.0358  -45.7246 N.am      12 UNK        -0.5000 
     70 CA         -3.3776  -20.8235  -45.3195 C.3       12 UNK         0.1400 
     71 CB         -3.4798  -19.6250  -44.3702 C.3       12 UNK        -0.1800 
     72 C          -4.0158  -22.0734  -44.6889 C.2       12 UNK         0.5000 
     73 O          -5.1380  -22.4282  -45.0511 O.2       12 UNK        -0.5000 
     74 N          -3.2592  -22.7521  -43.8149 N.am      13 UNK        -0.5000 
     75 CA         -3.6266  -24.0340  -43.2079 C.3       13 UNK         0.1400 
     76 CB         -2.6135  -24.3780  -42.1058 C.3       13 UNK        -0.1800 
     77 C          -3.7431  -25.1886  -44.2267 C.2       13 UNK         0.5000 
     78 O          -4.5023  -26.1284  -43.9907 O.2       13 UNK        -0.5000 
     79 N          -3.0317  -25.0796  -45.3558 N.am      14 UNK        -0.5000 
     80 CA         -3.0742  -25.9923  -46.4983 C.3       14 UNK         0.1400 
     81 CB         -1.6475  -26.1494  -47.0557 C.3       14 UNK        -0.1800 
     82 C          -4.0744  -25.5098  -47.5729 C.2       14 UNK         0.5000 
     83 O          -3.7972  -25.6271  -48.7682 O.2       14 UNK        -0.5000 
     84 N          -5.2167  -24.9588  -47.1325 N.am      15 UNK        -0.5000 
     85 CA         -6.3372  -24.4595  -47.9414 C.3       15 UNK         0.1400 
     86 CB         -7.0632  -25.6297  -48.6370 C.3       15 UNK        -0.1800 
     87 C          -5.9312  -23.3362  -48.9200 C.2       15 UNK         0.5000 
     88 O          -6.3726  -23.3195  -50.0706 O.2       15 UNK        -0.5000 
     89 N          -5.0626  -22.4351  -48.4406 N.am      16 UNK        -0.5000 
     90 CA         -4.4499  -21.3079  -49.1563 C.3       16 UNK         0.1400 
     91 CB         -5.5232  -20.3194  -49.6561 C.3       16 UNK        -0.1800 
     92 C          -3.4585  -21.7257  -50.2631 C.2       16 UNK         0.5000 
     93 O          -3.0480  -20.8726  -51.0475 O.2       16 UNK        -0.5000 
     94 N          -3.0860  -23.0161  -50.3055 N.am      17 UNK        -0.5000 
     95 CA         -2.1243  -23.6434  -51.2186 C.3       17 UNK         0.1400 
     96 CB         -0.6909  -23.2233  -50.8383 C.3       17 UNK        -0.1800 
     97 C          -2.4394  -23.4214  -52.7156 C.2       17 UNK         0.5000 
     98 O          -1.5176  -23.3336  -53.5275 O.2       17 UNK        -0.5000 
     99 N          -3.7392  -23.3371  -53.0441 N.am      18 UNK        -0.5000 
    100 CA        -4.3021  -22.9802  -54.3504 C.3       18 UNK         0.1400 
    101 CB        -3.9635  -24.0398  -55.4204 C.3       18 UNK        -0.1800 
    102 C         -3.9009  -21.5498  -54.7654 C.2       18 UNK         0.5000 
    103 O         -3.2057  -21.3560  -55.7641 O.2       18 UNK        -0.5000 
    104 N         -4.3576  -20.5639  -53.9789 N.am      19 UNK        -0.5000 
    105 CA        -4.0590  -19.1329  -54.1217 C.3       19 UNK         0.1400 
    106 CB        -4.7644  -18.3481  -53.0072 C.3       19 UNK        -0.1800 
    107 C         -4.3745  -18.5216  -55.4998 C.2       19 UNK         0.5000 
    108 O         -3.7346  -17.5416  -55.8801 O.2       19 UNK        -0.5000 
    109 N         -5.3043  -19.1322  -56.2461 N.am      20 UNK        -0.5000 
    110 CA        -5.6191  -18.7956  -57.6354 C.3       20 UNK         0.1400 
    111 CB        -6.8303  -19.6261  -58.0863 C.3       20 UNK        -0.1800 
    112 C         -4.4367  -18.9940  -58.6087 C.2       20 UNK         0.5000 
    113 O         -4.3758  -18.2972  -59.6224 O.2       20 UNK        -0.5000 
    114 N         -3.5194  -19.9204  -58.2905 N.am      21 UNK        -0.5000 
    115 CA        -2.2925  -20.1512  -59.0534 C.3       21 UNK         0.1400 
    116 CB        -1.7996  -21.5872  -58.8147 C.3       21 UNK        -0.1800 
    117 C         -1.1941  -19.1340  -58.6947 C.2       21 UNK         0.5000 
    118 O         -0.4536  -18.7090  -59.5829 O.2       21 UNK        -0.5000 
    119 N         -1.1053  -18.7655  -57.4096 N.am      22 UNK        -0.5000 
    120 CA        -0.1437  -17.7745  -56.8978 C.3       22 UNK         0.1400 
    121 C         -0.5401  -16.3053  -57.2128 C.2       22 UNK         0.5000 
    122 N         -1.8194  -15.9548  -57.2156 N.am      22 UNK        -0.7600 
    123 O          0.3267  -15.4731  -57.4660 O.2       22 UNK        -0.5000 
    124 C124        0.1348  -17.9537  -55.3844 C.3       23 UNK        -0.0398 
    125 S125        0.9766  -19.5338  -55.0264 S.3       23 UNK        -0.2404 
    126 C126       -0.0411  -20.2337  -53.6909 C.3       23 UNK        -0.0205 
    127 H127       -6.8978  -15.9936  -47.5307 H         1 UNK         0.0600 
    128 H128       -6.9679  -14.2534  -47.8234 H         1 UNK         0.0600 
    129 H129       -7.2404  -14.8874  -46.1968 H         1 UNK         0.0600 
    130 H130       -4.8037  -16.7551  -47.4989 H         1 UNK         0.3000 
    131 H131       -2.5313  -15.1137  -47.4469 H         1 UNK         0.0600 
    132 H132       -2.6075  -18.1398  -47.0116 H         1 UNK         0.0800 
    133 H133       -1.2128  -17.2100  -47.4824 H         1 UNK         0.0800 
    134 H134       -0.8116  -16.0802  -49.5857 H         1 UNK         0.0800 
    135 H135       -1.7167  -16.2381  -51.0653 H         1 UNK         0.0800 
    136 H136       -1.4502  -18.1776  -52.5368 H         1 UNK         0.1150 
    137 H137        1.8797  -20.7900  -51.8529 H         1 UNK         0.1150 
    138 H138        0.7601  -17.9067  -48.8835 H         1 UNK         0.1150 
    139 H139        3.4494  -20.0807  -49.9094 H         1 UNK         0.0800 
    140 H140        2.7484  -19.2362  -48.5535 H         1 UNK         0.0800 
    141 H141       -0.3049  -21.0621  -48.7412 H         1 UNK         0.0800 
    142 H142        0.4452  -20.1100  -47.4859 H         1 UNK         0.0800 
    143 H143        0.0769  -23.1297  -47.2575 H         1 UNK         0.0600 
    144 H144        1.3669  -21.2908  -45.5270 H         1 UNK         0.3000 
    145 H145        0.8521  -23.1338  -42.4749 H         1 UNK         0.0600 
    146 H146        3.3181  -22.7074  -42.4118 H         1 UNK         0.0600 
    147 H147        2.9085  -24.0413  -43.4812 H         1 UNK         0.0600 
    148 H148        3.3255  -22.4765  -44.1589 H         1 UNK         0.0600 
    149 H149        2.0442  -20.5866  -42.9707 H         1 UNK         0.3000 
    150 H150       -0.9473  -18.6401  -42.7526 H         1 UNK         0.0600 
    151 H151       -0.2929  -18.9791  -40.3836 H         1 UNK         0.0600 
    152 H152        0.3735  -17.4785  -41.0088 H         1 UNK         0.0600 
    153 H153        1.4101  -18.8913  -40.8117 H         1 UNK         0.0600 
    154 H154        1.8824  -18.1015  -43.1258 H         1 UNK         0.3000 
    155 H155        1.7761  -18.2002  -46.6763 H         1 UNK         0.0600 
    156 H156        1.9421  -15.7737  -44.8395 H         1 UNK         0.0600 
    157 H157        0.9174  -15.9376  -46.2648 H         1 UNK         0.0600 
    158 H158        2.6621  -15.8844  -46.4453 H         1 UNK         0.0600 
    159 H159        3.7846  -17.4633  -44.7378 H         1 UNK         0.3000 
    160 H160        5.0818  -20.7605  -44.3193 H         1 UNK         0.0600 
    161 H161        6.2211  -18.4442  -45.9725 H         1 UNK         0.0600 
    162 H162        5.9886  -20.0889  -46.5531 H         1 UNK         0.0600 
    163 H163        7.1425  -19.7733  -45.2672 H         1 UNK         0.0600 
    164 H164        6.1650  -18.3212  -43.4662 H         1 UNK         0.3000 
    165 H165        5.1515  -18.6568  -40.2761 H         1 UNK         0.0600 
    166 H166        6.5244  -16.7039  -42.2077 H         1 UNK         0.0600 
    167 H167        6.8136  -16.8370  -40.4794 H         1 UNK         0.0600 
    168 H168        7.2450  -18.1671  -41.5345 H         1 UNK         0.0600 
    169 H169        3.8236  -16.9511  -39.8533 H         1 UNK         0.3000 
    170 H170        1.9615  -15.4093  -40.4519 H         1 UNK         0.0600 
    171 H171        4.5070  -13.7037  -40.2477 H         1 UNK         0.0600 
    172 H172        3.0164  -13.4049  -39.3555 H         1 UNK         0.0600 
    173 H173        3.9397  -14.8617  -39.0515 H         1 UNK         0.0600 
    174 H174        2.8828  -13.0788  -41.9758 H         1 UNK         0.3000 
    175 H175        1.1629  -11.8939  -42.9239 H         1 UNK         0.0600 
    176 H176        2.5711  -13.0507  -44.7243 H         1 UNK         0.0600 
    177 H177        1.3971  -11.8967  -45.3404 H         1 UNK         0.0600 
    178 H178        1.0682  -13.6182  -45.4502 H         1 UNK         0.0600 
    179 H179       -1.0163  -13.5896  -44.0612 H         1 UNK         0.3000 
    180 H180       -3.4536  -11.7973  -42.3206 H         1 UNK         0.0600 
    181 H181       -4.6375  -11.4290  -44.4773 H         1 UNK         0.0600 
    182 H182       -3.1213  -11.5871  -45.3624 H         1 UNK         0.0600 
    183 H183       -3.3684  -10.2320  -44.2663 H         1 UNK         0.0600 
    184 H184       -3.6074  -13.7872  -44.3843 H         1 UNK         0.3000 
    185 H185       -2.2956  -16.4911  -42.7586 H         1 UNK         0.0600 
    186 H186       -4.4441  -17.7018  -42.5373 H         1 UNK         0.0600 
    187 H187       -4.3087  -16.5337  -41.2423 H         1 UNK         0.0600 
    188 H188       -5.3466  -16.1890  -42.6195 H         1 UNK         0.0600 
    189 H189       -4.2830  -16.4644  -44.7968 H         1 UNK         0.3000 
    190 H190       -1.2933  -20.4031  -45.3315 H         1 UNK         0.3000 
    191 H191       -3.9456  -20.5755  -46.2153 H         1 UNK         0.0600 
    192 H192       -4.5197  -19.3163  -44.2621 H         1 UNK         0.0600 
    193 H193       -2.9200  -18.7727  -44.7470 H         1 UNK         0.0600 
    194 H194       -3.1037  -19.8530  -43.3738 H         1 UNK         0.0600 
    195 H195       -2.3604  -22.3617  -43.5494 H         1 UNK         0.3000 
    196 H196       -4.6062  -23.9107  -42.7418 H         1 UNK         0.0600 
    197 H197       -1.6094  -24.5112  -42.5084 H         1 UNK         0.0600 
    198 H198       -2.5690  -23.5920  -41.3516 H         1 UNK         0.0600 
    199 H199       -2.8884  -25.3028  -41.5972 H         1 UNK         0.0600 
    200 H200       -2.4540  -24.2576  -45.4780 H         1 UNK         0.3000 
    201 H201       -3.4111  -26.9767  -46.1683 H         1 UNK         0.0600 
    202 H202       -1.6147  -26.9002  -47.8460 H         1 UNK         0.0600 
    203 H203       -1.2740  -25.2151  -47.4751 H         1 UNK         0.0600 
    204 H204       -0.9527  -26.4667  -46.2778 H         1 UNK         0.0600 
    205 H205       -5.3291  -24.8634  -46.1324 H         1 UNK         0.3000 
    206 H206       -7.0399  -24.0068  -47.2404 H         1 UNK         0.0600 
    207 H207       -7.3609  -26.3925  -47.9175 H         1 UNK         0.0600 
    208 H208       -7.9695  -25.2864  -49.1372 H         1 UNK         0.0600 
    209 H209       -6.4347  -26.1060  -49.3901 H         1 UNK         0.0600 
    210 H210       -4.7033  -22.5951  -47.5077 H         1 UNK         0.3000 
    211 H211       -3.8443  -20.7732  -48.4269 H         1 UNK         0.0600 
    212 H212       -5.0694  -19.3786  -49.9643 H         1 UNK         0.0600 
    213 H213       -6.2412  -20.0840  -48.8707 H         1 UNK         0.0600 
    214 H214       -6.0739  -20.7118  -50.5112 H         1 UNK         0.0600 
    215 H215       -3.4788  -23.6403  -49.6100 H         1 UNK         0.3000 
    216 H216       -2.2063  -24.7182  -51.0517 H         1 UNK         0.0600 
    217 H217        0.0516  -23.7531  -51.4357 H         1 UNK         0.0600 
    218 H218       -0.4818  -23.4472  -49.7925 H         1 UNK         0.0600 
    219 H219       -0.5351  -22.1557  -50.9913 H         1 UNK         0.0600 
    220 H220       -4.4064  -23.4211  -52.2891 H         1 UNK         0.3000 
    221 H221       -5.3863  -22.9783  -54.2294 H         1 UNK         0.0600 
    222 H222       -4.2803  -25.0338  -55.1050 H         1 UNK         0.0600 
    223 H223       -2.8958  -24.0813  -55.6371 H         1 UNK         0.0600 
    224 H224       -4.4735  -23.8178  -56.3585 H         1 UNK         0.0600 
    225 H225       -4.8795  -20.8191  -53.1537 H         1 UNK         0.3000 
    226 H226       -2.9868  -19.0156  -53.9791 H         1 UNK         0.0600 
    227 H227       -4.3740  -18.6296  -52.0303 H         1 UNK         0.0600 
    228 H228       -4.6012  -17.2748  -53.1152 H         1 UNK         0.0600 
    229 H229       -5.8410  -18.5210  -53.0085 H         1 UNK         0.0600 
    230 H230       -5.7778  -19.9328  -55.8550 H         1 UNK         0.3000 
    231 H231       -5.8956  -17.7397  -57.6674 H         1 UNK         0.0600 
    232 H232       -6.6201  -20.6959  -58.0496 H         1 UNK         0.0600 
    233 H233       -7.1117  -19.3819  -59.1116 H         1 UNK         0.0600 
    234 H234       -7.6993  -19.4315  -57.4575 H         1 UNK         0.0600 
    235 H235       -3.6151  -20.4438  -57.4247 H         1 UNK         0.3000 
    236 H236       -2.5125  -20.0482  -60.1183 H         1 UNK         0.0600 
    237 H237       -2.5700  -22.3166  -59.0652 H         1 UNK         0.0600 
    238 H238       -0.9291  -21.8062  -59.4342 H         1 UNK         0.0600 
    239 H239       -1.5089  -21.7496  -57.7763 H         1 UNK         0.0600 
    240 H240       -1.7559  -19.1567  -56.7455 H         1 UNK         0.3000 
    241 H241        0.8039  -17.9429  -57.4142 H         1 UNK         0.0600 
    242 H242       -2.5377  -16.6051  -56.9037 H         1 UNK         0.3800 
    243 H243       -2.0714  -15.0031  -57.4281 H         1 UNK         0.3800 
    244 H244       -0.7960  -17.8819  -54.8213 H         1 UNK         0.0800 
    245 H245        0.7792  -17.1555  -55.0113 H         1 UNK         0.0800 
    246 H246        0.2072  -21.2913  -53.5945 H         1 UNK         0.0800 
    247 H247       -1.0949  -20.2067  -53.9633 H         1 UNK         0.0800 
@<TRIPOS>BOND
     1    1    2 1    
     2    1  127 1    
     3    1  128 1    
     4    1  129 1    
     5    2    3 2    
     6    2    4 am   BACKBONE|DICT|INTERRES
     7    4    5 1    
     8    4  130 1    
     9    5    6 1    
    10    5   65 1    
    11    5  131 1    
    12    6    7 1    
    13    6  132 1    
    14    6  133 1    
    15    7    8 1    
    16    8    9 1    
    17    8  134 1    
    18    8  135 1    
    19    9   10 ar   
    20    9   14 ar   
    21   10   11 ar   
    22   10  136 1    
    23   11   12 ar   
    24   11  126 1    
    25   12   13 ar   
    26   12  137 1    
    27   13   14 ar   
    28   13   15 1    
    29   14  138 1    
    30   15   16 1    
    31   15  139 1    
    32   15  140 1    
    33   16   17 1    
    34   17   18 1    
    35   17  141 1    
    36   17  142 1    
    37   18   19 1    
    38   18   67 1    
    39   18  143 1    
    40   19   20 am   BACKBONE|DICT|INTERRES
    41   19  144 1    
    42   20   21 2    
    43   20   22 1    
    44   22   23 1    
    45   22   24 1    
    46   22  145 1    
    47   23  146 1    
    48   23  147 1    
    49   23  148 1    
    50   24   25 am   BACKBONE|DICT|INTERRES
    51   24  149 1    
    52   25   26 2    
    53   25   27 1    
    54   27   28 1    
    55   27   29 1    
    56   27  150 1    
    57   28  151 1    
    58   28  152 1    
    59   28  153 1    
    60   29   30 am   BACKBONE|DICT|INTERRES
    61   29  154 1    
    62   30   31 2    
    63   30   32 1    
    64   32   33 1    
    65   32   34 1    
    66   32  155 1    
    67   33  156 1    
    68   33  157 1    
    69   33  158 1    
    70   34   35 am   BACKBONE|DICT|INTERRES
    71   34  159 1    
    72   35   36 2    
    73   35   37 1    
    74   37   38 1    
    75   37   39 1    
    76   37  160 1    
    77   38  161 1    
    78   38  162 1    
    79   38  163 1    
    80   39   40 am   BACKBONE|DICT|INTERRES
    81   39  164 1    
    82   40   41 2    
    83   40   42 1    
    84   42   43 1    
    85   42   44 1    
    86   42  165 1    
    87   43  166 1    
    88   43  167 1    
    89   43  168 1    
    90   44   45 am   BACKBONE|DICT|INTERRES
    91   44  169 1    
    92   45   46 2    
    93   45   47 1    
    94   47   48 1    
    95   47   49 1    
    96   47  170 1    
    97   48  171 1    
    98   48  172 1    
    99   48  173 1    
   100   49   50 am   BACKBONE|DICT|INTERRES
   101   49  174 1    
   102   50   51 2    
   103   50   52 1    
   104   52   53 1    
   105   52   54 1    
   106   52  175 1    
   107   53  176 1    
   108   53  177 1    
   109   53  178 1    
   110   54   55 am   BACKBONE|DICT|INTERRES
   111   54  179 1    
   112   55   56 2    
   113   55   57 1    
   114   57   58 1    
   115   57   59 1    
   116   57  180 1    
   117   58  181 1    
   118   58  182 1    
   119   58  183 1    
   120   59   60 am   BACKBONE|DICT|INTERRES
   121   59  184 1    
   122   60   61 2    
   123   60   62 1    
   124   62   63 1    
   125   62   64 1    
   126   62  185 1    
   127   63  186 1    
   128   63  187 1    
   129   63  188 1    
   130   64   65 am   BACKBONE|DICT|INTERRES
   131   64  189 1    
   132   65   66 2    
   133   67   68 2    
   134   67   69 am   BACKBONE|DICT|INTERRES
   135   69   70 1    
   136   69  190 1    
   137   70   71 1    
   138   70   72 1    
   139   70  191 1    
   140   71  192 1    
   141   71  193 1    
   142   71  194 1    
   143   72   73 2    
   144   72   74 am   BACKBONE|DICT|INTERRES
   145   74   75 1    
   146   74  195 1    
   147   75   76 1    
   148   75   77 1    
   149   75  196 1    
   150   76  197 1    
   151   76  198 1    
   152   76  199 1    
   153   77   78 2    
   154   77   79 am   BACKBONE|DICT|INTERRES
   155   79   80 1    
   156   79  200 1    
   157   80   81 1    
   158   80   82 1    
   159   80  201 1    
   160   81  202 1    
   161   81  203 1    
   162   81  204 1    
   163   82   83 2    
   164   82   84 am   BACKBONE|DICT|INTERRES
   165   84   85 1    
   166   84  205 1    
   167   85   86 1    
   168   85   87 1    
   169   85  206 1    
   170   86  207 1    
   171   86  208 1    
   172   86  209 1    
   173   87   88 2    
   174   87   89 am   BACKBONE|DICT|INTERRES
   175   89   90 1    
   176   89  210 1    
   177   90   91 1    
   178   90   92 1    
   179   90  211 1    
   180   91  212 1    
   181   91  213 1    
   182   91  214 1    
   183   92   93 2    
   184   92   94 am   BACKBONE|DICT|INTERRES
   185   94   95 1    
   186   94  215 1    
   187   95   96 1    
   188   95   97 1    
   189   95  216 1    
   190   96  217 1    
   191   96  218 1    
   192   96  219 1    
   193   97   98 2    
   194   97   99 am   BACKBONE|DICT|INTERRES
   195   99  100 1    
   196   99  220 1    
   197  100  101 1    
   198  100  102 1    
   199  100  221 1    
   200  101  222 1    
   201  101  223 1    
   202  101  224 1    
   203  102  103 2    
   204  102  104 am   BACKBONE|DICT|INTERRES
   205  104  105 1    
   206  104  225 1    
   207  105  106 1    
   208  105  107 1    
   209  105  226 1    
   210  106  227 1    
   211  106  228 1    
   212  106  229 1    
   213  107  108 2    
   214  107  109 am   BACKBONE|DICT|INTERRES
   215  109  110 1    
   216  109  230 1    
   217  110  111 1    
   218  110  112 1    
   219  110  231 1    
   220  111  232 1    
   221  111  233 1    
   222  111  234 1    
   223  112  113 2    
   224  112  114 am   BACKBONE|DICT|INTERRES
   225  114  115 1    
   226  114  235 1    
   227  115  116 1    
   228  115  117 1    
   229  115  236 1    
   230  116  237 1    
   231  116  238 1    
   232  116  239 1    
   233  117  118 2    
   234  117  119 am   BACKBONE|DICT|INTERRES
   235  119  120 1    
   236  119  240 1    
   237  120  121 1    
   238  120  124 1    
   239  120  241 1    
   240  121  122 am   BACKBONE|DICT|INTERRES
   241  121  123 2    
   242  122  242 1    
   243  122  243 1    
   244  124  125 1    
   245  124  244 1    
   246  124  245 1    
   247  125  126 1    
   248  126  246 1    
   249  126  247 1    
@<TRIPOS>SUBSTRUCTURE
     1 UNK         1 GROUP             0       ****    0 ROOT    
