@<TRIPOS>MOLECULE
3R540
247   249    1
SMALL
USER_CHARGES


@<TRIPOS>ATOM
      1 CA         -1.9492  -14.8348  -44.5290 C.3       0 UNK        -0.1800 
      2 C          -1.8263  -13.9357  -45.7479 C.2       0 UNK         0.5000 
      3 O          -1.9554  -12.7187  -45.6273 O.2       0 UNK        -0.5000 
      4 N          -1.5451  -14.5279  -46.9163 N.am      1 UNK        -0.5000 
      5 CA         -1.3574  -13.8462  -48.2058 C.3       1 UNK         0.1400 
      6 C6         -1.2119  -14.8929  -49.3389 C.3       23 UNK        -0.0398 
      7 S7         -1.0710  -14.2127  -51.0313 S.3       23 UNK        -0.2404 
      8 C8          0.7099  -14.4135  -51.3762 C.3       23 UNK        -0.0205 
      9 C9          1.0998  -15.8784  -51.5085 C.ar      23 UNK        -0.0193 
     10 C10         0.8452  -16.5684  -52.6957 C.ar      23 UNK        -0.1150 
     11 C11         1.1519  -17.9315  -52.8160 C.ar      23 UNK        -0.0193 
     12 C12         1.7331  -18.5907  -51.7255 C.ar      23 UNK        -0.1150 
     13 C13         2.0131  -17.9047  -50.5392 C.ar      23 UNK        -0.0193 
     14 C14         1.7055  -16.5467  -50.4428 C.ar      23 UNK        -0.1150 
     15 C15         2.6519  -18.6122  -49.3544 C.3       23 UNK        -0.0205 
     16 S16         1.4161  -19.0423  -48.0893 S.3       23 UNK        -0.2404 
     17 C17         0.8736  -20.6887  -48.6583 C.3       23 UNK        -0.0398 
     18 CA          0.0199  -21.4860  -47.6355 C.3       11 UNK         0.1400 
     19 N           0.6066  -21.5558  -46.2946 N.am      11 UNK        -0.5000 
     20 C           1.3750  -22.5769  -45.8927 C.2       10 UNK         0.5000 
     21 O           1.5632  -23.5952  -46.5606 O.2       10 UNK        -0.5000 
     22 CA          2.0962  -22.4500  -44.5430 C.3       10 UNK         0.1400 
     23 CB          3.4587  -21.7696  -44.7454 C.3       10 UNK        -0.1800 
     24 N           1.3398  -21.7530  -43.5015 N.am      10 UNK        -0.5000 
     25 C           0.2905  -22.2833  -42.8572 C.2       9 UNK         0.5000 
     26 O          -0.2484  -23.3414  -43.1838 O.2       9 UNK        -0.5000 
     27 CA         -0.2170  -21.5329  -41.6108 C.3       9 UNK         0.1400 
     28 CB          0.7388  -21.7390  -40.4252 C.3       9 UNK        -0.1800 
     29 N          -0.3903  -20.1024  -41.8389 N.am      9 UNK        -0.5000 
     30 C          -1.3845  -19.5729  -42.5615 C.2       8 UNK         0.5000 
     31 O          -2.2797  -20.2295  -43.0926 O.2       8 UNK        -0.5000 
     32 CA         -1.3215  -18.0529  -42.7906 C.3       8 UNK         0.1400 
     33 CB         -1.7875  -17.2735  -41.5529 C.3       8 UNK        -0.1800 
     34 N           0.0081  -17.6114  -43.2117 N.am      8 UNK        -0.5000 
     35 C           0.6459  -18.0782  -44.2962 C.2       7 UNK         0.5000 
     36 O           0.1539  -18.8886  -45.0840 O.2       7 UNK        -0.5000 
     37 CA          2.0863  -17.5897  -44.5147 C.3       7 UNK         0.1400 
     38 CB          2.0986  -16.2907  -45.3314 C.3       7 UNK        -0.1800 
     39 N           2.8094  -17.3892  -43.2566 N.am      7 UNK        -0.5000 
     40 C           3.1682  -18.3789  -42.4254 C.2       6 UNK         0.5000 
     41 O           2.9353  -19.5670  -42.6341 O.2       6 UNK        -0.5000 
     42 CA          3.8373  -17.9648  -41.1044 C.3       6 UNK         0.1400 
     43 CB          5.2763  -17.4814  -41.3412 C.3       6 UNK        -0.1800 
     44 N           3.0767  -16.9250  -40.4153 N.am      6 UNK        -0.5000 
     45 C           1.8224  -17.0701  -39.9636 C.2       5 UNK         0.5000 
     46 O           1.1987  -18.1313  -40.0043 O.2       5 UNK        -0.5000 
     47 CA          1.1386  -15.8044  -39.4115 C.3       5 UNK         0.1400 
     48 CB          1.2992  -15.7298  -37.8859 C.3       5 UNK        -0.1800 
     49 N           1.6395  -14.5632  -40.0112 N.am      5 UNK        -0.5000 
     50 C           1.5077  -14.2253  -41.3007 C.2       4 UNK         0.5000 
     51 O           0.9545  -14.9326  -42.1480 O.2       4 UNK        -0.5000 
     52 CA          2.1567  -12.9020  -41.7209 C.3       4 UNK         0.1400 
     53 CB          3.5962  -13.1385  -42.2085 C.3       4 UNK        -0.1800 
     54 N           1.3762  -12.3056  -42.7976 N.am      4 UNK        -0.5000 
     55 C           1.1727  -10.9938  -42.9699 C.2       3 UNK         0.5000 
     56 O           1.6313  -10.1277  -42.2221 O.2       3 UNK        -0.5000 
     57 CA          0.3200  -10.5971  -44.1934 C.3       3 UNK         0.1400 
     58 CB          0.3113   -9.0789  -44.4714 C.3       3 UNK        -0.1800 
     59 N           0.6880  -11.3530  -45.3960 N.am      3 UNK        -0.5000 
     60 C           1.8717  -11.3510  -46.0322 C.2       2 UNK         0.5000 
     61 O           2.8186  -10.6336  -45.7078 O.2       2 UNK        -0.5000 
     62 CA          2.0540  -12.3308  -47.2130 C.3       2 UNK         0.1400 
     63 CB          3.2816  -13.2281  -46.9861 C.3       2 UNK        -0.1800 
     64 N           0.8856  -13.1855  -47.4408 N.am      2 UNK        -0.5000 
     65 C          -0.1835  -12.8374  -48.1707 C.2       1 UNK         0.5000 
     66 O          -0.2836  -11.7588  -48.7565 O.2       1 UNK        -0.5000 
     67 C          -1.4562  -21.0666  -47.6252 C.2       11 UNK         0.5000 
     68 O          -2.2190  -21.6512  -48.3941 O.2       11 UNK        -0.5000 
     69 N          -1.8717  -20.1113  -46.7794 N.am      12 UNK        -0.5000 
     70 CA         -3.2554  -19.6138  -46.7907 C.3       12 UNK         0.1400 
     71 CB         -3.3877  -18.3264  -45.9673 C.3       12 UNK        -0.1800 
     72 C          -4.2693  -20.6782  -46.3306 C.2       12 UNK         0.5000 
     73 O          -5.2419  -20.9345  -47.0408 O.2       12 UNK        -0.5000 
     74 N          -3.9899  -21.3286  -45.1913 N.am      13 UNK        -0.5000 
     75 CA         -4.7906  -22.4282  -44.6400 C.3       13 UNK         0.1400 
     76 CB         -4.2867  -22.7639  -43.2280 C.3       13 UNK        -0.1800 
     77 C          -4.7928  -23.6937  -45.5211 C.2       13 UNK         0.5000 
     78 O          -5.7518  -24.4646  -45.4766 O.2       13 UNK        -0.5000 
     79 N          -3.7312  -23.8719  -46.3175 N.am      14 UNK        -0.5000 
     80 CA         -3.5780  -24.9553  -47.2887 C.3       14 UNK         0.1400 
     81 CB         -2.0766  -25.2385  -47.4646 C.3       14 UNK        -0.1800 
     82 C          -4.2261  -24.6380  -48.6520 C.2       14 UNK         0.5000 
     83 O          -4.1846  -25.4883  -49.5428 O.2       14 UNK        -0.5000 
     84 N          -4.7546  -23.4155  -48.8237 N.am      15 UNK        -0.5000 
     85 CA         -5.2979  -22.8527  -50.0642 C.3       15 UNK         0.1400 
     86 CB         -6.6212  -23.5456  -50.4481 C.3       15 UNK        -0.1800 
     87 C          -4.2663  -22.8560  -51.2113 C.2       15 UNK         0.5000 
     88 O          -4.6113  -23.1722  -52.3507 O.2       15 UNK        -0.5000 
     89 N          -3.0148  -22.5098  -50.8786 N.am      16 UNK        -0.5000 
     90 CA         -1.8184  -22.5427  -51.7260 C.3       16 UNK         0.1400 
     91 CB         -1.9277  -21.5241  -52.8770 C.3       16 UNK        -0.1800 
     92 C          -1.4570  -23.9691  -52.1911 C.2       16 UNK         0.5000 
     93 O          -0.9857  -24.1529  -53.3127 O.2       16 UNK        -0.5000 
     94 N          -1.6940  -24.9478  -51.3039 N.am      17 UNK        -0.5000 
     95 CA         -1.6004  -26.3945  -51.5242 C.3       17 UNK         0.1400 
     96 CB         -0.1555  -26.8287  -51.8496 C.3       17 UNK        -0.1800 
     97 C          -2.6412  -26.8634  -52.5601 C.2       17 UNK         0.5000 
     98 O          -2.2945  -27.5271  -53.5390 O.2       17 UNK        -0.5000 
     99 N          -3.9027  -26.4805  -52.3097 N.am      18 UNK        -0.5000 
    100 CA        -5.0884  -26.7147  -53.1396 C.3       18 UNK         0.1400 
    101 CB        -5.4589  -28.2124  -53.1476 C.3       18 UNK        -0.1800 
    102 C         -4.9537  -26.1114  -54.5549 C.2       18 UNK         0.5000 
    103 O         -5.1905  -26.7967  -55.5519 O.2       18 UNK        -0.5000 
    104 N         -4.5779  -24.8290  -54.6079 N.am      19 UNK        -0.5000 
    105 CA        -4.4079  -24.0365  -55.8243 C.3       19 UNK         0.1400 
    106 CB        -2.9096  -23.8506  -56.1199 C.3       19 UNK        -0.1800 
    107 C         -5.1683  -22.7057  -55.6877 C.2       19 UNK         0.5000 
    108 O         -4.6335  -21.6439  -56.0130 O.2       19 UNK        -0.5000 
    109 N         -6.4103  -22.7967  -55.1870 N.am      20 UNK        -0.5000 
    110 CA        -7.4198  -21.7336  -55.0879 C.3       20 UNK         0.1400 
    111 CB        -7.9223  -21.3572  -56.4976 C.3       20 UNK        -0.1800 
    112 C         -6.9864  -20.4960  -54.2705 C.2       20 UNK         0.5000 
    113 O         -7.4892  -19.3989  -54.5174 O.2       20 UNK        -0.5000 
    114 N         -6.0687  -20.6952  -53.3123 N.am      21 UNK        -0.5000 
    115 CA        -5.4405  -19.6645  -52.4766 C.3       21 UNK         0.1400 
    116 CB        -6.4695  -18.9783  -51.5537 C.3       21 UNK        -0.1800 
    117 C         -4.5668  -18.6758  -53.2775 C.2       21 UNK         0.5000 
    118 O         -4.4429  -17.5128  -52.8900 O.2       21 UNK        -0.5000 
    119 N         -3.9333  -19.1787  -54.3465 N.am      22 UNK        -0.5000 
    120 CA        -2.9913  -18.4611  -55.2172 C.3       22 UNK         0.1400 
    121 C         -3.6774  -17.4391  -56.1756 C.2       22 UNK         0.5000 
    122 N         -2.9070  -16.6285  -56.8890 N.am      22 UNK        -0.7600 
    123 O         -4.8974  -17.3901  -56.3161 O.2       22 UNK        -0.5000 
    124 C124       -1.7898  -17.8628  -54.4221 C.3       23 UNK        -0.0398 
    125 S125       -0.2085  -17.9440  -55.3318 S.3       23 UNK        -0.2404 
    126 C126        0.8926  -18.7296  -54.0984 C.3       23 UNK        -0.0205 
    127 H127       -1.5804  -15.8353  -44.7445 H         1 UNK         0.0600 
    128 H128       -2.9900  -14.9091  -44.2147 H         1 UNK         0.0600 
    129 H129       -1.3664  -14.4330  -43.7001 H         1 UNK         0.0600 
    130 H130       -1.4609  -15.5335  -46.9420 H         1 UNK         0.3000 
    131 H131       -2.2651  -13.2700  -48.3979 H         1 UNK         0.0600 
    132 H132       -2.0899  -15.5404  -49.3392 H         1 UNK         0.0800 
    133 H133       -0.3732  -15.5531  -49.1275 H         1 UNK         0.0800 
    134 H134        1.2948  -13.9266  -50.5944 H         1 UNK         0.0800 
    135 H135        0.9495  -13.8903  -52.3031 H         1 UNK         0.0800 
    136 H136        0.3961  -16.0292  -53.5163 H         1 UNK         0.1150 
    137 H137        1.9752  -19.6415  -51.8025 H         1 UNK         0.1150 
    138 H138        1.9200  -16.0166  -49.5253 H         1 UNK         0.1150 
    139 H139        3.1941  -19.5022  -49.6768 H         1 UNK         0.0800 
    140 H140        3.3959  -17.9545  -48.9024 H         1 UNK         0.0800 
    141 H141        1.7677  -21.2703  -48.8862 H         1 UNK         0.0800 
    142 H142        0.3461  -20.5762  -49.6072 H         1 UNK         0.0800 
    143 H143       -0.0235  -22.5001  -48.0380 H         1 UNK         0.0600 
    144 H144        0.5070  -20.7334  -45.7075 H         1 UNK         0.3000 
    145 H145        2.2886  -23.4639  -44.1853 H         1 UNK         0.0600 
    146 H146        4.0375  -21.7611  -43.8217 H         1 UNK         0.0600 
    147 H147        4.0530  -22.2965  -45.4931 H         1 UNK         0.0600 
    148 H148        3.3463  -20.7394  -45.0845 H         1 UNK         0.0600 
    149 H149        1.7504  -20.8886  -43.1555 H         1 UNK         0.3000 
    150 H150       -1.1861  -21.9570  -41.3387 H         1 UNK         0.0600 
    151 H151        0.8871  -22.8002  -40.2212 H         1 UNK         0.0600 
    152 H152        0.3419  -21.2846  -39.5172 H         1 UNK         0.0600 
    153 H153        1.7187  -21.2990  -40.6158 H         1 UNK         0.0600 
    154 H154        0.3047  -19.4837  -41.4360 H         1 UNK         0.3000 
    155 H155       -2.0023  -17.8043  -43.5987 H         1 UNK         0.0600 
    156 H156       -1.2429  -17.5664  -40.6572 H         1 UNK         0.0600 
    157 H157       -2.8443  -17.4601  -41.3595 H         1 UNK         0.0600 
    158 H158       -1.6664  -16.1986  -41.6886 H         1 UNK         0.0600 
    159 H159        0.4621  -16.9024  -42.6474 H         1 UNK         0.3000 
    160 H160        2.6084  -18.3566  -45.0904 H         1 UNK         0.0600 
    161 H161        1.6378  -15.4646  -44.7885 H         1 UNK         0.0600 
    162 H162        1.5577  -16.4139  -46.2706 H         1 UNK         0.0600 
    163 H163        3.1204  -16.0076  -45.5821 H         1 UNK         0.0600 
    164 H164        2.9836  -16.4347  -42.9807 H         1 UNK         0.3000 
    165 H165        3.8729  -18.8435  -40.4569 H         1 UNK         0.0600 
    166 H166        5.7792  -17.2673  -40.3980 H         1 UNK         0.0600 
    167 H167        5.8634  -18.2437  -41.8552 H         1 UNK         0.0600 
    168 H168        5.3070  -16.5770  -41.9500 H         1 UNK         0.0600 
    169 H169        3.5142  -16.0204  -40.3275 H         1 UNK         0.3000 
    170 H170        0.0738  -15.8764  -39.6377 H         1 UNK         0.0600 
    171 H171        0.9103  -16.6302  -37.4082 H         1 UNK         0.0600 
    172 H172        2.3456  -15.6294  -37.5949 H         1 UNK         0.0600 
    173 H173        0.7518  -14.8826  -37.4723 H         1 UNK         0.0600 
    174 H174        2.1165  -13.9286  -39.3866 H         1 UNK         0.3000 
    175 H175        2.1710  -12.2357  -40.8556 H         1 UNK         0.0600 
    176 H176        3.6238  -13.8022  -43.0739 H         1 UNK         0.0600 
    177 H177        4.0723  -12.2004  -42.4947 H         1 UNK         0.0600 
    178 H178        4.2091  -13.5880  -41.4264 H         1 UNK         0.0600 
    179 H179        0.9267  -12.9690  -43.4135 H         1 UNK         0.3000 
    180 H180       -0.7036  -10.8870  -43.9524 H         1 UNK         0.0600 
    181 H181        1.3128   -8.6922  -44.6613 H         1 UNK         0.0600 
    182 H182       -0.0933   -8.5299  -43.6204 H         1 UNK         0.0600 
    183 H183       -0.3098   -8.8409  -45.3348 H         1 UNK         0.0600 
    184 H184       -0.0458  -11.9545  -45.7524 H         1 UNK         0.3000 
    185 H185        2.2373  -11.7328  -48.1082 H         1 UNK         0.0600 
    186 H186        4.2000  -12.6401  -47.0022 H         1 UNK         0.0600 
    187 H187        3.2372  -13.7270  -46.0186 H         1 UNK         0.0600 
    188 H188        3.3720  -13.9897  -47.7610 H         1 UNK         0.0600 
    189 H189        0.8791  -14.0771  -46.9690 H         1 UNK         0.3000 
    190 H190       -1.2068  -19.6539  -46.1608 H         1 UNK         0.3000 
    191 H191       -3.4915  -19.3566  -47.8261 H         1 UNK         0.0600 
    192 H192       -3.5311  -18.5423  -44.9104 H         1 UNK         0.0600 
    193 H193       -4.2593  -17.7564  -46.2903 H         1 UNK         0.0600 
    194 H194       -2.5160  -17.6824  -46.0798 H         1 UNK         0.0600 
    195 H195       -3.1998  -21.0222  -44.6293 H         1 UNK         0.3000 
    196 H196       -5.8238  -22.0842  -44.5611 H         1 UNK         0.0600 
    197 H197       -4.8535  -23.5880  -42.7928 H         1 UNK         0.0600 
    198 H198       -4.3935  -21.9101  -42.5589 H         1 UNK         0.0600 
    199 H199       -3.2350  -23.0541  -43.2356 H         1 UNK         0.0600 
    200 H200       -3.0002  -23.1761  -46.2961 H         1 UNK         0.3000 
    201 H201       -4.0531  -25.8589  -46.9017 H         1 UNK         0.0600 
    202 H202       -1.6019  -25.4623  -46.5089 H         1 UNK         0.0600 
    203 H203       -1.5539  -24.3898  -47.9056 H         1 UNK         0.0600 
    204 H204       -1.9121  -26.0990  -48.1140 H         1 UNK         0.0600 
    205 H205       -4.7241  -22.7710  -48.0424 H         1 UNK         0.3000 
    206 H206       -5.5201  -21.8054  -49.8552 H         1 UNK         0.0600 
    207 H207       -7.0873  -23.0539  -51.3029 H         1 UNK         0.0600 
    208 H208       -7.3355  -23.5093  -49.6257 H         1 UNK         0.0600 
    209 H209       -6.4703  -24.5919  -50.7142 H         1 UNK         0.0600 
    210 H210       -2.8404  -22.2380  -49.9100 H         1 UNK         0.3000 
    211 H211       -0.9902  -22.2240  -51.0919 H         1 UNK         0.0600 
    212 H212       -1.0182  -21.5075  -53.4772 H         1 UNK         0.0600 
    213 H213       -2.0766  -20.5187  -52.4860 H         1 UNK         0.0600 
    214 H214       -2.7548  -21.7510  -53.5483 H         1 UNK         0.0600 
    215 H215       -2.1275  -24.6802  -50.4323 H         1 UNK         0.3000 
    216 H216       -1.8748  -26.8677  -50.5803 H         1 UNK         0.0600 
    217 H217       -0.0772  -27.9158  -51.8823 H         1 UNK         0.0600 
    218 H218        0.5420  -26.4755  -51.0902 H         1 UNK         0.0600 
    219 H219        0.1801  -26.4513  -52.8156 H         1 UNK         0.0600 
    220 H220       -4.0684  -25.9641  -51.4502 H         1 UNK         0.3000 
    221 H221       -5.9071  -26.1784  -52.6579 H         1 UNK         0.0600 
    222 H222       -4.6991  -28.8171  -53.6437 H         1 UNK         0.0600 
    223 H223       -5.5804  -28.5928  -52.1334 H         1 UNK         0.0600 
    224 H224       -6.4014  -28.3783  -53.6707 H         1 UNK         0.0600 
    225 H225       -4.4548  -24.3173  -53.7347 H         1 UNK         0.3000 
    226 H226       -4.8550  -24.5536  -56.6754 H         1 UNK         0.0600 
    227 H227       -2.3953  -24.8104  -56.1723 H         1 UNK         0.0600 
    228 H228       -2.7591  -23.3462  -57.0748 H         1 UNK         0.0600 
    229 H229       -2.4201  -23.2518  -55.3532 H         1 UNK         0.0600 
    230 H230       -6.7233  -23.7145  -54.9040 H         1 UNK         0.3000 
    231 H231       -8.2609  -22.1662  -54.5444 H         1 UNK         0.0600 
    232 H232       -8.2459  -22.2393  -57.0501 H         1 UNK         0.0600 
    233 H233       -7.1459  -20.8614  -57.0814 H         1 UNK         0.0600 
    234 H234       -8.7758  -20.6804  -56.4454 H         1 UNK         0.0600 
    235 H235       -5.7015  -21.6346  -53.2020 H         1 UNK         0.3000 
    236 H236       -4.7388  -20.1836  -51.8265 H         1 UNK         0.0600 
    237 H237       -5.9721  -18.3414  -50.8214 H         1 UNK         0.0600 
    238 H238       -7.1628  -18.3493  -52.1122 H         1 UNK         0.0600 
    239 H239       -7.0530  -19.7129  -50.9987 H         1 UNK         0.0600 
    240 H240       -4.1712  -20.1148  -54.6554 H         1 UNK         0.3000 
    241 H241       -2.6097  -19.2454  -55.8719 H         1 UNK         0.0600 
    242 H242       -3.3341  -15.9724  -57.5244 H         1 UNK         0.3800 
    243 H243       -1.9016  -16.6638  -56.8061 H         1 UNK         0.3800 
    244 H244       -1.9850  -16.8293  -54.1300 H         1 UNK         0.0800 
    245 H245       -1.6566  -18.4001  -53.4832 H         1 UNK         0.0800 
    246 H246        1.8534  -18.9208  -54.5778 H         1 UNK         0.0800 
    247 H247        0.4809  -19.7056  -53.8412 H         1 UNK         0.0800 
@<TRIPOS>BOND
     1    1    2 1    
     2    1  127 1    
     3    1  128 1    
     4    1  129 1    
     5    2    3 2    
     6    2    4 am   BACKBONE|DICT|INTERRES
     7    4    5 1    
     8    4  130 1    
     9    5    6 1    
    10    5   65 1    
    11    5  131 1    
    12    6    7 1    
    13    6  132 1    
    14    6  133 1    
    15    7    8 1    
    16    8    9 1    
    17    8  134 1    
    18    8  135 1    
    19    9   10 ar   
    20    9   14 ar   
    21   10   11 ar   
    22   10  136 1    
    23   11   12 ar   
    24   11  126 1    
    25   12   13 ar   
    26   12  137 1    
    27   13   14 ar   
    28   13   15 1    
    29   14  138 1    
    30   15   16 1    
    31   15  139 1    
    32   15  140 1    
    33   16   17 1    
    34   17   18 1    
    35   17  141 1    
    36   17  142 1    
    37   18   19 1    
    38   18   67 1    
    39   18  143 1    
    40   19   20 am   BACKBONE|DICT|INTERRES
    41   19  144 1    
    42   20   21 2    
    43   20   22 1    
    44   22   23 1    
    45   22   24 1    
    46   22  145 1    
    47   23  146 1    
    48   23  147 1    
    49   23  148 1    
    50   24   25 am   BACKBONE|DICT|INTERRES
    51   24  149 1    
    52   25   26 2    
    53   25   27 1    
    54   27   28 1    
    55   27   29 1    
    56   27  150 1    
    57   28  151 1    
    58   28  152 1    
    59   28  153 1    
    60   29   30 am   BACKBONE|DICT|INTERRES
    61   29  154 1    
    62   30   31 2    
    63   30   32 1    
    64   32   33 1    
    65   32   34 1    
    66   32  155 1    
    67   33  156 1    
    68   33  157 1    
    69   33  158 1    
    70   34   35 am   BACKBONE|DICT|INTERRES
    71   34  159 1    
    72   35   36 2    
    73   35   37 1    
    74   37   38 1    
    75   37   39 1    
    76   37  160 1    
    77   38  161 1    
    78   38  162 1    
    79   38  163 1    
    80   39   40 am   BACKBONE|DICT|INTERRES
    81   39  164 1    
    82   40   41 2    
    83   40   42 1    
    84   42   43 1    
    85   42   44 1    
    86   42  165 1    
    87   43  166 1    
    88   43  167 1    
    89   43  168 1    
    90   44   45 am   BACKBONE|DICT|INTERRES
    91   44  169 1    
    92   45   46 2    
    93   45   47 1    
    94   47   48 1    
    95   47   49 1    
    96   47  170 1    
    97   48  171 1    
    98   48  172 1    
    99   48  173 1    
   100   49   50 am   BACKBONE|DICT|INTERRES
   101   49  174 1    
   102   50   51 2    
   103   50   52 1    
   104   52   53 1    
   105   52   54 1    
   106   52  175 1    
   107   53  176 1    
   108   53  177 1    
   109   53  178 1    
   110   54   55 am   BACKBONE|DICT|INTERRES
   111   54  179 1    
   112   55   56 2    
   113   55   57 1    
   114   57   58 1    
   115   57   59 1    
   116   57  180 1    
   117   58  181 1    
   118   58  182 1    
   119   58  183 1    
   120   59   60 am   BACKBONE|DICT|INTERRES
   121   59  184 1    
   122   60   61 2    
   123   60   62 1    
   124   62   63 1    
   125   62   64 1    
   126   62  185 1    
   127   63  186 1    
   128   63  187 1    
   129   63  188 1    
   130   64   65 am   BACKBONE|DICT|INTERRES
   131   64  189 1    
   132   65   66 2    
   133   67   68 2    
   134   67   69 am   BACKBONE|DICT|INTERRES
   135   69   70 1    
   136   69  190 1    
   137   70   71 1    
   138   70   72 1    
   139   70  191 1    
   140   71  192 1    
   141   71  193 1    
   142   71  194 1    
   143   72   73 2    
   144   72   74 am   BACKBONE|DICT|INTERRES
   145   74   75 1    
   146   74  195 1    
   147   75   76 1    
   148   75   77 1    
   149   75  196 1    
   150   76  197 1    
   151   76  198 1    
   152   76  199 1    
   153   77   78 2    
   154   77   79 am   BACKBONE|DICT|INTERRES
   155   79   80 1    
   156   79  200 1    
   157   80   81 1    
   158   80   82 1    
   159   80  201 1    
   160   81  202 1    
   161   81  203 1    
   162   81  204 1    
   163   82   83 2    
   164   82   84 am   BACKBONE|DICT|INTERRES
   165   84   85 1    
   166   84  205 1    
   167   85   86 1    
   168   85   87 1    
   169   85  206 1    
   170   86  207 1    
   171   86  208 1    
   172   86  209 1    
   173   87   88 2    
   174   87   89 am   BACKBONE|DICT|INTERRES
   175   89   90 1    
   176   89  210 1    
   177   90   91 1    
   178   90   92 1    
   179   90  211 1    
   180   91  212 1    
   181   91  213 1    
   182   91  214 1    
   183   92   93 2    
   184   92   94 am   BACKBONE|DICT|INTERRES
   185   94   95 1    
   186   94  215 1    
   187   95   96 1    
   188   95   97 1    
   189   95  216 1    
   190   96  217 1    
   191   96  218 1    
   192   96  219 1    
   193   97   98 2    
   194   97   99 am   BACKBONE|DICT|INTERRES
   195   99  100 1    
   196   99  220 1    
   197  100  101 1    
   198  100  102 1    
   199  100  221 1    
   200  101  222 1    
   201  101  223 1    
   202  101  224 1    
   203  102  103 2    
   204  102  104 am   BACKBONE|DICT|INTERRES
   205  104  105 1    
   206  104  225 1    
   207  105  106 1    
   208  105  107 1    
   209  105  226 1    
   210  106  227 1    
   211  106  228 1    
   212  106  229 1    
   213  107  108 2    
   214  107  109 am   BACKBONE|DICT|INTERRES
   215  109  110 1    
   216  109  230 1    
   217  110  111 1    
   218  110  112 1    
   219  110  231 1    
   220  111  232 1    
   221  111  233 1    
   222  111  234 1    
   223  112  113 2    
   224  112  114 am   BACKBONE|DICT|INTERRES
   225  114  115 1    
   226  114  235 1    
   227  115  116 1    
   228  115  117 1    
   229  115  236 1    
   230  116  237 1    
   231  116  238 1    
   232  116  239 1    
   233  117  118 2    
   234  117  119 am   BACKBONE|DICT|INTERRES
   235  119  120 1    
   236  119  240 1    
   237  120  121 1    
   238  120  124 1    
   239  120  241 1    
   240  121  122 am   BACKBONE|DICT|INTERRES
   241  121  123 2    
   242  122  242 1    
   243  122  243 1    
   244  124  125 1    
   245  124  244 1    
   246  124  245 1    
   247  125  126 1    
   248  126  246 1    
   249  126  247 1    
@<TRIPOS>SUBSTRUCTURE
     1 UNK         1 GROUP             0       ****    0 ROOT    
