@<TRIPOS>MOLECULE
3R540
247   249    1
SMALL
USER_CHARGES


@<TRIPOS>ATOM
      1 CA          6.2949  -11.8670  -49.5913 C.3       0 UNK        -0.1800 
      2 C           5.4185  -12.5221  -48.5329 C.2       0 UNK         0.5000 
      3 O           5.4528  -12.1156  -47.3710 O.2       0 UNK        -0.5000 
      4 N           4.6428  -13.5387  -48.9270 N.am      1 UNK        -0.5000 
      5 CA          3.6761  -14.2388  -48.0770 C.3       1 UNK         0.1400 
      6 C6          3.2814  -15.6154  -48.6741 C.3       23 UNK        -0.0398 
      7 S7          2.5951  -15.5354  -50.3704 S.3       23 UNK        -0.2404 
      8 C8          0.9458  -16.2789  -50.1667 C.3       23 UNK        -0.0205 
      9 C9          0.8138  -17.5533  -50.9834 C.ar      23 UNK        -0.0193 
     10 C10         0.1596  -17.5276  -52.2181 C.ar      23 UNK        -0.1150 
     11 C11         0.0352  -18.6893  -52.9912 C.ar      23 UNK        -0.0193 
     12 C12         0.5730  -19.8833  -52.4993 C.ar      23 UNK        -0.1150 
     13 C13         1.2280  -19.9245  -51.2643 C.ar      23 UNK        -0.0193 
     14 C14         1.3438  -18.7556  -50.5076 C.ar      23 UNK        -0.1150 
     15 C15         1.8208  -21.2315  -50.7617 C.3       23 UNK        -0.0205 
     16 S16         0.5641  -22.2872  -49.9782 S.3       23 UNK        -0.2404 
     17 C17         0.4032  -21.5308  -48.3254 C.3       23 UNK        -0.0398 
     18 CA         -0.1265  -22.5238  -47.2643 C.3       11 UNK         0.1400 
     19 N           0.0117  -21.9962  -45.9055 N.am      11 UNK        -0.5000 
     20 C          -0.2009  -22.7041  -44.7864 C.2       10 UNK         0.5000 
     21 O          -0.5085  -23.8950  -44.7792 O.2       10 UNK        -0.5000 
     22 CA         -0.1164  -21.9412  -43.4531 C.3       10 UNK         0.1400 
     23 CB          1.3444  -21.6825  -43.0569 C.3       10 UNK        -0.1800 
     24 N          -0.8478  -20.6765  -43.4954 N.am      10 UNK        -0.5000 
     25 C          -2.1683  -20.5656  -43.7010 C.2       9 UNK         0.5000 
     26 O          -2.9302  -21.5259  -43.8117 O.2       9 UNK        -0.5000 
     27 CA         -2.7164  -19.1387  -43.8696 C.3       9 UNK         0.1400 
     28 CB         -2.9504  -18.4731  -42.5061 C.3       9 UNK        -0.1800 
     29 N          -1.8238  -18.3087  -44.6791 N.am      9 UNK        -0.5000 
     30 C          -1.6112  -18.4944  -45.9895 C.2       8 UNK         0.5000 
     31 O          -2.1560  -19.3735  -46.6537 O.2       8 UNK        -0.5000 
     32 CA         -0.5822  -17.5717  -46.6601 C.3       8 UNK         0.1400 
     33 CB         -1.2323  -16.2325  -47.0363 C.3       8 UNK        -0.1800 
     34 N           0.5964  -17.3559  -45.8142 N.am      8 UNK        -0.5000 
     35 C           1.4976  -18.3203  -45.5684 C.2       7 UNK         0.5000 
     36 O           1.4241  -19.4512  -46.0470 O.2       7 UNK        -0.5000 
     37 CA          2.6583  -17.9959  -44.6098 C.3       7 UNK         0.1400 
     38 CB          3.8338  -17.3766  -45.3793 C.3       7 UNK        -0.1800 
     39 N           2.3054  -17.1155  -43.4971 N.am      7 UNK        -0.5000 
     40 C           1.3413  -17.3325  -42.5945 C.2       6 UNK         0.5000 
     41 O           0.5977  -18.3146  -42.6143 O.2       6 UNK        -0.5000 
     42 CA          1.2053  -16.2650  -41.4958 C.3       6 UNK         0.1400 
     43 CB          0.1948  -16.6677  -40.4081 C.3       6 UNK        -0.1800 
     44 N           2.4986  -16.0383  -40.8461 N.am      6 UNK        -0.5000 
     45 C           3.3648  -15.0113  -40.8886 C.2       5 UNK         0.5000 
     46 O           4.4275  -15.0895  -40.2748 O.2       5 UNK        -0.5000 
     47 CA          3.1070  -13.7123  -41.6924 C.3       5 UNK         0.1400 
     48 CB          3.5836  -13.8509  -43.1477 C.3       5 UNK        -0.1800 
     49 N           1.7499  -13.1696  -41.6589 N.am      5 UNK        -0.5000 
     50 C           1.1115  -12.7277  -40.5661 C.2       4 UNK         0.5000 
     51 O           1.6010  -12.7415  -39.4366 O.2       4 UNK        -0.5000 
     52 CA         -0.3034  -12.1477  -40.7690 C.3       4 UNK         0.1400 
     53 CB         -0.2624  -10.6129  -40.6995 C.3       4 UNK        -0.1800 
     54 N          -0.8992  -12.5401  -42.0496 N.am      4 UNK        -0.5000 
     55 C          -1.6207  -13.6521  -42.2463 C.2       3 UNK         0.5000 
     56 O          -1.9134  -14.4416  -41.3506 O.2       3 UNK        -0.5000 
     57 CA         -2.0825  -13.9457  -43.6868 C.3       3 UNK         0.1400 
     58 CB         -3.5497  -13.5356  -43.8796 C.3       3 UNK        -0.1800 
     59 N          -1.2610  -13.2809  -44.7031 N.am      3 UNK        -0.5000 
     60 C          -0.0304  -13.6724  -45.0515 C.2       2 UNK         0.5000 
     61 O           0.5359  -14.6594  -44.5708 O.2       2 UNK        -0.5000 
     62 CA          0.6865  -12.8165  -46.1024 C.3       2 UNK         0.1400 
     63 CB          1.1273  -11.4677  -45.5037 C.3       2 UNK        -0.1800 
     64 N           1.8512  -13.5474  -46.5915 N.am      2 UNK        -0.5000 
     65 C           2.4485  -13.3497  -47.7710 C.2       1 UNK         0.5000 
     66 O           2.0647  -12.5167  -48.5969 O.2       1 UNK        -0.5000 
     67 C          -1.5723  -22.9766  -47.5597 C.2       11 UNK         0.5000 
     68 O          -1.7620  -24.0799  -48.0725 O.2       11 UNK        -0.5000 
     69 N          -2.5658  -22.1522  -47.1967 N.am      12 UNK        -0.5000 
     70 CA         -3.9909  -22.4527  -47.3553 C.3       12 UNK         0.1400 
     71 CB         -4.8296  -21.2248  -46.9721 C.3       12 UNK        -0.1800 
     72 C          -4.4467  -23.6939  -46.5635 C.2       12 UNK         0.5000 
     73 O          -5.3099  -24.4296  -47.0409 O.2       12 UNK        -0.5000 
     74 N          -3.8479  -23.9174  -45.3874 N.am      13 UNK        -0.5000 
     75 CA         -4.0758  -25.1004  -44.5639 C.3       13 UNK         0.1400 
     76 CB         -3.6404  -24.8075  -43.1191 C.3       13 UNK        -0.1800 
     77 C          -3.3563  -26.3468  -45.1128 C.2       13 UNK         0.5000 
     78 O          -3.9821  -27.4005  -45.2357 O.2       13 UNK        -0.5000 
     79 N          -2.0527  -26.2190  -45.3955 N.am      14 UNK        -0.5000 
     80 CA         -1.1739  -27.3432  -45.7181 C.3       14 UNK         0.1400 
     81 CB          0.2796  -26.9625  -45.3934 C.3       14 UNK        -0.1800 
     82 C          -1.2848  -27.8250  -47.1737 C.2       14 UNK         0.5000 
     83 O          -1.3693  -29.0327  -47.4023 O.2       14 UNK        -0.5000 
     84 N          -1.2395  -26.8869  -48.1268 N.am      15 UNK        -0.5000 
     85 CA         -1.1470  -27.1688  -49.5618 C.3       15 UNK         0.1400 
     86 CB          0.0407  -26.3803  -50.1382 C.3       15 UNK        -0.1800 
     87 C          -2.4316  -26.8026  -50.3201 C.2       15 UNK         0.5000 
     88 O          -2.6865  -27.3778  -51.3778 O.2       15 UNK        -0.5000 
     89 N          -3.1891  -25.8323  -49.7894 N.am      16 UNK        -0.5000 
     90 CA         -4.4000  -25.2162  -50.3458 C.3       16 UNK         0.1400 
     91 CB         -5.4997  -26.2567  -50.6366 C.3       16 UNK        -0.1800 
     92 C          -4.1422  -24.2903  -51.5510 C.2       16 UNK         0.5000 
     93 O          -5.0948  -23.7116  -52.0735 O.2       16 UNK        -0.5000 
     94 N          -2.8762  -24.1077  -51.9533 N.am      17 UNK        -0.5000 
     95 CA         -2.4799  -23.2824  -53.0967 C.3       17 UNK         0.1400 
     96 CB         -0.9850  -23.4760  -53.3858 C.3       17 UNK        -0.1800 
     97 C          -2.8259  -21.7934  -52.9198 C.2       17 UNK         0.5000 
     98 O          -3.2273  -21.1553  -53.8885 O.2       17 UNK        -0.5000 
     99 N          -2.7308  -21.2882  -51.6823 N.am      18 UNK        -0.5000 
    100 CA        -3.1177  -19.9235  -51.3096 C.3       18 UNK         0.1400 
    101 CB        -2.4365  -19.5570  -49.9851 C.3       18 UNK        -0.1800 
    102 C         -4.6421  -19.7067  -51.2140 C.2       18 UNK         0.5000 
    103 O         -5.0747  -18.5598  -51.0953 O.2       18 UNK        -0.5000 
    104 N         -5.4279  -20.7916  -51.2479 N.am      19 UNK        -0.5000 
    105 CA        -6.8864  -20.7464  -51.3330 C.3       19 UNK         0.1400 
    106 CB        -7.4876  -21.8383  -50.4324 C.3       19 UNK        -0.1800 
    107 C         -7.3435  -20.9154  -52.7924 C.2       19 UNK         0.5000 
    108 O         -8.2469  -20.2038  -53.2328 O.2       19 UNK        -0.5000 
    109 N         -6.7124  -21.8513  -53.5155 N.am      20 UNK        -0.5000 
    110 CA        -7.0092  -22.1778  -54.9101 C.3       20 UNK         0.1400 
    111 CB        -6.3675  -23.5333  -55.2452 C.3       20 UNK        -0.1800 
    112 C         -6.5459  -21.1053  -55.9148 C.2       20 UNK         0.5000 
    113 O         -7.1835  -20.9425  -56.9564 O.2       20 UNK        -0.5000 
    114 N         -5.4486  -20.4099  -55.6013 N.am      21 UNK        -0.5000 
    115 CA        -4.8184  -19.3864  -56.4293 C.3       21 UNK         0.1400 
    116 CB        -3.6600  -20.0318  -57.2145 C.3       21 UNK        -0.1800 
    117 C         -4.3330  -18.2210  -55.5495 C.2       21 UNK         0.5000 
    118 O         -4.5109  -18.2483  -54.3299 O.2       21 UNK        -0.5000 
    119 N         -3.7232  -17.2179  -56.1938 N.am      22 UNK        -0.5000 
    120 CA        -3.2055  -15.9777  -55.5872 C.3       22 UNK         0.1400 
    121 C         -4.3293  -15.0400  -55.0400 C.2       22 UNK         0.5000 
    122 N         -3.9905  -13.9910  -54.3008 N.am      22 UNK        -0.7600 
    123 O         -5.5135  -15.2133  -55.3229 O.2       22 UNK        -0.5000 
    124 C124       -2.0559  -16.2289  -54.5647 C.3       23 UNK        -0.0398 
    125 S125       -0.6424  -17.1426  -55.2815 S.3       23 UNK        -0.2404 
    126 C126       -0.6878  -18.7087  -54.3414 C.3       23 UNK        -0.0205 
    127 H127        7.3454  -11.9478  -49.3118 H         1 UNK         0.0600 
    128 H128        6.0453  -10.8099  -49.6829 H         1 UNK         0.0600 
    129 H129        6.1664  -12.3326  -50.5689 H         1 UNK         0.0600 
    130 H130        4.6261  -13.8045  -49.9016 H         1 UNK         0.3000 
    131 H131        4.1750  -14.4333  -47.1251 H         1 UNK         0.0600 
    132 H132        2.5946  -16.1339  -48.0049 H         1 UNK         0.0800 
    133 H133        4.1669  -16.2511  -48.7154 H         1 UNK         0.0800 
    134 H134        0.1925  -15.5503  -50.4701 H         1 UNK         0.0800 
    135 H135        0.7413  -16.5026  -49.1228 H         1 UNK         0.0800 
    136 H136       -0.2445  -16.5915  -52.5700 H         1 UNK         0.1150 
    137 H137        0.4800  -20.7905  -53.0792 H         1 UNK         0.1150 
    138 H138        1.8506  -18.7785  -49.5529 H         1 UNK         0.1150 
    139 H139        2.2555  -21.7751  -51.6017 H         1 UNK         0.0800 
    140 H140        2.6416  -21.0453  -50.0674 H         1 UNK         0.0800 
    141 H141       -0.2252  -20.6424  -48.3817 H         1 UNK         0.0800 
    142 H142        1.3916  -21.1816  -48.0255 H         1 UNK         0.0800 
    143 H143        0.5003  -23.4173  -47.3108 H         1 UNK         0.0600 
    144 H144        0.3020  -21.0260  -45.8276 H         1 UNK         0.3000 
    145 H145       -0.5740  -22.5643  -42.6819 H         1 UNK         0.0600 
    146 H146        1.4078  -21.1761  -42.0935 H         1 UNK         0.0600 
    147 H147        1.8587  -21.0650  -43.7929 H         1 UNK         0.0600 
    148 H148        1.8962  -22.6192  -42.9709 H         1 UNK         0.0600 
    149 H149       -0.3048  -19.8277  -43.3608 H         1 UNK         0.3000 
    150 H150       -3.6771  -19.2041  -44.3845 H         1 UNK         0.0600 
    151 H151       -3.6958  -19.0232  -41.9306 H         1 UNK         0.0600 
    152 H152       -3.3130  -17.4509  -42.6177 H         1 UNK         0.0600 
    153 H153       -2.0381  -18.4450  -41.9115 H         1 UNK         0.0600 
    154 H154       -1.2750  -17.6178  -44.1899 H         1 UNK         0.3000 
    155 H155       -0.2539  -18.0567  -47.5821 H         1 UNK         0.0600 
    156 H156       -1.9869  -16.3773  -47.8104 H         1 UNK         0.0600 
    157 H157       -0.5022  -15.5225  -47.4228 H         1 UNK         0.0600 
    158 H158       -1.7315  -15.7728  -46.1841 H         1 UNK         0.0600 
    159 H159        0.6815  -16.4591  -45.3463 H         1 UNK         0.3000 
    160 H160        2.9957  -18.9412  -44.1809 H         1 UNK         0.0600 
    161 H161        3.5933  -16.3773  -45.7393 H         1 UNK         0.0600 
    162 H162        4.1053  -17.9852  -46.2432 H         1 UNK         0.0600 
    163 H163        4.7193  -17.2991  -44.7481 H         1 UNK         0.0600 
    164 H164        2.8711  -16.2887  -43.3918 H         1 UNK         0.3000 
    165 H165        0.8215  -15.3854  -41.9985 H         1 UNK         0.0600 
    166 H166        0.1001  -15.8861  -39.6540 H         1 UNK         0.0600 
    167 H167       -0.7968  -16.8237  -40.8310 H         1 UNK         0.0600 
    168 H168        0.4868  -17.5892  -39.9030 H         1 UNK         0.0600 
    169 H169        2.8029  -16.8332  -40.3034 H         1 UNK         0.3000 
    170 H170        3.7416  -12.9509  -41.2333 H         1 UNK         0.0600 
    171 H171        4.5910  -14.2673  -43.1936 H         1 UNK         0.0600 
    172 H172        2.9357  -14.4973  -43.7327 H         1 UNK         0.0600 
    173 H173        3.6188  -12.8804  -43.6423 H         1 UNK         0.0600 
    174 H174        1.2569  -13.1419  -42.5375 H         1 UNK         0.3000 
    175 H175       -0.9280  -12.5075  -39.9485 H         1 UNK         0.0600 
    176 H176        0.3557  -10.1892  -41.4922 H         1 UNK         0.0600 
    177 H177       -1.2622  -10.1877  -40.7894 H         1 UNK         0.0600 
    178 H178        0.1480  -10.2748  -39.7470 H         1 UNK         0.0600 
    179 H179       -0.7392  -11.9248  -42.8331 H         1 UNK         0.3000 
    180 H180       -2.0121  -15.0257  -43.8337 H         1 UNK         0.0600 
    181 H181       -3.9073  -13.8081  -44.8727 H         1 UNK         0.0600 
    182 H182       -3.6879  -12.4609  -43.7545 H         1 UNK         0.0600 
    183 H183       -4.1939  -14.0363  -43.1554 H         1 UNK         0.0600 
    184 H184       -1.6684  -12.4721  -45.1509 H         1 UNK         0.3000 
    185 H185       -0.0075  -12.6460  -46.9282 H         1 UNK         0.0600 
    186 H186        1.8042  -11.6021  -44.6597 H         1 UNK         0.0600 
    187 H187        1.6407  -10.8553  -46.2451 H         1 UNK         0.0600 
    188 H188        0.2718  -10.8905  -45.1514 H         1 UNK         0.0600 
    189 H189        2.1716  -14.2714  -45.9635 H         1 UNK         0.3000 
    190 H190       -2.3391  -21.2381  -46.8117 H         1 UNK         0.3000 
    191 H191       -4.1637  -22.6516  -48.4138 H         1 UNK         0.0600 
    192 H192       -4.5914  -20.3685  -47.6030 H         1 UNK         0.0600 
    193 H193       -4.6633  -20.9338  -45.9349 H         1 UNK         0.0600 
    194 H194       -5.8949  -21.4262  -47.0905 H         1 UNK         0.0600 
    195 H195       -3.1923  -23.2296  -45.0335 H         1 UNK         0.3000 
    196 H196       -5.1471  -25.3126  -44.5498 H         1 UNK         0.0600 
    197 H197       -4.2093  -23.9779  -42.6989 H         1 UNK         0.0600 
    198 H198       -2.5830  -24.5485  -43.0580 H         1 UNK         0.0600 
    199 H199       -3.8052  -25.6739  -42.4775 H         1 UNK         0.0600 
    200 H200       -1.5996  -25.3193  -45.2498 H         1 UNK         0.3000 
    201 H201       -1.4419  -28.1829  -45.0729 H         1 UNK         0.0600 
    202 H202        0.3903  -26.6910  -44.3434 H         1 UNK         0.0600 
    203 H203        0.6198  -26.1178  -45.9939 H         1 UNK         0.0600 
    204 H204        0.9554  -27.7964  -45.5869 H         1 UNK         0.0600 
    205 H205       -1.2319  -25.9073  -47.8589 H         1 UNK         0.3000 
    206 H206       -0.9596  -28.2304  -49.7357 H         1 UNK         0.0600 
    207 H207       -0.0826  -25.3058  -49.9998 H         1 UNK         0.0600 
    208 H208        0.9753  -26.6723  -49.6592 H         1 UNK         0.0600 
    209 H209        0.1532  -26.5635  -51.2077 H         1 UNK         0.0600 
    210 H210       -2.8267  -25.3755  -48.9572 H         1 UNK         0.3000 
    211 H211       -4.7857  -24.5650  -49.5651 H         1 UNK         0.0600 
    212 H212       -5.2482  -26.8946  -51.4839 H         1 UNK         0.0600 
    213 H213       -6.4446  -25.7660  -50.8732 H         1 UNK         0.0600 
    214 H214       -5.6757  -26.8958  -49.7713 H         1 UNK         0.0600 
    215 H215       -2.1435  -24.6029  -51.4684 H         1 UNK         0.3000 
    216 H216       -3.0350  -23.6409  -53.9660 H         1 UNK         0.0600 
    217 H217       -0.6751  -22.8846  -54.2483 H         1 UNK         0.0600 
    218 H218       -0.7589  -24.5187  -53.6091 H         1 UNK         0.0600 
    219 H219       -0.3666  -23.1738  -52.5426 H         1 UNK         0.0600 
    220 H220       -2.3786  -21.8809  -50.9455 H         1 UNK         0.3000 
    221 H221       -2.7518  -19.2365  -52.0743 H         1 UNK         0.0600 
    222 H222       -2.7151  -20.2450  -49.1893 H         1 UNK         0.0600 
    223 H223       -1.3545  -19.5776  -50.0884 H         1 UNK         0.0600 
    224 H224       -2.7069  -18.5512  -49.6612 H         1 UNK         0.0600 
    225 H225       -4.9992  -21.6982  -51.3769 H         1 UNK         0.3000 
    226 H226       -7.2581  -19.7839  -50.9753 H         1 UNK         0.0600 
    227 H227       -7.1735  -21.7101  -49.3965 H         1 UNK         0.0600 
    228 H228       -8.5772  -21.7969  -50.4493 H         1 UNK         0.0600 
    229 H229       -7.1954  -22.8399  -50.7478 H         1 UNK         0.0600 
    230 H230       -6.0250  -22.4423  -53.0558 H         1 UNK         0.3000 
    231 H231       -8.0917  -22.2803  -55.0116 H         1 UNK         0.0600 
    232 H232       -6.5953  -23.8326  -56.2690 H         1 UNK         0.0600 
    233 H233       -6.7370  -24.3190  -54.5858 H         1 UNK         0.0600 
    234 H234       -5.2819  -23.4972  -55.1461 H         1 UNK         0.0600 
    235 H235       -4.9714  -20.5868  -54.7220 H         1 UNK         0.3000 
    236 H236       -5.5456  -18.9762  -57.1328 H         1 UNK         0.0600 
    237 H237       -2.8770  -20.3920  -56.5459 H         1 UNK         0.0600 
    238 H238       -4.0087  -20.8786  -57.8058 H         1 UNK         0.0600 
    239 H239       -3.2018  -19.3252  -57.9067 H         1 UNK         0.0600 
    240 H240       -3.6398  -17.2703  -57.1983 H         1 UNK         0.3000 
    241 H241       -2.7767  -15.4214  -56.4213 H         1 UNK         0.0600 
    242 H242       -4.7192  -13.3781  -53.9690 H         1 UNK         0.3800 
    243 H243       -3.0313  -13.7783  -54.0777 H         1 UNK         0.3800 
    244 H244       -2.4334  -16.7494  -53.6834 H         1 UNK         0.0800 
    245 H245       -1.6530  -15.2832  -54.2018 H         1 UNK         0.0800 
    246 H246       -0.2426  -19.4776  -54.9744 H         1 UNK         0.0800 
    247 H247       -1.7237  -19.0087  -54.1908 H         1 UNK         0.0800 
@<TRIPOS>BOND
     1    1    2 1    
     2    1  127 1    
     3    1  128 1    
     4    1  129 1    
     5    2    3 2    
     6    2    4 am   BACKBONE|DICT|INTERRES
     7    4    5 1    
     8    4  130 1    
     9    5    6 1    
    10    5   65 1    
    11    5  131 1    
    12    6    7 1    
    13    6  132 1    
    14    6  133 1    
    15    7    8 1    
    16    8    9 1    
    17    8  134 1    
    18    8  135 1    
    19    9   10 ar   
    20    9   14 ar   
    21   10   11 ar   
    22   10  136 1    
    23   11   12 ar   
    24   11  126 1    
    25   12   13 ar   
    26   12  137 1    
    27   13   14 ar   
    28   13   15 1    
    29   14  138 1    
    30   15   16 1    
    31   15  139 1    
    32   15  140 1    
    33   16   17 1    
    34   17   18 1    
    35   17  141 1    
    36   17  142 1    
    37   18   19 1    
    38   18   67 1    
    39   18  143 1    
    40   19   20 am   BACKBONE|DICT|INTERRES
    41   19  144 1    
    42   20   21 2    
    43   20   22 1    
    44   22   23 1    
    45   22   24 1    
    46   22  145 1    
    47   23  146 1    
    48   23  147 1    
    49   23  148 1    
    50   24   25 am   BACKBONE|DICT|INTERRES
    51   24  149 1    
    52   25   26 2    
    53   25   27 1    
    54   27   28 1    
    55   27   29 1    
    56   27  150 1    
    57   28  151 1    
    58   28  152 1    
    59   28  153 1    
    60   29   30 am   BACKBONE|DICT|INTERRES
    61   29  154 1    
    62   30   31 2    
    63   30   32 1    
    64   32   33 1    
    65   32   34 1    
    66   32  155 1    
    67   33  156 1    
    68   33  157 1    
    69   33  158 1    
    70   34   35 am   BACKBONE|DICT|INTERRES
    71   34  159 1    
    72   35   36 2    
    73   35   37 1    
    74   37   38 1    
    75   37   39 1    
    76   37  160 1    
    77   38  161 1    
    78   38  162 1    
    79   38  163 1    
    80   39   40 am   BACKBONE|DICT|INTERRES
    81   39  164 1    
    82   40   41 2    
    83   40   42 1    
    84   42   43 1    
    85   42   44 1    
    86   42  165 1    
    87   43  166 1    
    88   43  167 1    
    89   43  168 1    
    90   44   45 am   BACKBONE|DICT|INTERRES
    91   44  169 1    
    92   45   46 2    
    93   45   47 1    
    94   47   48 1    
    95   47   49 1    
    96   47  170 1    
    97   48  171 1    
    98   48  172 1    
    99   48  173 1    
   100   49   50 am   BACKBONE|DICT|INTERRES
   101   49  174 1    
   102   50   51 2    
   103   50   52 1    
   104   52   53 1    
   105   52   54 1    
   106   52  175 1    
   107   53  176 1    
   108   53  177 1    
   109   53  178 1    
   110   54   55 am   BACKBONE|DICT|INTERRES
   111   54  179 1    
   112   55   56 2    
   113   55   57 1    
   114   57   58 1    
   115   57   59 1    
   116   57  180 1    
   117   58  181 1    
   118   58  182 1    
   119   58  183 1    
   120   59   60 am   BACKBONE|DICT|INTERRES
   121   59  184 1    
   122   60   61 2    
   123   60   62 1    
   124   62   63 1    
   125   62   64 1    
   126   62  185 1    
   127   63  186 1    
   128   63  187 1    
   129   63  188 1    
   130   64   65 am   BACKBONE|DICT|INTERRES
   131   64  189 1    
   132   65   66 2    
   133   67   68 2    
   134   67   69 am   BACKBONE|DICT|INTERRES
   135   69   70 1    
   136   69  190 1    
   137   70   71 1    
   138   70   72 1    
   139   70  191 1    
   140   71  192 1    
   141   71  193 1    
   142   71  194 1    
   143   72   73 2    
   144   72   74 am   BACKBONE|DICT|INTERRES
   145   74   75 1    
   146   74  195 1    
   147   75   76 1    
   148   75   77 1    
   149   75  196 1    
   150   76  197 1    
   151   76  198 1    
   152   76  199 1    
   153   77   78 2    
   154   77   79 am   BACKBONE|DICT|INTERRES
   155   79   80 1    
   156   79  200 1    
   157   80   81 1    
   158   80   82 1    
   159   80  201 1    
   160   81  202 1    
   161   81  203 1    
   162   81  204 1    
   163   82   83 2    
   164   82   84 am   BACKBONE|DICT|INTERRES
   165   84   85 1    
   166   84  205 1    
   167   85   86 1    
   168   85   87 1    
   169   85  206 1    
   170   86  207 1    
   171   86  208 1    
   172   86  209 1    
   173   87   88 2    
   174   87   89 am   BACKBONE|DICT|INTERRES
   175   89   90 1    
   176   89  210 1    
   177   90   91 1    
   178   90   92 1    
   179   90  211 1    
   180   91  212 1    
   181   91  213 1    
   182   91  214 1    
   183   92   93 2    
   184   92   94 am   BACKBONE|DICT|INTERRES
   185   94   95 1    
   186   94  215 1    
   187   95   96 1    
   188   95   97 1    
   189   95  216 1    
   190   96  217 1    
   191   96  218 1    
   192   96  219 1    
   193   97   98 2    
   194   97   99 am   BACKBONE|DICT|INTERRES
   195   99  100 1    
   196   99  220 1    
   197  100  101 1    
   198  100  102 1    
   199  100  221 1    
   200  101  222 1    
   201  101  223 1    
   202  101  224 1    
   203  102  103 2    
   204  102  104 am   BACKBONE|DICT|INTERRES
   205  104  105 1    
   206  104  225 1    
   207  105  106 1    
   208  105  107 1    
   209  105  226 1    
   210  106  227 1    
   211  106  228 1    
   212  106  229 1    
   213  107  108 2    
   214  107  109 am   BACKBONE|DICT|INTERRES
   215  109  110 1    
   216  109  230 1    
   217  110  111 1    
   218  110  112 1    
   219  110  231 1    
   220  111  232 1    
   221  111  233 1    
   222  111  234 1    
   223  112  113 2    
   224  112  114 am   BACKBONE|DICT|INTERRES
   225  114  115 1    
   226  114  235 1    
   227  115  116 1    
   228  115  117 1    
   229  115  236 1    
   230  116  237 1    
   231  116  238 1    
   232  116  239 1    
   233  117  118 2    
   234  117  119 am   BACKBONE|DICT|INTERRES
   235  119  120 1    
   236  119  240 1    
   237  120  121 1    
   238  120  124 1    
   239  120  241 1    
   240  121  122 am   BACKBONE|DICT|INTERRES
   241  121  123 2    
   242  122  242 1    
   243  122  243 1    
   244  124  125 1    
   245  124  244 1    
   246  124  245 1    
   247  125  126 1    
   248  126  246 1    
   249  126  247 1    
@<TRIPOS>SUBSTRUCTURE
     1 UNK         1 GROUP             0       ****    0 ROOT    
