@<TRIPOS>MOLECULE
3R540
247   249    1
SMALL
USER_CHARGES


@<TRIPOS>ATOM
      1 CA          3.4464   -9.7440  -50.6436 C.3       0 UNK        -0.1800 
      2 C           3.0805  -10.7459  -49.5593 C.2       0 UNK         0.5000 
      3 O           2.3633  -10.3975  -48.6199 O.2       0 UNK        -0.5000 
      4 N           3.5505  -11.9950  -49.6909 N.am      1 UNK        -0.5000 
      5 CA          3.3333  -13.0956  -48.7396 C.3       1 UNK         0.1400 
      6 C6          4.1633  -14.3524  -49.0996 C.3       23 UNK        -0.0398 
      7 S7          3.6754  -15.1332  -50.6809 S.3       23 UNK        -0.2404 
      8 C8          3.9293  -16.9076  -50.3283 C.3       23 UNK        -0.0205 
      9 C9          3.1283  -17.4727  -49.1541 C.ar      23 UNK        -0.0193 
     10 C10         1.8534  -16.9973  -48.8179 C.ar      23 UNK        -0.1150 
     11 C11         1.1523  -17.5408  -47.7370 C.ar      23 UNK        -0.0193 
     12 C12         1.7158  -18.5916  -47.0119 C.ar      23 UNK        -0.1150 
     13 C13         2.9660  -19.1061  -47.3598 C.ar      23 UNK        -0.0193 
     14 C14         3.6749  -18.5276  -48.4160 C.ar      23 UNK        -0.1150 
     15 C15         3.5228  -20.3146  -46.6183 C.3       23 UNK        -0.0205 
     16 S16         3.8015  -21.7593  -47.7052 S.3       23 UNK        -0.2404 
     17 C17         2.2373  -21.9101  -48.6438 C.3       23 UNK        -0.0398 
     18 CA          1.3395  -23.0808  -48.1806 C.3       11 UNK         0.1400 
     19 N           0.9856  -22.9798  -46.7607 N.am      11 UNK        -0.5000 
     20 C           0.3521  -23.9254  -46.0529 C.2       10 UNK         0.5000 
     21 O          -0.0066  -25.0054  -46.5171 O.2       10 UNK        -0.5000 
     22 CA          0.0092  -23.5787  -44.5940 C.3       10 UNK         0.1400 
     23 CB          1.1852  -23.9170  -43.6664 C.3       10 UNK        -0.1800 
     24 N          -0.3505  -22.1718  -44.4204 N.am      10 UNK        -0.5000 
     25 C          -1.3934  -21.5556  -44.9884 C.2       9 UNK         0.5000 
     26 O          -2.1888  -22.1461  -45.7219 O.2       9 UNK        -0.5000 
     27 CA         -1.5600  -20.0362  -44.7302 C.3       9 UNK         0.1400 
     28 CB         -3.0319  -19.6002  -44.8292 C.3       9 UNK        -0.1800 
     29 N          -1.0166  -19.5353  -43.4595 N.am      9 UNK        -0.5000 
     30 C           0.2692  -19.4790  -43.0834 C.2       8 UNK         0.5000 
     31 O           1.1930  -19.9276  -43.7630 O.2       8 UNK        -0.5000 
     32 CA          0.5558  -18.8338  -41.7161 C.3       8 UNK         0.1400 
     33 CB          2.0466  -18.5015  -41.5203 C.3       8 UNK        -0.1800 
     34 N          -0.2202  -17.6049  -41.5750 N.am      8 UNK        -0.5000 
     35 C          -1.1203  -17.3449  -40.6185 C.2       7 UNK         0.5000 
     36 O          -1.4320  -18.1526  -39.7427 O.2       7 UNK        -0.5000 
     37 CA         -1.7817  -15.9495  -40.6203 C.3       7 UNK         0.1400 
     38 CB         -1.2723  -15.1136  -39.4353 C.3       7 UNK        -0.1800 
     39 N          -1.5537  -15.1928  -41.8528 N.am      7 UNK        -0.5000 
     40 C          -2.1724  -15.4196  -43.0189 C.2       6 UNK         0.5000 
     41 O          -3.0510  -16.2678  -43.1710 O.2       6 UNK        -0.5000 
     42 CA         -1.7066  -14.5760  -44.2229 C.3       6 UNK         0.1400 
     43 CB         -2.5728  -13.3153  -44.3472 C.3       6 UNK        -0.1800 
     44 N          -0.2900  -14.1890  -44.1876 N.am      6 UNK        -0.5000 
     45 C           0.7474  -15.0392  -44.1161 C.2       5 UNK         0.5000 
     46 O           0.6090  -16.2561  -44.0020 O.2       5 UNK        -0.5000 
     47 CA          2.1665  -14.4436  -44.1514 C.3       5 UNK         0.1400 
     48 CB          3.1462  -15.3448  -44.9274 C.3       5 UNK        -0.1800 
     49 N           2.1635  -13.1064  -44.7456 N.am      5 UNK        -0.5000 
     50 C           2.5271  -11.9806  -44.1197 C.2       4 UNK         0.5000 
     51 O           2.9251  -11.9452  -42.9547 O.2       4 UNK        -0.5000 
     52 CA          2.4274  -10.6637  -44.9133 C.3       4 UNK         0.1400 
     53 CB          3.7832  -10.3051  -45.5404 C.3       4 UNK        -0.1800 
     54 N           1.3960  -10.6530  -45.9545 N.am      4 UNK        -0.5000 
     55 C           0.0767  -10.6463  -45.7131 C.2       3 UNK         0.5000 
     56 O          -0.4076  -10.7866  -44.5903 O.2       3 UNK        -0.5000 
     57 CA         -0.8559  -10.4472  -46.9196 C.3       3 UNK         0.1400 
     58 CB         -0.8236   -8.9853  -47.3929 C.3       3 UNK        -0.1800 
     59 N          -0.4648  -11.3176  -48.0239 N.am      3 UNK        -0.5000 
     60 C          -1.1229  -12.4230  -48.4005 C.2       2 UNK         0.5000 
     61 O          -2.2042  -12.7731  -47.9310 O.2       2 UNK        -0.5000 
     62 CA         -0.4559  -13.3054  -49.4761 C.3       2 UNK         0.1400 
     63 CB         -1.0273  -12.9838  -50.8644 C.3       2 UNK        -0.1800 
     64 N           1.0017  -13.1807  -49.5262 N.am      2 UNK        -0.5000 
     65 C           1.8418  -13.4260  -48.5101 C.2       1 UNK         0.5000 
     66 O           1.4748  -13.8309  -47.4093 O.2       1 UNK        -0.5000 
     67 C           0.0941  -23.1665  -49.0900 C.2       11 UNK         0.5000 
     68 O           0.1373  -23.8470  -50.1147 O.2       11 UNK        -0.5000 
     69 N          -0.9875  -22.4776  -48.6976 N.am      12 UNK        -0.5000 
     70 CA         -2.2784  -22.5161  -49.3790 C.3       12 UNK         0.1400 
     71 CB         -3.1122  -21.2879  -48.9808 C.3       12 UNK        -0.1800 
     72 C          -3.0383  -23.8160  -49.0817 C.2       12 UNK         0.5000 
     73 O          -3.6034  -24.4121  -49.9994 O.2       12 UNK        -0.5000 
     74 N          -3.0312  -24.2202  -47.8040 N.am      13 UNK        -0.5000 
     75 CA         -3.7093  -25.4114  -47.2987 C.3       13 UNK         0.1400 
     76 CB         -3.6912  -25.3879  -45.7631 C.3       13 UNK        -0.1800 
     77 C          -3.1160  -26.7295  -47.8273 C.2       13 UNK         0.5000 
     78 O          -3.8817  -27.6415  -48.1430 O.2       13 UNK        -0.5000 
     79 N          -1.7786  -26.8060  -47.9146 N.am      14 UNK        -0.5000 
     80 CA         -0.9985  -27.9607  -48.3706 C.3       14 UNK         0.1400 
     81 CB          0.4952  -27.5961  -48.3765 C.3       14 UNK        -0.1800 
     82 C          -1.4437  -28.4653  -49.7544 C.2       14 UNK         0.5000 
     83 O          -1.1864  -27.8005  -50.7588 O.2       14 UNK        -0.5000 
     84 N          -2.1649  -29.5968  -49.7633 N.am      15 UNK        -0.5000 
     85 CA         -2.7888  -30.2496  -50.9234 C.3       15 UNK         0.1400 
     86 CB         -1.7022  -30.8353  -51.8494 C.3       15 UNK        -0.1800 
     87 C          -3.7892  -29.3553  -51.6943 C.2       15 UNK         0.5000 
     88 O          -4.0812  -29.6377  -52.8575 O.2       15 UNK        -0.5000 
     89 N          -4.2723  -28.2817  -51.0460 N.am      16 UNK        -0.5000 
     90 CA         -5.0664  -27.1829  -51.6071 C.3       16 UNK         0.1400 
     91 CB         -6.4816  -27.6776  -51.9753 C.3       16 UNK        -0.1800 
     92 C          -4.3637  -26.4500  -52.7766 C.2       16 UNK         0.5000 
     93 O          -5.0432  -25.9072  -53.6499 O.2       16 UNK        -0.5000 
     94 N          -3.0198  -26.4571  -52.7883 N.am      17 UNK        -0.5000 
     95 CA         -2.1745  -26.0186  -53.9047 C.3       17 UNK         0.1400 
     96 CB         -0.7085  -26.3494  -53.5876 C.3       17 UNK        -0.1800 
     97 C          -2.3133  -24.5345  -54.2906 C.2       17 UNK         0.5000 
     98 O          -2.0729  -24.1895  -55.4487 O.2       17 UNK        -0.5000 
     99 N          -2.7081  -23.6915  -53.3324 N.am      18 UNK        -0.5000 
    100 CA        -2.9929  -22.2740  -53.5374 C.3       18 UNK         0.1400 
    101 CB        -1.7051  -21.4414  -53.3781 C.3       18 UNK        -0.1800 
    102 C         -4.1266  -21.8471  -52.5953 C.2       18 UNK         0.5000 
    103 O         -4.0309  -20.8055  -51.9464 O.2       18 UNK        -0.5000 
    104 N         -5.1663  -22.6887  -52.4995 N.am      19 UNK        -0.5000 
    105 CA        -6.3110  -22.5181  -51.6045 C.3       19 UNK         0.1400 
    106 CB        -7.3058  -23.6658  -51.8251 C.3       19 UNK        -0.1800 
    107 C         -7.0014  -21.1502  -51.7666 C.2       19 UNK         0.5000 
    108 O         -7.3592  -20.7731  -52.8843 O.2       19 UNK        -0.5000 
    109 N         -7.1427  -20.4408  -50.6394 N.am      20 UNK        -0.5000 
    110 CA        -7.7186  -19.1013  -50.4771 C.3       20 UNK         0.1400 
    111 CB        -9.1767  -19.0483  -50.9798 C.3       20 UNK        -0.1800 
    112 C         -6.8691  -17.9411  -51.0420 C.2       20 UNK         0.5000 
    113 O         -7.2919  -16.7908  -50.9107 O.2       20 UNK        -0.5000 
    114 N         -5.6754  -18.2112  -51.5986 N.am      21 UNK        -0.5000 
    115 CA        -4.7591  -17.1765  -52.1033 C.3       21 UNK         0.1400 
    116 CB        -3.6148  -17.8272  -52.8941 C.3       21 UNK        -0.1800 
    117 C         -4.1928  -16.2792  -50.9848 C.2       21 UNK         0.5000 
    118 O         -3.9161  -15.1043  -51.2239 O.2       21 UNK        -0.5000 
    119 N         -4.0724  -16.8492  -49.7811 N.am      22 UNK        -0.5000 
    120 CA        -3.7064  -16.1613  -48.5344 C.3       22 UNK         0.1400 
    121 C         -4.8931  -15.4064  -47.8581 C.2       22 UNK         0.5000 
    122 N         -6.0917  -15.3723  -48.4316 N.am      22 UNK        -0.7600 
    123 O         -4.7299  -14.8430  -46.7805 O.2       22 UNK        -0.5000 
    124 C124       -3.0281  -17.1395  -47.5410 C.3       23 UNK        -0.0398 
    125 S125       -1.5279  -17.9228  -48.2240 S.3       23 UNK        -0.2404 
    126 C126       -0.2197  -17.0115  -47.3550 C.3       23 UNK        -0.0205 
    127 H127        3.9888   -8.9047  -50.2086 H         1 UNK         0.0600 
    128 H128        2.5435   -9.3592  -51.1174 H         1 UNK         0.0600 
    129 H129        4.0727  -10.1921  -51.4153 H         1 UNK         0.0600 
    130 H130        4.1143  -12.2266  -50.4970 H         1 UNK         0.3000 
    131 H131        3.7086  -12.7431  -47.7781 H         1 UNK         0.0600 
    132 H132        4.0951  -15.0790  -48.2886 H         1 UNK         0.0800 
    133 H133        5.2201  -14.0903  -49.1634 H         1 UNK         0.0800 
    134 H134        4.9960  -17.0657  -50.1612 H         1 UNK         0.0800 
    135 H135        3.6714  -17.4767  -51.2222 H         1 UNK         0.0800 
    136 H136        1.4010  -16.2033  -49.3933 H         1 UNK         0.1150 
    137 H137        1.1678  -19.0225  -46.1880 H         1 UNK         0.1150 
    138 H138        4.6441  -18.9257  -48.6825 H         1 UNK         0.1150 
    139 H139        4.4680  -20.0374  -46.1501 H         1 UNK         0.0800 
    140 H140        2.8583  -20.6101  -45.8057 H         1 UNK         0.0800 
    141 H141        2.5143  -22.0490  -49.6905 H         1 UNK         0.0800 
    142 H142        1.6796  -20.9743  -48.6147 H         1 UNK         0.0800 
    143 H143        1.8984  -24.0102  -48.3106 H         1 UNK         0.0600 
    144 H144        1.2509  -22.1275  -46.2912 H         1 UNK         0.3000 
    145 H145       -0.8493  -24.1842  -44.2980 H         1 UNK         0.0600 
    146 H146        0.9248  -23.7454  -42.6219 H         1 UNK         0.0600 
    147 H147        1.4689  -24.9660  -43.7624 H         1 UNK         0.0600 
    148 H148        2.0656  -23.3151  -43.8959 H         1 UNK         0.0600 
    149 H149        0.3045  -21.5885  -43.9094 H         1 UNK         0.3000 
    150 H150       -1.0188  -19.5350  -45.5332 H         1 UNK         0.0600 
    151 H151       -3.4663  -19.8759  -45.7904 H         1 UNK         0.0600 
    152 H152       -3.1296  -18.5190  -44.7340 H         1 UNK         0.0600 
    153 H153       -3.6389  -20.0625  -44.0501 H         1 UNK         0.0600 
    154 H154       -1.6968  -19.1478  -42.8217 H         1 UNK         0.3000 
    155 H155        0.2677  -19.5644  -40.9580 H         1 UNK         0.0600 
    156 H156        2.2235  -18.0462  -40.5458 H         1 UNK         0.0600 
    157 H157        2.4058  -17.8098  -42.2837 H         1 UNK         0.0600 
    158 H158        2.6609  -19.4011  -41.5740 H         1 UNK         0.0600 
    159 H159       -0.0645  -16.9213  -42.3108 H         1 UNK         0.3000 
    160 H160       -2.8566  -16.0976  -40.4964 H         1 UNK         0.0600 
    161 H161       -0.1992  -14.9305  -39.5042 H         1 UNK         0.0600 
    162 H162       -1.4582  -15.6217  -38.4881 H         1 UNK         0.0600 
    163 H163       -1.7762  -14.1481  -39.3875 H         1 UNK         0.0600 
    164 H164       -0.8425  -14.4772  -41.8208 H         1 UNK         0.3000 
    165 H165       -1.8524  -15.1777  -45.1199 H         1 UNK         0.0600 
    166 H166       -2.3403  -12.7673  -45.2588 H         1 UNK         0.0600 
    167 H167       -3.6326  -13.5706  -44.3895 H         1 UNK         0.0600 
    168 H168       -2.4279  -12.6405  -43.5027 H         1 UNK         0.0600 
    169 H169       -0.0925  -13.2000  -44.2602 H         1 UNK         0.3000 
    170 H170        2.5045  -14.4017  -43.1144 H         1 UNK         0.0600 
    171 H171        3.2569  -16.3140  -44.4394 H         1 UNK         0.0600 
    172 H172        2.8050  -15.5353  -45.9451 H         1 UNK         0.0600 
    173 H173        4.1375  -14.8956  -44.9838 H         1 UNK         0.0600 
    174 H174        1.8359  -13.0677  -45.7076 H         1 UNK         0.3000 
    175 H175        2.1767   -9.8781  -44.1973 H         1 UNK         0.0600 
    176 H176        4.1000  -11.0474  -46.2717 H         1 UNK         0.0600 
    177 H177        3.7424   -9.3382  -46.0423 H         1 UNK         0.0600 
    178 H178        4.5618  -10.2431  -44.7790 H         1 UNK         0.0600 
    179 H179        1.7249  -10.5287  -46.9093 H         1 UNK         0.3000 
    180 H180       -1.8741  -10.6707  -46.5947 H         1 UNK         0.0600 
    181 H181       -1.5287   -8.8224  -48.2081 H         1 UNK         0.0600 
    182 H182        0.1666   -8.6937  -47.7456 H         1 UNK         0.0600 
    183 H183       -1.0987   -8.3068  -46.5844 H         1 UNK         0.0600 
    184 H184        0.4323  -11.1197  -48.4519 H         1 UNK         0.3000 
    185 H185       -0.6930  -14.3443  -49.2428 H         1 UNK         0.0600 
    186 H186       -0.6517  -13.6779  -51.6165 H         1 UNK         0.0600 
    187 H187       -2.1151  -13.0631  -50.8666 H         1 UNK         0.0600 
    188 H188       -0.7722  -11.9715  -51.1800 H         1 UNK         0.0600 
    189 H189        1.3966  -12.8439  -50.3921 H         1 UNK         0.3000 
    190 H190       -0.9545  -21.9739  -47.8236 H         1 UNK         0.3000 
    191 H191       -2.1091  -22.4764  -50.4549 H         1 UNK         0.0600 
    192 H192       -4.1309  -21.3611  -49.3609 H         1 UNK         0.0600 
    193 H193       -2.6804  -20.3782  -49.3963 H         1 UNK         0.0600 
    194 H194       -3.1816  -21.1662  -47.9013 H         1 UNK         0.0600 
    195 H195       -2.5707  -23.6356  -47.1149 H         1 UNK         0.3000 
    196 H196       -4.7500  -25.3633  -47.6262 H         1 UNK         0.0600 
    197 H197       -2.6740  -25.4294  -45.3732 H         1 UNK         0.0600 
    198 H198       -4.1608  -24.4833  -45.3761 H         1 UNK         0.0600 
    199 H199       -4.2355  -26.2395  -45.3528 H         1 UNK         0.0600 
    200 H200       -1.2327  -26.0119  -47.5913 H         1 UNK         0.3000 
    201 H201       -1.1432  -28.7627  -47.6443 H         1 UNK         0.0600 
    202 H202        0.6900  -26.7118  -48.9852 H         1 UNK         0.0600 
    203 H203        1.0977  -28.4121  -48.7776 H         1 UNK         0.0600 
    204 H204        0.8560  -27.3956  -47.3679 H         1 UNK         0.0600 
    205 H205       -2.3689  -30.0292  -48.8727 H         1 UNK         0.3000 
    206 H206       -3.3727  -31.0819  -50.5283 H         1 UNK         0.0600 
    207 H207       -1.0100  -31.4684  -51.2944 H         1 UNK         0.0600 
    208 H208       -2.1431  -31.4515  -52.6338 H         1 UNK         0.0600 
    209 H209       -1.1222  -30.0511  -52.3372 H         1 UNK         0.0600 
    210 H210       -3.9912  -28.1545  -50.0781 H         1 UNK         0.3000 
    211 H211       -5.1719  -26.4478  -50.8086 H         1 UNK         0.0600 
    212 H212       -7.1256  -26.8529  -52.2800 H         1 UNK         0.0600 
    213 H213       -6.9613  -28.1634  -51.1257 H         1 UNK         0.0600 
    214 H214       -6.4597  -28.3900  -52.8003 H         1 UNK         0.0600 
    215 H215       -2.5322  -26.9071  -52.0193 H         1 UNK         0.3000 
    216 H216       -2.4697  -26.6030  -54.7783 H         1 UNK         0.0600 
    217 H217       -0.3700  -25.8385  -52.6848 H         1 UNK         0.0600 
    218 H218       -0.0503  -26.0479  -54.4035 H         1 UNK         0.0600 
    219 H219       -0.5695  -27.4205  -53.4393 H         1 UNK         0.0600 
    220 H220       -2.9056  -24.0631  -52.4112 H         1 UNK         0.3000 
    221 H221       -3.3736  -22.1214  -54.5494 H         1 UNK         0.0600 
    222 H222       -0.9481  -21.7462  -54.1005 H         1 UNK         0.0600 
    223 H223       -1.2740  -21.5433  -52.3827 H         1 UNK         0.0600 
    224 H224       -1.9006  -20.3818  -53.5457 H         1 UNK         0.0600 
    225 H225       -5.1693  -23.5186  -53.0774 H         1 UNK         0.3000 
    226 H226       -5.9307  -22.6003  -50.5844 H         1 UNK         0.0600 
    227 H227       -7.6460  -23.7116  -52.8604 H         1 UNK         0.0600 
    228 H228       -6.8525  -24.6235  -51.5750 H         1 UNK         0.0600 
    229 H229       -8.1866  -23.5502  -51.1921 H         1 UNK         0.0600 
    230 H230       -6.7924  -20.8492  -49.7843 H         1 UNK         0.3000 
    231 H231       -7.7491  -18.9339  -49.3995 H         1 UNK         0.0600 
    232 H232       -9.2371  -19.1177  -52.0660 H         1 UNK         0.0600 
    233 H233       -9.6555  -18.1121  -50.6902 H         1 UNK         0.0600 
    234 H234       -9.7708  -19.8582  -50.5565 H         1 UNK         0.0600 
    235 H235       -5.3586  -19.1722  -51.6713 H         1 UNK         0.3000 
    236 H236       -5.3217  -16.5381  -52.7878 H         1 UNK         0.0600 
    237 H237       -3.9948  -18.4817  -53.6787 H         1 UNK         0.0600 
    238 H238       -2.9941  -17.0692  -53.3731 H         1 UNK         0.0600 
    239 H239       -2.9647  -18.4164  -52.2463 H         1 UNK         0.0600 
    240 H240       -4.3135  -17.8248  -49.6952 H         1 UNK         0.3000 
    241 H241       -2.9755  -15.3891  -48.7799 H         1 UNK         0.0600 
    242 H242       -6.8377  -14.8767  -47.9699 H         1 UNK         0.3800 
    243 H243       -6.2674  -15.8139  -49.3248 H         1 UNK         0.3800 
    244 H244       -3.7261  -17.9316  -47.2677 H         1 UNK         0.0800 
    245 H245       -2.7716  -16.6356  -46.6096 H         1 UNK         0.0800 
    246 H246       -0.3677  -17.1128  -46.2795 H         1 UNK         0.0800 
    247 H247       -0.2923  -15.9471  -47.5775 H         1 UNK         0.0800 
@<TRIPOS>BOND
     1    1    2 1    
     2    1  127 1    
     3    1  128 1    
     4    1  129 1    
     5    2    3 2    
     6    2    4 am   BACKBONE|DICT|INTERRES
     7    4    5 1    
     8    4  130 1    
     9    5    6 1    
    10    5   65 1    
    11    5  131 1    
    12    6    7 1    
    13    6  132 1    
    14    6  133 1    
    15    7    8 1    
    16    8    9 1    
    17    8  134 1    
    18    8  135 1    
    19    9   10 ar   
    20    9   14 ar   
    21   10   11 ar   
    22   10  136 1    
    23   11   12 ar   
    24   11  126 1    
    25   12   13 ar   
    26   12  137 1    
    27   13   14 ar   
    28   13   15 1    
    29   14  138 1    
    30   15   16 1    
    31   15  139 1    
    32   15  140 1    
    33   16   17 1    
    34   17   18 1    
    35   17  141 1    
    36   17  142 1    
    37   18   19 1    
    38   18   67 1    
    39   18  143 1    
    40   19   20 am   BACKBONE|DICT|INTERRES
    41   19  144 1    
    42   20   21 2    
    43   20   22 1    
    44   22   23 1    
    45   22   24 1    
    46   22  145 1    
    47   23  146 1    
    48   23  147 1    
    49   23  148 1    
    50   24   25 am   BACKBONE|DICT|INTERRES
    51   24  149 1    
    52   25   26 2    
    53   25   27 1    
    54   27   28 1    
    55   27   29 1    
    56   27  150 1    
    57   28  151 1    
    58   28  152 1    
    59   28  153 1    
    60   29   30 am   BACKBONE|DICT|INTERRES
    61   29  154 1    
    62   30   31 2    
    63   30   32 1    
    64   32   33 1    
    65   32   34 1    
    66   32  155 1    
    67   33  156 1    
    68   33  157 1    
    69   33  158 1    
    70   34   35 am   BACKBONE|DICT|INTERRES
    71   34  159 1    
    72   35   36 2    
    73   35   37 1    
    74   37   38 1    
    75   37   39 1    
    76   37  160 1    
    77   38  161 1    
    78   38  162 1    
    79   38  163 1    
    80   39   40 am   BACKBONE|DICT|INTERRES
    81   39  164 1    
    82   40   41 2    
    83   40   42 1    
    84   42   43 1    
    85   42   44 1    
    86   42  165 1    
    87   43  166 1    
    88   43  167 1    
    89   43  168 1    
    90   44   45 am   BACKBONE|DICT|INTERRES
    91   44  169 1    
    92   45   46 2    
    93   45   47 1    
    94   47   48 1    
    95   47   49 1    
    96   47  170 1    
    97   48  171 1    
    98   48  172 1    
    99   48  173 1    
   100   49   50 am   BACKBONE|DICT|INTERRES
   101   49  174 1    
   102   50   51 2    
   103   50   52 1    
   104   52   53 1    
   105   52   54 1    
   106   52  175 1    
   107   53  176 1    
   108   53  177 1    
   109   53  178 1    
   110   54   55 am   BACKBONE|DICT|INTERRES
   111   54  179 1    
   112   55   56 2    
   113   55   57 1    
   114   57   58 1    
   115   57   59 1    
   116   57  180 1    
   117   58  181 1    
   118   58  182 1    
   119   58  183 1    
   120   59   60 am   BACKBONE|DICT|INTERRES
   121   59  184 1    
   122   60   61 2    
   123   60   62 1    
   124   62   63 1    
   125   62   64 1    
   126   62  185 1    
   127   63  186 1    
   128   63  187 1    
   129   63  188 1    
   130   64   65 am   BACKBONE|DICT|INTERRES
   131   64  189 1    
   132   65   66 2    
   133   67   68 2    
   134   67   69 am   BACKBONE|DICT|INTERRES
   135   69   70 1    
   136   69  190 1    
   137   70   71 1    
   138   70   72 1    
   139   70  191 1    
   140   71  192 1    
   141   71  193 1    
   142   71  194 1    
   143   72   73 2    
   144   72   74 am   BACKBONE|DICT|INTERRES
   145   74   75 1    
   146   74  195 1    
   147   75   76 1    
   148   75   77 1    
   149   75  196 1    
   150   76  197 1    
   151   76  198 1    
   152   76  199 1    
   153   77   78 2    
   154   77   79 am   BACKBONE|DICT|INTERRES
   155   79   80 1    
   156   79  200 1    
   157   80   81 1    
   158   80   82 1    
   159   80  201 1    
   160   81  202 1    
   161   81  203 1    
   162   81  204 1    
   163   82   83 2    
   164   82   84 am   BACKBONE|DICT|INTERRES
   165   84   85 1    
   166   84  205 1    
   167   85   86 1    
   168   85   87 1    
   169   85  206 1    
   170   86  207 1    
   171   86  208 1    
   172   86  209 1    
   173   87   88 2    
   174   87   89 am   BACKBONE|DICT|INTERRES
   175   89   90 1    
   176   89  210 1    
   177   90   91 1    
   178   90   92 1    
   179   90  211 1    
   180   91  212 1    
   181   91  213 1    
   182   91  214 1    
   183   92   93 2    
   184   92   94 am   BACKBONE|DICT|INTERRES
   185   94   95 1    
   186   94  215 1    
   187   95   96 1    
   188   95   97 1    
   189   95  216 1    
   190   96  217 1    
   191   96  218 1    
   192   96  219 1    
   193   97   98 2    
   194   97   99 am   BACKBONE|DICT|INTERRES
   195   99  100 1    
   196   99  220 1    
   197  100  101 1    
   198  100  102 1    
   199  100  221 1    
   200  101  222 1    
   201  101  223 1    
   202  101  224 1    
   203  102  103 2    
   204  102  104 am   BACKBONE|DICT|INTERRES
   205  104  105 1    
   206  104  225 1    
   207  105  106 1    
   208  105  107 1    
   209  105  226 1    
   210  106  227 1    
   211  106  228 1    
   212  106  229 1    
   213  107  108 2    
   214  107  109 am   BACKBONE|DICT|INTERRES
   215  109  110 1    
   216  109  230 1    
   217  110  111 1    
   218  110  112 1    
   219  110  231 1    
   220  111  232 1    
   221  111  233 1    
   222  111  234 1    
   223  112  113 2    
   224  112  114 am   BACKBONE|DICT|INTERRES
   225  114  115 1    
   226  114  235 1    
   227  115  116 1    
   228  115  117 1    
   229  115  236 1    
   230  116  237 1    
   231  116  238 1    
   232  116  239 1    
   233  117  118 2    
   234  117  119 am   BACKBONE|DICT|INTERRES
   235  119  120 1    
   236  119  240 1    
   237  120  121 1    
   238  120  124 1    
   239  120  241 1    
   240  121  122 am   BACKBONE|DICT|INTERRES
   241  121  123 2    
   242  122  242 1    
   243  122  243 1    
   244  124  125 1    
   245  124  244 1    
   246  124  245 1    
   247  125  126 1    
   248  126  246 1    
   249  126  247 1    
@<TRIPOS>SUBSTRUCTURE
     1 UNK         1 GROUP             0       ****    0 ROOT    
