@<TRIPOS>MOLECULE
3R540
247   249    1
SMALL
USER_CHARGES


@<TRIPOS>ATOM
      1 CA         -1.8304  -19.7619  -45.1081 C.3       0 UNK        -0.1800 
      2 C          -1.4896  -18.9340  -46.3385 C.2       0 UNK         0.5000 
      3 O          -2.3782  -18.6398  -47.1348 O.2       0 UNK        -0.5000 
      4 N          -0.2041  -18.5944  -46.5067 N.am      1 UNK        -0.5000 
      5 CA          0.3620  -17.7639  -47.5778 C.3       1 UNK         0.1400 
      6 C6          1.8921  -17.6136  -47.3621 C.3       23 UNK        -0.0398 
      7 S7          2.7714  -16.5266  -48.5426 S.3       23 UNK        -0.2404 
      8 C8          3.8031  -17.7036  -49.4684 C.3       23 UNK        -0.0205 
      9 C9          3.0051  -18.4429  -50.5304 C.ar      23 UNK        -0.0193 
     10 C10         2.8097  -17.8647  -51.7870 C.ar      23 UNK        -0.1150 
     11 C11         2.1137  -18.5486  -52.7886 C.ar      23 UNK        -0.0193 
     12 C12         1.5860  -19.8160  -52.5108 C.ar      23 UNK        -0.1150 
     13 C13         1.7912  -20.4145  -51.2610 C.ar      23 UNK        -0.0193 
     14 C14         2.5060  -19.7224  -50.2786 C.ar      23 UNK        -0.1150 
     15 C15         1.3256  -21.8425  -50.9998 C.3       23 UNK        -0.0205 
     16 S16        -0.3655  -21.9475  -50.3264 S.3       23 UNK        -0.2404 
     17 C17        -0.1176  -21.4119  -48.6043 C.3       23 UNK        -0.0398 
     18 CA          0.3868  -22.5543  -47.6878 C.3       11 UNK         0.1400 
     19 N           1.4804  -22.1138  -46.8139 N.am      11 UNK        -0.5000 
     20 C           2.3322  -22.9196  -46.1677 C.2       10 UNK         0.5000 
     21 O           2.1945  -24.1417  -46.1030 O.2       10 UNK        -0.5000 
     22 CA          3.5454  -22.2497  -45.4946 C.3       10 UNK         0.1400 
     23 CB          4.3219  -21.3482  -46.4778 C.3       10 UNK        -0.1800 
     24 N           3.2371  -21.5281  -44.2550 N.am      10 UNK        -0.5000 
     25 C           2.4324  -20.4720  -44.0795 C.2       9 UNK         0.5000 
     26 O           1.7434  -19.9626  -44.9674 O.2       9 UNK        -0.5000 
     27 CA          2.4543  -19.8356  -42.6817 C.3       9 UNK         0.1400 
     28 CB          3.3254  -18.5718  -42.6915 C.3       9 UNK        -0.1800 
     29 N           1.1070  -19.4791  -42.2475 N.am      9 UNK        -0.5000 
     30 C           0.2629  -20.3152  -41.6343 C.2       8 UNK         0.5000 
     31 O           0.5464  -21.4857  -41.3742 O.2       8 UNK        -0.5000 
     32 CA         -1.1087  -19.7368  -41.2197 C.3       8 UNK         0.1400 
     33 CB         -1.9342  -20.7174  -40.3661 C.3       8 UNK        -0.1800 
     34 N          -0.9852  -18.4754  -40.4843 N.am      8 UNK        -0.5000 
     35 C          -0.7973  -17.2707  -41.0342 C.2       7 UNK         0.5000 
     36 O          -0.6499  -17.0916  -42.2443 O.2       7 UNK        -0.5000 
     37 CA         -0.7376  -16.0742  -40.0705 C.3       7 UNK         0.1400 
     38 CB          0.6807  -15.4907  -39.9852 C.3       7 UNK        -0.1800 
     39 N          -1.6651  -15.0363  -40.5095 N.am      7 UNK        -0.5000 
     40 C          -2.9792  -15.0494  -40.2466 C.2       6 UNK         0.5000 
     41 O          -3.5206  -15.8853  -39.5215 O.2       6 UNK        -0.5000 
     42 CA         -3.8410  -13.9517  -40.8992 C.3       6 UNK         0.1400 
     43 CB         -4.0129  -12.7615  -39.9430 C.3       6 UNK        -0.1800 
     44 N          -3.2956  -13.4682  -42.1670 N.am      6 UNK        -0.5000 
     45 C          -3.2490  -14.1767  -43.3028 C.2       5 UNK         0.5000 
     46 O          -3.7067  -15.3140  -43.4191 O.2       5 UNK        -0.5000 
     47 CA         -2.5911  -13.4981  -44.5187 C.3       5 UNK         0.1400 
     48 CB         -2.7593  -11.9631  -44.5376 C.3       5 UNK        -0.1800 
     49 N          -1.1816  -13.8574  -44.6670 N.am      5 UNK        -0.5000 
     50 C          -0.1748  -13.6745  -43.7999 C.2       4 UNK         0.5000 
     51 O          -0.3123  -13.2216  -42.6621 O.2       4 UNK        -0.5000 
     52 CA          1.2370  -14.0143  -44.3141 C.3       4 UNK         0.1400 
     53 CB          1.5940  -15.4821  -44.0449 C.3       4 UNK        -0.1800 
     54 N           1.3702  -13.7536  -45.7485 N.am      4 UNK        -0.5000 
     55 C           1.6578  -12.5602  -46.2858 C.2       3 UNK         0.5000 
     56 O           1.8830  -11.5489  -45.6203 O.2       3 UNK        -0.5000 
     57 CA          1.7163  -12.4784  -47.8246 C.3       3 UNK         0.1400 
     58 CB          3.1651  -12.6281  -48.3137 C.3       3 UNK        -0.1800 
     59 N           0.8860  -13.4903  -48.4803 N.am      3 UNK        -0.5000 
     60 C          -0.4447  -13.4030  -48.6177 C.2       2 UNK         0.5000 
     61 O          -1.1066  -12.4292  -48.2585 O.2       2 UNK        -0.5000 
     62 CA         -1.1633  -14.6230  -49.2304 C.3       2 UNK         0.1400 
     63 CB         -1.2721  -14.4785  -50.7556 C.3       2 UNK        -0.1800 
     64 N          -0.5289  -15.9073  -48.9199 N.am      2 UNK        -0.5000 
     65 C          -0.3482  -16.3959  -47.6852 C.2       1 UNK         0.5000 
     66 O          -0.6654  -15.7882  -46.6621 O.2       1 UNK        -0.5000 
     67 C          -0.7757  -23.2380  -46.9431 C.2       11 UNK         0.5000 
     68 O          -1.6086  -23.8728  -47.5883 O.2       11 UNK        -0.5000 
     69 N          -0.8039  -23.1474  -45.6063 N.am      12 UNK        -0.5000 
     70 CA         -1.7488  -23.8596  -44.7428 C.3       12 UNK         0.1400 
     71 CB         -1.5370  -23.4127  -43.2915 C.3       12 UNK        -0.1800 
     72 C          -1.6486  -25.3944  -44.8683 C.2       12 UNK         0.5000 
     73 O          -2.6601  -26.0789  -44.7167 O.2       12 UNK        -0.5000 
     74 N          -0.4576  -25.9027  -45.2227 N.am      13 UNK        -0.5000 
     75 CA         -0.2135  -27.3082  -45.5621 C.3       13 UNK         0.1400 
     76 CB          1.3021  -27.5413  -45.6499 C.3       13 UNK        -0.1800 
     77 C          -0.9032  -27.7530  -46.8709 C.2       13 UNK         0.5000 
     78 O          -1.1535  -28.9454  -47.0468 O.2       13 UNK        -0.5000 
     79 N          -1.2161  -26.7899  -47.7478 N.am      14 UNK        -0.5000 
     80 CA         -1.9700  -26.9619  -48.9899 C.3       14 UNK         0.1400 
     81 CB         -1.2128  -26.2430  -50.1221 C.3       14 UNK        -0.1800 
     82 C          -3.4089  -26.4212  -48.8488 C.2       14 UNK         0.5000 
     83 O          -4.0645  -26.1741  -49.8616 O.2       14 UNK        -0.5000 
     84 N          -3.8651  -26.1998  -47.6039 N.am      15 UNK        -0.5000 
     85 CA         -5.1706  -25.6517  -47.2126 C.3       15 UNK         0.1400 
     86 CB         -6.2932  -26.6573  -47.5424 C.3       15 UNK        -0.1800 
     87 C          -5.4538  -24.2415  -47.7792 C.2       15 UNK         0.5000 
     88 O          -6.6171  -23.8741  -47.9498 O.2       15 UNK        -0.5000 
     89 N          -4.3834  -23.4879  -48.0772 N.am      16 UNK        -0.5000 
     90 CA         -4.3616  -22.1702  -48.7189 C.3       16 UNK         0.1400 
     91 CB         -5.0144  -21.1076  -47.8107 C.3       16 UNK        -0.1800 
     92 C          -4.9266  -22.1619  -50.1578 C.2       16 UNK         0.5000 
     93 O          -5.2778  -21.0951  -50.6640 O.2       16 UNK        -0.5000 
     94 N          -4.9849  -23.3330  -50.8127 N.am      17 UNK        -0.5000 
     95 CA         -5.5470  -23.5016  -52.1553 C.3       17 UNK         0.1400 
     96 CB         -5.6568  -24.9975  -52.4843 C.3       17 UNK        -0.1800 
     97 C          -4.7465  -22.7622  -53.2410 C.2       17 UNK         0.5000 
     98 O          -5.3437  -22.1437  -54.1223 O.2       17 UNK        -0.5000 
     99 N          -3.4112  -22.8084  -53.1386 N.am      18 UNK        -0.5000 
    100 CA        -2.5098  -22.0628  -54.0166 C.3       18 UNK         0.1400 
    101 CB        -1.1243  -22.7223  -54.0253 C.3       18 UNK        -0.1800 
    102 C         -2.4268  -20.5754  -53.6314 C.2       18 UNK         0.5000 
    103 O         -2.2916  -19.7345  -54.5181 O.2       18 UNK        -0.5000 
    104 N         -2.5594  -20.2590  -52.3344 N.am      19 UNK        -0.5000 
    105 CA        -2.5720  -18.8885  -51.8141 C.3       19 UNK         0.1400 
    106 CB        -2.4960  -18.8891  -50.2854 C.3       19 UNK        -0.1800 
    107 C         -3.7760  -18.0644  -52.3025 C.2       19 UNK         0.5000 
    108 O         -3.6354  -16.8610  -52.5190 O.2       19 UNK        -0.5000 
    109 N         -4.9158  -18.7325  -52.5257 N.am      20 UNK        -0.5000 
    110 CA        -6.1147  -18.1547  -53.1347 C.3       20 UNK         0.1400 
    111 CB        -7.2582  -19.1775  -53.0661 C.3       20 UNK        -0.1800 
    112 C         -5.8937  -17.6773  -54.5859 C.2       20 UNK         0.5000 
    113 O         -6.5195  -16.7003  -54.9986 O.2       20 UNK        -0.5000 
    114 N         -4.9988  -18.3522  -55.3224 N.am      21 UNK        -0.5000 
    115 CA        -4.5439  -17.9364  -56.6502 C.3       21 UNK         0.1400 
    116 CB        -4.0992  -19.1711  -57.4501 C.3       21 UNK        -0.1800 
    117 C         -3.4079  -16.8990  -56.5603 C.2       21 UNK         0.5000 
    118 O         -3.3637  -15.9784  -57.3771 O.2       21 UNK        -0.5000 
    119 N         -2.5199  -17.0677  -55.5708 N.am      22 UNK        -0.5000 
    120 CA        -1.4086  -16.1626  -55.2358 C.3       22 UNK         0.1400 
    121 C         -1.8626  -14.7191  -54.8752 C.2       22 UNK         0.5000 
    122 N         -2.8781  -14.5610  -54.0350 N.am      22 UNK        -0.7600 
    123 O         -1.3007  -13.7438  -55.3663 O.2       22 UNK        -0.5000 
    124 C124       -0.5269  -16.7626  -54.1072 C.3       23 UNK        -0.0398 
    125 S125        1.2310  -16.3136  -54.2378 S.3       23 UNK        -0.2404 
    126 C126        2.0247  -17.9561  -54.1927 C.3       23 UNK        -0.0205 
    127 H127       -2.4524  -19.1772  -44.4308 H         1 UNK         0.0600 
    128 H128       -0.9369  -20.0759  -44.5698 H         1 UNK         0.0600 
    129 H129       -2.3848  -20.6547  -45.3968 H         1 UNK         0.0600 
    130 H130        0.4673  -18.9109  -45.8110 H         1 UNK         0.3000 
    131 H131        0.2001  -18.2922  -48.5180 H         1 UNK         0.0600 
    132 H132        2.3551  -18.5996  -47.3774 H         1 UNK         0.0800 
    133 H133        2.0883  -17.2233  -46.3632 H         1 UNK         0.0800 
    134 H134        4.2828  -18.4034  -48.7823 H         1 UNK         0.0800 
    135 H135        4.6138  -17.1516  -49.9463 H         1 UNK         0.0800 
    136 H136        3.2253  -16.8888  -51.9964 H         1 UNK         0.1150 
    137 H137        1.0590  -20.3600  -53.2820 H         1 UNK         0.1150 
    138 H138        2.6993  -20.1903  -49.3242 H         1 UNK         0.1150 
    139 H139        1.3665  -22.4101  -51.9301 H         1 UNK         0.0800 
    140 H140        2.0174  -22.3441  -50.3214 H         1 UNK         0.0800 
    141 H141       -1.0591  -20.9941  -48.2479 H         1 UNK         0.0800 
    142 H142        0.5764  -20.5766  -48.6044 H         1 UNK         0.0800 
    143 H143        0.8183  -23.3349  -48.3183 H         1 UNK         0.0600 
    144 H144        1.6050  -21.1170  -46.6895 H         1 UNK         0.3000 
    145 H145        4.2179  -23.0599  -45.2077 H         1 UNK         0.0600 
    146 H146        4.5635  -21.8864  -47.3953 H         1 UNK         0.0600 
    147 H147        3.7604  -20.4584  -46.7601 H         1 UNK         0.0600 
    148 H148        5.2638  -21.0168  -46.0408 H         1 UNK         0.0600 
    149 H149        3.7324  -21.8709  -43.4435 H         1 UNK         0.3000 
    150 H150        2.8873  -20.5401  -41.9681 H         1 UNK         0.0600 
    151 H151        4.3617  -18.8147  -42.9295 H         1 UNK         0.0600 
    152 H152        3.3208  -18.0776  -41.7197 H         1 UNK         0.0600 
    153 H153        2.9806  -17.8552  -43.4357 H         1 UNK         0.0600 
    154 H154        0.7788  -18.5450  -42.4674 H         1 UNK         0.3000 
    155 H155       -1.6680  -19.5527  -42.1382 H         1 UNK         0.0600 
    156 H156       -1.4332  -20.9523  -39.4262 H         1 UNK         0.0600 
    157 H157       -2.1022  -21.6576  -40.8915 H         1 UNK         0.0600 
    158 H158       -2.9145  -20.3036  -40.1291 H         1 UNK         0.0600 
    159 H159       -1.0618  -18.5431  -39.4795 H         1 UNK         0.3000 
    160 H160       -1.0178  -16.4098  -39.0696 H         1 UNK         0.0600 
    161 H161        0.9826  -15.0201  -40.9195 H         1 UNK         0.0600 
    162 H162        1.4125  -16.2650  -39.7513 H         1 UNK         0.0600 
    163 H163        0.7441  -14.7351  -39.2021 H         1 UNK         0.0600 
    164 H164       -1.3041  -14.3544  -41.1680 H         1 UNK         0.3000 
    165 H165       -4.8271  -14.3786  -41.0938 H         1 UNK         0.0600 
    166 H166       -4.6812  -12.0100  -40.3640 H         1 UNK         0.0600 
    167 H167       -4.4434  -13.0823  -38.9935 H         1 UNK         0.0600 
    168 H168       -3.0589  -12.2796  -39.7250 H         1 UNK         0.0600 
    169 H169       -2.8576  -12.5583  -42.1554 H         1 UNK         0.3000 
    170 H170       -3.0979  -13.8912  -45.4015 H         1 UNK         0.0600 
    171 H171       -3.8076  -11.6821  -44.4286 H         1 UNK         0.0600 
    172 H172       -2.1988  -11.4714  -43.7422 H         1 UNK         0.0600 
    173 H173       -2.4121  -11.5500  -45.4851 H         1 UNK         0.0600 
    174 H174       -0.9626  -14.3684  -45.5189 H         1 UNK         0.3000 
    175 H175        1.9509  -13.3913  -43.7711 H         1 UNK         0.0600 
    176 H176        0.8655  -16.1665  -44.4806 H         1 UNK         0.0600 
    177 H177        2.5752  -15.7248  -44.4524 H         1 UNK         0.0600 
    178 H178        1.6315  -15.6868  -42.9766 H         1 UNK         0.0600 
    179 H179        1.1288  -14.5155  -46.3660 H         1 UNK         0.3000 
    180 H180        1.3614  -11.4881  -48.1182 H         1 UNK         0.0600 
    181 H181        3.2279  -12.5353  -49.3981 H         1 UNK         0.0600 
    182 H182        3.5885  -13.5933  -48.0337 H         1 UNK         0.0600 
    183 H183        3.8031  -11.8545  -47.8844 H         1 UNK         0.0600 
    184 H184        1.3544  -14.3251  -48.8041 H         1 UNK         0.3000 
    185 H185       -2.1735  -14.6471  -48.8165 H         1 UNK         0.0600 
    186 H186       -1.8792  -15.2766  -51.1813 H         1 UNK         0.0600 
    187 H187       -1.7458  -13.5346  -51.0283 H         1 UNK         0.0600 
    188 H188       -0.2935  -14.5062  -51.2367 H         1 UNK         0.0600 
    189 H189       -0.2028  -16.4439  -49.7100 H         1 UNK         0.3000 
    190 H190       -0.0726  -22.6237  -45.1487 H         1 UNK         0.3000 
    191 H191       -2.7578  -23.5717  -45.0459 H         1 UNK         0.0600 
    192 H192       -2.2427  -23.9056  -42.6216 H         1 UNK         0.0600 
    193 H193       -1.6887  -22.3386  -43.1897 H         1 UNK         0.0600 
    194 H194       -0.5309  -23.6454  -42.9400 H         1 UNK         0.0600 
    195 H195        0.3248  -25.2712  -45.3444 H         1 UNK         0.3000 
    196 H196       -0.6101  -27.9265  -44.7541 H         1 UNK         0.0600 
    197 H197        1.7552  -26.9421  -46.4408 H         1 UNK         0.0600 
    198 H198        1.7960  -27.2865  -44.7121 H         1 UNK         0.0600 
    199 H199        1.5259  -28.5878  -45.8610 H         1 UNK         0.0600 
    200 H200       -1.0167  -25.8271  -47.5039 H         1 UNK         0.3000 
    201 H201       -2.0466  -28.0200  -49.2467 H         1 UNK         0.0600 
    202 H202       -0.1914  -26.6132  -50.2096 H         1 UNK         0.0600 
    203 H203       -1.1648  -25.1660  -49.9562 H         1 UNK         0.0600 
    204 H204       -1.6977  -26.4047  -51.0856 H         1 UNK         0.0600 
    205 H205       -3.2453  -26.4102  -46.8320 H         1 UNK         0.3000 
    206 H206       -5.1377  -25.5373  -46.1284 H         1 UNK         0.0600 
    207 H207       -6.0765  -27.6406  -47.1252 H         1 UNK         0.0600 
    208 H208       -7.2469  -26.3333  -47.1242 H         1 UNK         0.0600 
    209 H209       -6.4301  -26.7717  -48.6182 H         1 UNK         0.0600 
    210 H210       -3.4618  -23.8799  -47.8986 H         1 UNK         0.3000 
    211 H211       -3.3081  -21.9079  -48.8183 H         1 UNK         0.0600 
    212 H212       -4.8709  -20.1029  -48.2084 H         1 UNK         0.0600 
    213 H213       -4.5760  -21.1210  -46.8129 H         1 UNK         0.0600 
    214 H214       -6.0884  -21.2641  -47.7093 H         1 UNK         0.0600 
    215 H215       -4.6780  -24.1774  -50.3421 H         1 UNK         0.3000 
    216 H216       -6.5555  -23.0826  -52.1465 H         1 UNK         0.0600 
    217 H217       -4.6788  -25.4800  -52.4991 H         1 UNK         0.0600 
    218 H218       -6.1138  -25.1501  -53.4628 H         1 UNK         0.0600 
    219 H219       -6.2743  -25.5176  -51.7516 H         1 UNK         0.0600 
    220 H220       -2.9958  -23.3439  -52.3904 H         1 UNK         0.3000 
    221 H221       -2.8968  -22.1073  -55.0373 H         1 UNK         0.0600 
    222 H222       -1.1702  -23.7195  -54.4631 H         1 UNK         0.0600 
    223 H223       -0.7170  -22.8221  -53.0222 H         1 UNK         0.0600 
    224 H224       -0.4147  -22.1410  -54.6157 H         1 UNK         0.0600 
    225 H225       -2.6740  -21.0027  -51.6636 H         1 UNK         0.3000 
    226 H226       -1.6686  -18.3985  -52.1715 H         1 UNK         0.0600 
    227 H227       -3.2909  -19.4817  -49.8381 H         1 UNK         0.0600 
    228 H228       -1.5424  -19.2833  -49.9420 H         1 UNK         0.0600 
    229 H229       -2.5824  -17.8771  -49.8873 H         1 UNK         0.0600 
    230 H230       -4.9684  -19.7050  -52.2436 H         1 UNK         0.3000 
    231 H231       -6.4000  -17.2837  -52.5411 H         1 UNK         0.0600 
    232 H232       -7.0309  -20.0739  -53.6434 H         1 UNK         0.0600 
    233 H233       -8.1828  -18.7568  -53.4631 H         1 UNK         0.0600 
    234 H234       -7.4538  -19.4828  -52.0378 H         1 UNK         0.0600 
    235 H235       -4.5146  -19.1332  -54.9015 H         1 UNK         0.3000 
    236 H236       -5.3762  -17.4758  -57.1868 H         1 UNK         0.0600 
    237 H237       -3.2529  -19.6765  -56.9849 H         1 UNK         0.0600 
    238 H238       -4.9105  -19.8933  -57.5423 H         1 UNK         0.0600 
    239 H239       -3.7968  -18.8907  -58.4598 H         1 UNK         0.0600 
    240 H240       -2.5961  -17.9072  -55.0067 H         1 UNK         0.3000 
    241 H241       -0.8045  -16.0931  -56.1425 H         1 UNK         0.0600 
    242 H242       -3.1924  -13.6337  -53.8011 H         1 UNK         0.3800 
    243 H243       -3.2969  -15.3686  -53.5788 H         1 UNK         0.3800 
    244 H244       -0.5831  -17.8494  -54.1335 H         1 UNK         0.0800 
    245 H245       -0.8848  -16.4714  -53.1193 H         1 UNK         0.0800 
    246 H246        1.5078  -18.6332  -54.8747 H         1 UNK         0.0800 
    247 H247        3.0383  -17.8558  -54.5828 H         1 UNK         0.0800 
@<TRIPOS>BOND
     1    1    2 1    
     2    1  127 1    
     3    1  128 1    
     4    1  129 1    
     5    2    3 2    
     6    2    4 am   BACKBONE|DICT|INTERRES
     7    4    5 1    
     8    4  130 1    
     9    5    6 1    
    10    5   65 1    
    11    5  131 1    
    12    6    7 1    
    13    6  132 1    
    14    6  133 1    
    15    7    8 1    
    16    8    9 1    
    17    8  134 1    
    18    8  135 1    
    19    9   10 ar   
    20    9   14 ar   
    21   10   11 ar   
    22   10  136 1    
    23   11   12 ar   
    24   11  126 1    
    25   12   13 ar   
    26   12  137 1    
    27   13   14 ar   
    28   13   15 1    
    29   14  138 1    
    30   15   16 1    
    31   15  139 1    
    32   15  140 1    
    33   16   17 1    
    34   17   18 1    
    35   17  141 1    
    36   17  142 1    
    37   18   19 1    
    38   18   67 1    
    39   18  143 1    
    40   19   20 am   BACKBONE|DICT|INTERRES
    41   19  144 1    
    42   20   21 2    
    43   20   22 1    
    44   22   23 1    
    45   22   24 1    
    46   22  145 1    
    47   23  146 1    
    48   23  147 1    
    49   23  148 1    
    50   24   25 am   BACKBONE|DICT|INTERRES
    51   24  149 1    
    52   25   26 2    
    53   25   27 1    
    54   27   28 1    
    55   27   29 1    
    56   27  150 1    
    57   28  151 1    
    58   28  152 1    
    59   28  153 1    
    60   29   30 am   BACKBONE|DICT|INTERRES
    61   29  154 1    
    62   30   31 2    
    63   30   32 1    
    64   32   33 1    
    65   32   34 1    
    66   32  155 1    
    67   33  156 1    
    68   33  157 1    
    69   33  158 1    
    70   34   35 am   BACKBONE|DICT|INTERRES
    71   34  159 1    
    72   35   36 2    
    73   35   37 1    
    74   37   38 1    
    75   37   39 1    
    76   37  160 1    
    77   38  161 1    
    78   38  162 1    
    79   38  163 1    
    80   39   40 am   BACKBONE|DICT|INTERRES
    81   39  164 1    
    82   40   41 2    
    83   40   42 1    
    84   42   43 1    
    85   42   44 1    
    86   42  165 1    
    87   43  166 1    
    88   43  167 1    
    89   43  168 1    
    90   44   45 am   BACKBONE|DICT|INTERRES
    91   44  169 1    
    92   45   46 2    
    93   45   47 1    
    94   47   48 1    
    95   47   49 1    
    96   47  170 1    
    97   48  171 1    
    98   48  172 1    
    99   48  173 1    
   100   49   50 am   BACKBONE|DICT|INTERRES
   101   49  174 1    
   102   50   51 2    
   103   50   52 1    
   104   52   53 1    
   105   52   54 1    
   106   52  175 1    
   107   53  176 1    
   108   53  177 1    
   109   53  178 1    
   110   54   55 am   BACKBONE|DICT|INTERRES
   111   54  179 1    
   112   55   56 2    
   113   55   57 1    
   114   57   58 1    
   115   57   59 1    
   116   57  180 1    
   117   58  181 1    
   118   58  182 1    
   119   58  183 1    
   120   59   60 am   BACKBONE|DICT|INTERRES
   121   59  184 1    
   122   60   61 2    
   123   60   62 1    
   124   62   63 1    
   125   62   64 1    
   126   62  185 1    
   127   63  186 1    
   128   63  187 1    
   129   63  188 1    
   130   64   65 am   BACKBONE|DICT|INTERRES
   131   64  189 1    
   132   65   66 2    
   133   67   68 2    
   134   67   69 am   BACKBONE|DICT|INTERRES
   135   69   70 1    
   136   69  190 1    
   137   70   71 1    
   138   70   72 1    
   139   70  191 1    
   140   71  192 1    
   141   71  193 1    
   142   71  194 1    
   143   72   73 2    
   144   72   74 am   BACKBONE|DICT|INTERRES
   145   74   75 1    
   146   74  195 1    
   147   75   76 1    
   148   75   77 1    
   149   75  196 1    
   150   76  197 1    
   151   76  198 1    
   152   76  199 1    
   153   77   78 2    
   154   77   79 am   BACKBONE|DICT|INTERRES
   155   79   80 1    
   156   79  200 1    
   157   80   81 1    
   158   80   82 1    
   159   80  201 1    
   160   81  202 1    
   161   81  203 1    
   162   81  204 1    
   163   82   83 2    
   164   82   84 am   BACKBONE|DICT|INTERRES
   165   84   85 1    
   166   84  205 1    
   167   85   86 1    
   168   85   87 1    
   169   85  206 1    
   170   86  207 1    
   171   86  208 1    
   172   86  209 1    
   173   87   88 2    
   174   87   89 am   BACKBONE|DICT|INTERRES
   175   89   90 1    
   176   89  210 1    
   177   90   91 1    
   178   90   92 1    
   179   90  211 1    
   180   91  212 1    
   181   91  213 1    
   182   91  214 1    
   183   92   93 2    
   184   92   94 am   BACKBONE|DICT|INTERRES
   185   94   95 1    
   186   94  215 1    
   187   95   96 1    
   188   95   97 1    
   189   95  216 1    
   190   96  217 1    
   191   96  218 1    
   192   96  219 1    
   193   97   98 2    
   194   97   99 am   BACKBONE|DICT|INTERRES
   195   99  100 1    
   196   99  220 1    
   197  100  101 1    
   198  100  102 1    
   199  100  221 1    
   200  101  222 1    
   201  101  223 1    
   202  101  224 1    
   203  102  103 2    
   204  102  104 am   BACKBONE|DICT|INTERRES
   205  104  105 1    
   206  104  225 1    
   207  105  106 1    
   208  105  107 1    
   209  105  226 1    
   210  106  227 1    
   211  106  228 1    
   212  106  229 1    
   213  107  108 2    
   214  107  109 am   BACKBONE|DICT|INTERRES
   215  109  110 1    
   216  109  230 1    
   217  110  111 1    
   218  110  112 1    
   219  110  231 1    
   220  111  232 1    
   221  111  233 1    
   222  111  234 1    
   223  112  113 2    
   224  112  114 am   BACKBONE|DICT|INTERRES
   225  114  115 1    
   226  114  235 1    
   227  115  116 1    
   228  115  117 1    
   229  115  236 1    
   230  116  237 1    
   231  116  238 1    
   232  116  239 1    
   233  117  118 2    
   234  117  119 am   BACKBONE|DICT|INTERRES
   235  119  120 1    
   236  119  240 1    
   237  120  121 1    
   238  120  124 1    
   239  120  241 1    
   240  121  122 am   BACKBONE|DICT|INTERRES
   241  121  123 2    
   242  122  242 1    
   243  122  243 1    
   244  124  125 1    
   245  124  244 1    
   246  124  245 1    
   247  125  126 1    
   248  126  246 1    
   249  126  247 1    
@<TRIPOS>SUBSTRUCTURE
     1 UNK         1 GROUP             0       ****    0 ROOT    
