@<TRIPOS>MOLECULE
3R540
247   249    1
SMALL
USER_CHARGES


@<TRIPOS>ATOM
      1 CA          6.5652   -9.8645  -49.0357 C.3       0 UNK        -0.1800 
      2 C           6.0510  -11.2648  -48.7327 C.2       0 UNK         0.5000 
      3 O           6.8211  -12.1190  -48.2925 O.2       0 UNK        -0.5000 
      4 N           4.7558  -11.5059  -48.9704 N.am      1 UNK        -0.5000 
      5 CA          4.0711  -12.7669  -48.6852 C.3       1 UNK         0.1400 
      6 C6          2.7922  -12.9179  -49.5449 C.3       23 UNK        -0.0398 
      7 S7          1.9819  -14.5466  -49.3719 S.3       23 UNK        -0.2404 
      8 C8          0.6198  -14.3390  -50.5676 C.3       23 UNK        -0.0205 
      9 C9         -0.5920  -15.2582  -50.3927 C.ar      23 UNK        -0.0193 
     10 C10        -1.6094  -15.1632  -51.3450 C.ar      23 UNK        -0.1150 
     11 C11        -2.7618  -15.9460  -51.2531 C.ar      23 UNK        -0.0193 
     12 C12        -2.9030  -16.8304  -50.1801 C.ar      23 UNK        -0.1150 
     13 C13        -1.8995  -16.9443  -49.2138 C.ar      23 UNK        -0.0193 
     14 C14        -0.7491  -16.1547  -49.3243 C.ar      23 UNK        -0.1150 
     15 C15        -2.0740  -17.9111  -48.0479 C.3       23 UNK        -0.0205 
     16 S16        -1.2747  -19.5114  -48.3872 S.3       23 UNK        -0.2404 
     17 C17        -2.2628  -20.6570  -47.3629 C.3       23 UNK        -0.0398 
     18 CA         -1.4791  -21.9533  -47.0386 C.3       11 UNK         0.1400 
     19 N          -0.4102  -21.7393  -46.0584 N.am      11 UNK        -0.5000 
     20 C           0.6311  -22.5668  -45.8914 C.2       10 UNK         0.5000 
     21 O           0.8220  -23.5699  -46.5789 O.2       10 UNK        -0.5000 
     22 CA          1.5931  -22.2445  -44.7328 C.3       10 UNK         0.1400 
     23 CB          2.5894  -21.1512  -45.1447 C.3       10 UNK        -0.1800 
     24 N           0.8883  -21.8323  -43.5169 N.am      10 UNK        -0.5000 
     25 C           0.1003  -22.6430  -42.7930 C.2       9 UNK         0.5000 
     26 O          -0.0703  -23.8302  -43.0594 O.2       9 UNK        -0.5000 
     27 CA         -0.6626  -22.0368  -41.5974 C.3       9 UNK         0.1400 
     28 CB          0.1401  -22.2276  -40.3024 C.3       9 UNK        -0.1800 
     29 N          -0.9809  -20.6202  -41.7537 N.am      9 UNK        -0.5000 
     30 C          -1.6533  -20.0655  -42.7718 C.2       8 UNK         0.5000 
     31 O          -2.1977  -20.7128  -43.6684 O.2       8 UNK        -0.5000 
     32 CA         -1.6477  -18.5249  -42.8338 C.3       8 UNK         0.1400 
     33 CB         -2.9759  -17.9579  -42.3137 C.3       8 UNK        -0.1800 
     34 N          -0.5382  -17.8928  -42.1050 N.am      8 UNK        -0.5000 
     35 C           0.7681  -18.1010  -42.3207 C.2       7 UNK         0.5000 
     36 O           1.1921  -18.9132  -43.1450 O.2       7 UNK        -0.5000 
     37 CA          1.7570  -17.2845  -41.4622 C.3       7 UNK         0.1400 
     38 CB          3.2251  -17.4957  -41.8780 C.3       7 UNK        -0.1800 
     39 N           1.4676  -15.8468  -41.4505 N.am      7 UNK        -0.5000 
     40 C           0.5466  -15.2624  -40.6729 C.2       6 UNK         0.5000 
     41 O          -0.2653  -15.8991  -39.9996 O.2       6 UNK        -0.5000 
     42 CA          0.5334  -13.7291  -40.5992 C.3       6 UNK         0.1400 
     43 CB          1.5411  -13.2460  -39.5377 C.3       6 UNK        -0.1800 
     44 N           0.7948  -13.0766  -41.8842 N.am      6 UNK        -0.5000 
     45 C           0.4551  -11.8057  -42.1447 C.2       5 UNK         0.5000 
     46 O          -0.1317  -11.0762  -41.3434 O.2       5 UNK        -0.5000 
     47 CA          0.8261  -11.2413  -43.5275 C.3       5 UNK         0.1400 
     48 CB          2.2996  -10.8097  -43.5549 C.3       5 UNK        -0.1800 
     49 N           0.5633  -12.1683  -44.6270 N.am      5 UNK        -0.5000 
     50 C          -0.6578  -12.5777  -45.0018 C.2       4 UNK         0.5000 
     51 O          -1.6997  -12.2415  -44.4381 O.2       4 UNK        -0.5000 
     52 CA         -0.7280  -13.5106  -46.2208 C.3       4 UNK         0.1400 
     53 CB         -0.7567  -12.6907  -47.5183 C.3       4 UNK        -0.1800 
     54 N           0.3979  -14.4440  -46.2428 N.am      4 UNK        -0.5000 
     55 C           0.4219  -15.5871  -45.5449 C.2       3 UNK         0.5000 
     56 O          -0.5422  -16.0165  -44.9139 O.2       3 UNK        -0.5000 
     57 CA          1.7477  -16.3695  -45.5122 C.3       3 UNK         0.1400 
     58 CB          1.8018  -17.4491  -46.6022 C.3       3 UNK        -0.1800 
     59 N           2.9341  -15.5230  -45.6016 N.am      3 UNK        -0.5000 
     60 C           3.3288  -14.6481  -44.6651 C.2       2 UNK         0.5000 
     61 O           2.7409  -14.4698  -43.5968 O.2       2 UNK        -0.5000 
     62 CA          4.5695  -13.8001  -45.0047 C.3       2 UNK         0.1400 
     63 CB          5.8439  -14.4964  -44.5066 C.3       2 UNK        -0.1800 
     64 N           4.6974  -13.5173  -46.4372 N.am      2 UNK        -0.5000 
     65 C           3.7864  -12.8659  -47.1727 C.2       1 UNK         0.5000 
     66 O           2.7545  -12.3785  -46.7038 O.2       1 UNK        -0.5000 
     67 C          -2.4157  -23.0983  -46.5985 C.2       11 UNK         0.5000 
     68 O          -2.8747  -23.8594  -47.4517 O.2       11 UNK        -0.5000 
     69 N          -2.6453  -23.2435  -45.2844 N.am      12 UNK        -0.5000 
     70 CA         -3.4035  -24.3556  -44.7037 C.3       12 UNK         0.1400 
     71 CB         -3.6842  -24.0831  -43.2196 C.3       12 UNK        -0.1800 
     72 C          -2.6959  -25.7127  -44.8886 C.2       12 UNK         0.5000 
     73 O          -3.3493  -26.6901  -45.2519 O.2       12 UNK        -0.5000 
     74 N          -1.3688  -25.7423  -44.6943 N.am      13 UNK        -0.5000 
     75 CA         -0.5059  -26.9053  -44.9303 C.3       13 UNK         0.1400 
     76 CB          0.9042  -26.6158  -44.3950 C.3       13 UNK        -0.1800 
     77 C          -0.4441  -27.3256  -46.4116 C.2       13 UNK         0.5000 
     78 O          -0.2725  -28.5099  -46.7008 O.2       13 UNK        -0.5000 
     79 N          -0.6392  -26.3595  -47.3188 N.am      14 UNK        -0.5000 
     80 CA         -0.8061  -26.5669  -48.7580 C.3       14 UNK         0.1400 
     81 CB         -0.3917  -25.2819  -49.4967 C.3       14 UNK        -0.1800 
     82 C          -2.2401  -26.9943  -49.1450 C.2       14 UNK         0.5000 
     83 O          -2.5502  -27.0306  -50.3353 O.2       14 UNK        -0.5000 
     84 N          -3.1048  -27.2742  -48.1559 N.am      15 UNK        -0.5000 
     85 CA         -4.5084  -27.6849  -48.2844 C.3       15 UNK         0.1400 
     86 CB         -4.6097  -29.0805  -48.9348 C.3       15 UNK        -0.1800 
     87 C          -5.3827  -26.6279  -48.9900 C.2       15 UNK         0.5000 
     88 O          -6.3404  -26.9800  -49.6802 O.2       15 UNK        -0.5000 
     89 N          -5.0086  -25.3501  -48.8234 N.am      16 UNK        -0.5000 
     90 CA         -5.5713  -24.1563  -49.4571 C.3       16 UNK         0.1400 
     91 CB         -7.0561  -23.9640  -49.0881 C.3       16 UNK        -0.1800 
     92 C          -5.3291  -24.0690  -50.9782 C.2       16 UNK         0.5000 
     93 O          -5.8520  -23.1482  -51.6049 O.2       16 UNK        -0.5000 
     94 N          -4.5074  -24.9601  -51.5579 N.am      17 UNK        -0.5000 
     95 CA         -4.1561  -24.9405  -52.9826 C.3       17 UNK         0.1400 
     96 CB         -3.3974  -26.2217  -53.3556 C.3       17 UNK        -0.1800 
     97 C          -3.3366  -23.6947  -53.3639 C.2       17 UNK         0.5000 
     98 O          -3.5299  -23.1415  -54.4460 O.2       17 UNK        -0.5000 
     99 N          -2.4840  -23.2426  -52.4333 N.am      18 UNK        -0.5000 
    100 CA        -1.7148  -22.0022  -52.5308 C.3       18 UNK         0.1400 
    101 CB        -0.7172  -21.9422  -51.3641 C.3       18 UNK        -0.1800 
    102 C         -2.6034  -20.7432  -52.5462 C.2       18 UNK         0.5000 
    103 O         -2.2469  -19.7647  -53.1998 O.2       18 UNK        -0.5000 
    104 N         -3.7469  -20.8023  -51.8486 N.am      19 UNK        -0.5000 
    105 CA        -4.7481  -19.7396  -51.8214 C.3       19 UNK         0.1400 
    106 CB        -5.5411  -19.8095  -50.5074 C.3       19 UNK        -0.1800 
    107 C         -5.6792  -19.8004  -53.0424 C.2       19 UNK         0.5000 
    108 O         -6.0135  -18.7549  -53.5964 O.2       19 UNK        -0.5000 
    109 N         -6.0547  -21.0144  -53.4707 N.am      20 UNK        -0.5000 
    110 CA        -6.8564  -21.2654  -54.6722 C.3       20 UNK         0.1400 
    111 CB        -7.2013  -22.7591  -54.7574 C.3       20 UNK        -0.1800 
    112 C         -6.1596  -20.7933  -55.9626 C.2       20 UNK         0.5000 
    113 O         -6.8238  -20.2704  -56.8593 O.2       20 UNK        -0.5000 
    114 N         -4.8255  -20.9238  -56.0026 N.am      21 UNK        -0.5000 
    115 CA        -3.9491  -20.4281  -57.0666 C.3       21 UNK         0.1400 
    116 CB        -2.5120  -20.8945  -56.7879 C.3       21 UNK        -0.1800 
    117 C         -3.9914  -18.8978  -57.2693 C.2       21 UNK         0.5000 
    118 O         -3.6181  -18.4298  -58.3461 O.2       21 UNK        -0.5000 
    119 N         -4.4587  -18.1479  -56.2612 N.am      22 UNK        -0.5000 
    120 CA        -4.7165  -16.7014  -56.3470 C.3       22 UNK         0.1400 
    121 C         -5.9926  -16.3338  -57.1632 C.2       22 UNK         0.5000 
    122 N         -6.8586  -17.2756  -57.5240 N.am      22 UNK        -0.7600 
    123 O         -6.1980  -15.1662  -57.4839 O.2       22 UNK        -0.5000 
    124 C124       -4.7534  -16.0225  -54.9524 C.3       23 UNK        -0.0398 
    125 S125       -3.2750  -16.3666  -53.9411 S.3       23 UNK        -0.2404 
    126 C126       -3.8526  -15.8113  -52.3064 C.3       23 UNK        -0.0205 
    127 H127        7.3646   -9.9103  -49.7753 H         1 UNK         0.0600 
    128 H128        6.9632   -9.4072  -48.1298 H         1 UNK         0.0600 
    129 H129        5.7781   -9.2185  -49.4253 H         1 UNK         0.0600 
    130 H130        4.1692  -10.7545  -49.3053 H         1 UNK         0.3000 
    131 H131        4.7382  -13.5870  -48.9608 H         1 UNK         0.0600 
    132 H132        3.0452  -12.7845  -50.5978 H         1 UNK         0.0800 
    133 H133        2.0716  -12.1340  -49.3055 H         1 UNK         0.0800 
    134 H134        1.0270  -14.4764  -51.5704 H         1 UNK         0.0800 
    135 H135        0.2643  -13.3088  -50.5192 H         1 UNK         0.0800 
    136 H136       -1.5057  -14.4725  -52.1706 H         1 UNK         0.1150 
    137 H137       -3.7977  -17.4274  -50.0878 H         1 UNK         0.1150 
    138 H138        0.0110  -16.2410  -48.5661 H         1 UNK         0.1150 
    139 H139       -1.6554  -17.4828  -47.1360 H         1 UNK         0.0800 
    140 H140       -3.1366  -18.0658  -47.8546 H         1 UNK         0.0800 
    141 H141       -3.1721  -20.8822  -47.9236 H         1 UNK         0.0800 
    142 H142       -2.5800  -20.1581  -46.4455 H         1 UNK         0.0800 
    143 H143       -1.0121  -22.2923  -47.9659 H         1 UNK         0.0600 
    144 H144       -0.5222  -20.9602  -45.4258 H         1 UNK         0.3000 
    145 H145        2.1579  -23.1511  -44.5054 H         1 UNK         0.0600 
    146 H146        3.3034  -20.9458  -44.3470 H         1 UNK         0.0600 
    147 H147        3.1590  -21.4520  -46.0249 H         1 UNK         0.0600 
    148 H148        2.0809  -20.2177  -45.3855 H         1 UNK         0.0600 
    149 H149        0.9710  -20.8533  -43.2565 H         1 UNK         0.3000 
    150 H150       -1.6069  -22.5715  -41.4943 H         1 UNK         0.0600 
    151 H151        0.3724  -23.2809  -40.1387 H         1 UNK         0.0600 
    152 H152       -0.4214  -21.8819  -39.4343 H         1 UNK         0.0600 
    153 H153        1.0851  -21.6834  -40.3313 H         1 UNK         0.0600 
    154 H154       -0.5720  -19.9943  -41.0763 H         1 UNK         0.3000 
    155 H155       -1.5475  -18.2532  -43.8859 H         1 UNK         0.0600 
    156 H156       -3.1140  -18.1674  -41.2523 H         1 UNK         0.0600 
    157 H157       -3.8229  -18.3899  -42.8486 H         1 UNK         0.0600 
    158 H158       -3.0223  -16.8775  -42.4526 H         1 UNK         0.0600 
    159 H159       -0.7855  -17.2124  -41.3938 H         1 UNK         0.3000 
    160 H160        1.6608  -17.6634  -40.4425 H         1 UNK         0.0600 
    161 H161        3.4150  -17.1596  -42.8965 H         1 UNK         0.0600 
    162 H162        3.4999  -18.5500  -41.8255 H         1 UNK         0.0600 
    163 H163        3.9024  -16.9540  -41.2176 H         1 UNK         0.0600 
    164 H164        2.0631  -15.2733  -42.0407 H         1 UNK         0.3000 
    165 H165       -0.4702  -13.4490  -40.2711 H         1 UNK         0.0600 
    166 H166        1.4438  -12.1772  -39.3483 H         1 UNK         0.0600 
    167 H167        1.3831  -13.7547  -38.5856 H         1 UNK         0.0600 
    168 H168        2.5691  -13.4384  -39.8469 H         1 UNK         0.0600 
    169 H169        1.2855  -13.6126  -42.5935 H         1 UNK         0.3000 
    170 H170        0.2151  -10.3526  -43.6990 H         1 UNK         0.0600 
    171 H171        2.4824  -10.0132  -42.8328 H         1 UNK         0.0600 
    172 H172        2.9625  -11.6351  -43.2995 H         1 UNK         0.0600 
    173 H173        2.5882  -10.4329  -44.5365 H         1 UNK         0.0600 
    174 H174        1.3605  -12.4445  -45.1888 H         1 UNK         0.3000 
    175 H175       -1.6643  -14.0701  -46.1618 H         1 UNK         0.0600 
    176 H176        0.1839  -12.1674  -47.6903 H         1 UNK         0.0600 
    177 H177       -0.9533  -13.3295  -48.3764 H         1 UNK         0.0600 
    178 H178       -1.5491  -11.9418  -47.4910 H         1 UNK         0.0600 
    179 H179        1.2329  -14.1395  -46.7243 H         1 UNK         0.3000 
    180 H180        1.7912  -16.8720  -44.5516 H         1 UNK         0.0600 
    181 H181        2.6592  -18.1056  -46.4555 H         1 UNK         0.0600 
    182 H182        1.8858  -17.0187  -47.5989 H         1 UNK         0.0600 
    183 H183        0.9083  -18.0744  -46.5810 H         1 UNK         0.0600 
    184 H184        3.4797  -15.5959  -46.4474 H         1 UNK         0.3000 
    185 H185        4.4785  -12.8459  -44.4856 H         1 UNK         0.0600 
    186 H186        6.7234  -13.8732  -44.6701 H         1 UNK         0.0600 
    187 H187        5.7848  -14.6992  -43.4363 H         1 UNK         0.0600 
    188 H188        6.0076  -15.4487  -45.0127 H         1 UNK         0.0600 
    189 H189        5.5460  -13.8321  -46.8876 H         1 UNK         0.3000 
    190 H190       -2.2792  -22.5475  -44.6443 H         1 UNK         0.3000 
    191 H191       -4.3632  -24.4057  -45.2228 H         1 UNK         0.0600 
    192 H192       -4.3923  -24.8111  -42.8221 H         1 UNK         0.0600 
    193 H193       -4.1141  -23.0926  -43.0688 H         1 UNK         0.0600 
    194 H194       -2.7785  -24.1557  -42.6199 H         1 UNK         0.0600 
    195 H195       -0.9101  -24.9163  -44.3173 H         1 UNK         0.3000 
    196 H196       -0.9179  -27.7458  -44.3682 H         1 UNK         0.0600 
    197 H197        1.3510  -25.7513  -44.8871 H         1 UNK         0.0600 
    198 H198        0.8855  -26.4185  -43.3231 H         1 UNK         0.0600 
    199 H199        1.5678  -27.4663  -44.5562 H         1 UNK         0.0600 
    200 H200       -0.7403  -25.4090  -46.9886 H         1 UNK         0.3000 
    201 H201       -0.1363  -27.3677  -49.0773 H         1 UNK         0.0600 
    202 H202       -1.0675  -24.4553  -49.2813 H         1 UNK         0.0600 
    203 H203       -0.3928  -25.4316  -50.5770 H         1 UNK         0.0600 
    204 H204        0.6149  -24.9714  -49.2155 H         1 UNK         0.0600 
    205 H205       -2.7877  -27.1630  -47.2000 H         1 UNK         0.3000 
    206 H206       -4.8973  -27.7670  -47.2689 H         1 UNK         0.0600 
    207 H207       -3.9826  -29.8039  -48.4138 H         1 UNK         0.0600 
    208 H208       -5.6330  -29.4557  -48.8994 H         1 UNK         0.0600 
    209 H209       -4.3043  -29.0637  -49.9815 H         1 UNK         0.0600 
    210 H210       -4.1916  -25.1654  -48.2486 H         1 UNK         0.3000 
    211 H211       -5.0254  -23.3147  -49.0293 H         1 UNK         0.0600 
    212 H212       -7.4164  -22.9881  -49.4159 H         1 UNK         0.0600 
    213 H213       -7.2047  -24.0170  -48.0096 H         1 UNK         0.0600 
    214 H214       -7.6933  -24.7159  -49.5539 H         1 UNK         0.0600 
    215 H215       -4.0841  -25.6898  -50.9956 H         1 UNK         0.3000 
    216 H216       -5.0854  -24.9214  -53.5544 H         1 UNK         0.0600 
    217 H217       -2.4222  -26.2700  -52.8700 H         1 UNK         0.0600 
    218 H218       -3.2276  -26.2719  -54.4318 H         1 UNK         0.0600 
    219 H219       -3.9589  -27.1119  -53.0716 H         1 UNK         0.0600 
    220 H220       -2.3920  -23.7706  -51.5787 H         1 UNK         0.3000 
    221 H221       -1.1530  -22.0239  -53.4670 H         1 UNK         0.0600 
    222 H222       -0.0199  -22.7795  -51.3956 H         1 UNK         0.0600 
    223 H223       -1.2263  -21.9640  -50.4004 H         1 UNK         0.0600 
    224 H224       -0.1265  -21.0258  -51.4006 H         1 UNK         0.0600 
    225 H225       -3.9899  -21.6655  -51.3871 H         1 UNK         0.3000 
    226 H226       -4.2340  -18.7791  -51.8574 H         1 UNK         0.0600 
    227 H227       -6.0958  -20.7434  -50.4151 H         1 UNK         0.0600 
    228 H228       -4.8806  -19.7248  -49.6442 H         1 UNK         0.0600 
    229 H229       -6.2621  -18.9934  -50.4465 H         1 UNK         0.0600 
    230 H230       -5.8073  -21.8269  -52.9117 H         1 UNK         0.3000 
    231 H231       -7.7875  -20.7041  -54.5718 H         1 UNK         0.0600 
    232 H232       -6.3085  -23.3694  -54.8911 H         1 UNK         0.0600 
    233 H233       -7.8628  -22.9579  -55.6013 H         1 UNK         0.0600 
    234 H234       -7.7106  -23.1005  -53.8558 H         1 UNK         0.0600 
    235 H235       -4.3716  -21.4231  -55.2451 H         1 UNK         0.3000 
    236 H236       -4.2802  -20.8848  -58.0012 H         1 UNK         0.0600 
    237 H237       -2.4512  -21.9819  -56.7420 H         1 UNK         0.0600 
    238 H238       -1.8325  -20.5655  -57.5752 H         1 UNK         0.0600 
    239 H239       -2.1381  -20.4970  -55.8441 H         1 UNK         0.0600 
    240 H240       -4.7551  -18.5961  -55.4035 H         1 UNK         0.3000 
    241 H241       -3.8806  -16.2580  -56.8913 H         1 UNK         0.0600 
    242 H242       -7.6748  -17.0172  -58.0555 H         1 UNK         0.3800 
    243 H243       -6.7171  -18.2465  -57.2686 H         1 UNK         0.3800 
    244 H244       -5.6409  -16.3358  -54.4015 H         1 UNK         0.0800 
    245 H245       -4.8334  -14.9396  -55.0619 H         1 UNK         0.0800 
    246 H246       -4.7380  -16.3827  -52.0236 H         1 UNK         0.0800 
    247 H247       -4.1627  -14.7672  -52.3678 H         1 UNK         0.0800 
@<TRIPOS>BOND
     1    1    2 1    
     2    1  127 1    
     3    1  128 1    
     4    1  129 1    
     5    2    3 2    
     6    2    4 am   BACKBONE|DICT|INTERRES
     7    4    5 1    
     8    4  130 1    
     9    5    6 1    
    10    5   65 1    
    11    5  131 1    
    12    6    7 1    
    13    6  132 1    
    14    6  133 1    
    15    7    8 1    
    16    8    9 1    
    17    8  134 1    
    18    8  135 1    
    19    9   10 ar   
    20    9   14 ar   
    21   10   11 ar   
    22   10  136 1    
    23   11   12 ar   
    24   11  126 1    
    25   12   13 ar   
    26   12  137 1    
    27   13   14 ar   
    28   13   15 1    
    29   14  138 1    
    30   15   16 1    
    31   15  139 1    
    32   15  140 1    
    33   16   17 1    
    34   17   18 1    
    35   17  141 1    
    36   17  142 1    
    37   18   19 1    
    38   18   67 1    
    39   18  143 1    
    40   19   20 am   BACKBONE|DICT|INTERRES
    41   19  144 1    
    42   20   21 2    
    43   20   22 1    
    44   22   23 1    
    45   22   24 1    
    46   22  145 1    
    47   23  146 1    
    48   23  147 1    
    49   23  148 1    
    50   24   25 am   BACKBONE|DICT|INTERRES
    51   24  149 1    
    52   25   26 2    
    53   25   27 1    
    54   27   28 1    
    55   27   29 1    
    56   27  150 1    
    57   28  151 1    
    58   28  152 1    
    59   28  153 1    
    60   29   30 am   BACKBONE|DICT|INTERRES
    61   29  154 1    
    62   30   31 2    
    63   30   32 1    
    64   32   33 1    
    65   32   34 1    
    66   32  155 1    
    67   33  156 1    
    68   33  157 1    
    69   33  158 1    
    70   34   35 am   BACKBONE|DICT|INTERRES
    71   34  159 1    
    72   35   36 2    
    73   35   37 1    
    74   37   38 1    
    75   37   39 1    
    76   37  160 1    
    77   38  161 1    
    78   38  162 1    
    79   38  163 1    
    80   39   40 am   BACKBONE|DICT|INTERRES
    81   39  164 1    
    82   40   41 2    
    83   40   42 1    
    84   42   43 1    
    85   42   44 1    
    86   42  165 1    
    87   43  166 1    
    88   43  167 1    
    89   43  168 1    
    90   44   45 am   BACKBONE|DICT|INTERRES
    91   44  169 1    
    92   45   46 2    
    93   45   47 1    
    94   47   48 1    
    95   47   49 1    
    96   47  170 1    
    97   48  171 1    
    98   48  172 1    
    99   48  173 1    
   100   49   50 am   BACKBONE|DICT|INTERRES
   101   49  174 1    
   102   50   51 2    
   103   50   52 1    
   104   52   53 1    
   105   52   54 1    
   106   52  175 1    
   107   53  176 1    
   108   53  177 1    
   109   53  178 1    
   110   54   55 am   BACKBONE|DICT|INTERRES
   111   54  179 1    
   112   55   56 2    
   113   55   57 1    
   114   57   58 1    
   115   57   59 1    
   116   57  180 1    
   117   58  181 1    
   118   58  182 1    
   119   58  183 1    
   120   59   60 am   BACKBONE|DICT|INTERRES
   121   59  184 1    
   122   60   61 2    
   123   60   62 1    
   124   62   63 1    
   125   62   64 1    
   126   62  185 1    
   127   63  186 1    
   128   63  187 1    
   129   63  188 1    
   130   64   65 am   BACKBONE|DICT|INTERRES
   131   64  189 1    
   132   65   66 2    
   133   67   68 2    
   134   67   69 am   BACKBONE|DICT|INTERRES
   135   69   70 1    
   136   69  190 1    
   137   70   71 1    
   138   70   72 1    
   139   70  191 1    
   140   71  192 1    
   141   71  193 1    
   142   71  194 1    
   143   72   73 2    
   144   72   74 am   BACKBONE|DICT|INTERRES
   145   74   75 1    
   146   74  195 1    
   147   75   76 1    
   148   75   77 1    
   149   75  196 1    
   150   76  197 1    
   151   76  198 1    
   152   76  199 1    
   153   77   78 2    
   154   77   79 am   BACKBONE|DICT|INTERRES
   155   79   80 1    
   156   79  200 1    
   157   80   81 1    
   158   80   82 1    
   159   80  201 1    
   160   81  202 1    
   161   81  203 1    
   162   81  204 1    
   163   82   83 2    
   164   82   84 am   BACKBONE|DICT|INTERRES
   165   84   85 1    
   166   84  205 1    
   167   85   86 1    
   168   85   87 1    
   169   85  206 1    
   170   86  207 1    
   171   86  208 1    
   172   86  209 1    
   173   87   88 2    
   174   87   89 am   BACKBONE|DICT|INTERRES
   175   89   90 1    
   176   89  210 1    
   177   90   91 1    
   178   90   92 1    
   179   90  211 1    
   180   91  212 1    
   181   91  213 1    
   182   91  214 1    
   183   92   93 2    
   184   92   94 am   BACKBONE|DICT|INTERRES
   185   94   95 1    
   186   94  215 1    
   187   95   96 1    
   188   95   97 1    
   189   95  216 1    
   190   96  217 1    
   191   96  218 1    
   192   96  219 1    
   193   97   98 2    
   194   97   99 am   BACKBONE|DICT|INTERRES
   195   99  100 1    
   196   99  220 1    
   197  100  101 1    
   198  100  102 1    
   199  100  221 1    
   200  101  222 1    
   201  101  223 1    
   202  101  224 1    
   203  102  103 2    
   204  102  104 am   BACKBONE|DICT|INTERRES
   205  104  105 1    
   206  104  225 1    
   207  105  106 1    
   208  105  107 1    
   209  105  226 1    
   210  106  227 1    
   211  106  228 1    
   212  106  229 1    
   213  107  108 2    
   214  107  109 am   BACKBONE|DICT|INTERRES
   215  109  110 1    
   216  109  230 1    
   217  110  111 1    
   218  110  112 1    
   219  110  231 1    
   220  111  232 1    
   221  111  233 1    
   222  111  234 1    
   223  112  113 2    
   224  112  114 am   BACKBONE|DICT|INTERRES
   225  114  115 1    
   226  114  235 1    
   227  115  116 1    
   228  115  117 1    
   229  115  236 1    
   230  116  237 1    
   231  116  238 1    
   232  116  239 1    
   233  117  118 2    
   234  117  119 am   BACKBONE|DICT|INTERRES
   235  119  120 1    
   236  119  240 1    
   237  120  121 1    
   238  120  124 1    
   239  120  241 1    
   240  121  122 am   BACKBONE|DICT|INTERRES
   241  121  123 2    
   242  122  242 1    
   243  122  243 1    
   244  124  125 1    
   245  124  244 1    
   246  124  245 1    
   247  125  126 1    
   248  126  246 1    
   249  126  247 1    
@<TRIPOS>SUBSTRUCTURE
     1 UNK         1 GROUP             0       ****    0 ROOT    
