@<TRIPOS>MOLECULE
3R540
247   249    1
SMALL
USER_CHARGES


@<TRIPOS>ATOM
      1 CA         -5.2496  -20.4676  -44.7766 C.3       0 UNK        -0.1800 
      2 C          -4.3688  -19.3368  -45.2851 C.2       0 UNK         0.5000 
      3 O          -4.5455  -18.1946  -44.8640 O.2       0 UNK        -0.5000 
      4 N          -3.4042  -19.6410  -46.1639 N.am      1 UNK        -0.5000 
      5 CA         -2.4489  -18.6698  -46.7209 C.3       1 UNK         0.1400 
      6 C6         -1.5957  -19.2661  -47.8686 C.3       23 UNK        -0.0398 
      7 S7         -2.4270  -19.0628  -49.4767 S.3       23 UNK        -0.2404 
      8 C8         -1.7063  -20.4134  -50.4555 C.3       23 UNK        -0.0205 
      9 C9         -0.1915  -20.3203  -50.5620 C.ar      23 UNK        -0.0193 
     10 C10         0.4088  -19.3051  -51.3090 C.ar      23 UNK        -0.1150 
     11 C11         1.7984  -19.2487  -51.4532 C.ar      23 UNK        -0.0193 
     12 C12         2.5935  -20.1814  -50.7765 C.ar      23 UNK        -0.1150 
     13 C13         2.0062  -21.1806  -49.9945 C.ar      23 UNK        -0.0193 
     14 C14         0.6143  -21.2630  -49.9247 C.ar      23 UNK        -0.1150 
     15 C15         2.8646  -22.1772  -49.2267 C.3       23 UNK        -0.0205 
     16 S16         3.4057  -21.5308  -47.6073 S.3       23 UNK        -0.2404 
     17 C17         1.8365  -21.4079  -46.6760 C.3       23 UNK        -0.0398 
     18 CA          1.6339  -22.5849  -45.6942 C.3       11 UNK         0.1400 
     19 N           2.6572  -22.5899  -44.6468 N.am      11 UNK        -0.5000 
     20 C           3.1660  -23.6823  -44.0627 C.2       10 UNK         0.5000 
     21 O           2.7873  -24.8257  -44.3172 O.2       10 UNK        -0.5000 
     22 CA          4.2725  -23.4678  -43.0081 C.3       10 UNK         0.1400 
     23 CB          5.6544  -23.7311  -43.6255 C.3       10 UNK        -0.1800 
     24 N           4.2709  -22.1285  -42.4144 N.am      10 UNK        -0.5000 
     25 C           3.2995  -21.6354  -41.6341 C.2       9 UNK         0.5000 
     26 O           2.3134  -22.2844  -41.2863 O.2       9 UNK        -0.5000 
     27 CA          3.4290  -20.1597  -41.2039 C.3       9 UNK         0.1400 
     28 CB          4.1006  -20.0639  -39.8259 C.3       9 UNK        -0.1800 
     29 N           4.1516  -19.2976  -42.1489 N.am      9 UNK        -0.5000 
     30 C           3.8466  -19.1152  -43.4420 C.2       8 UNK         0.5000 
     31 O           2.9379  -19.7156  -44.0171 O.2       8 UNK        -0.5000 
     32 CA          4.7592  -18.1464  -44.2202 C.3       8 UNK         0.1400 
     33 CB          6.1471  -18.7765  -44.4280 C.3       8 UNK        -0.1800 
     34 N           4.2318  -17.7706  -45.5335 N.am      8 UNK        -0.5000 
     35 C           3.1467  -17.0208  -45.7628 C.2       7 UNK         0.5000 
     36 O           2.4460  -16.5287  -44.8740 O.2       7 UNK        -0.5000 
     37 CA          2.8212  -16.7470  -47.2417 C.3       7 UNK         0.1400 
     38 CB          2.6766  -18.0362  -48.0663 C.3       7 UNK        -0.1800 
     39 N           1.5936  -15.9702  -47.3443 N.am      7 UNK        -0.5000 
     40 C           1.2347  -15.2082  -48.3845 C.2       6 UNK         0.5000 
     41 O           1.9204  -15.0626  -49.3971 O.2       6 UNK        -0.5000 
     42 CA         -0.1180  -14.4822  -48.2789 C.3       6 UNK         0.1400 
     43 CB         -1.2078  -15.2702  -49.0233 C.3       6 UNK        -0.1800 
     44 N          -0.5303  -14.3061  -46.8890 N.am      6 UNK        -0.5000 
     45 C          -0.0991  -13.3366  -46.0726 C.2       5 UNK         0.5000 
     46 O           0.6480  -12.4247  -46.4319 O.2       5 UNK        -0.5000 
     47 CA         -0.5818  -13.4212  -44.6090 C.3       5 UNK         0.1400 
     48 CB         -0.5012  -12.0745  -43.8608 C.3       5 UNK        -0.1800 
     49 N          -1.9172  -14.0155  -44.4886 N.am      5 UNK        -0.5000 
     50 C          -3.0750  -13.5421  -44.9763 C.2       4 UNK         0.5000 
     51 O          -3.1867  -12.4632  -45.5593 O.2       4 UNK        -0.5000 
     52 CA         -4.3226  -14.4347  -44.8102 C.3       4 UNK         0.1400 
     53 CB         -4.7296  -15.0357  -46.1646 C.3       4 UNK        -0.1800 
     54 N          -4.1347  -15.5280  -43.8554 N.am      4 UNK        -0.5000 
     55 C          -4.0564  -15.3872  -42.5257 C.2       3 UNK         0.5000 
     56 O          -4.2167  -14.3177  -41.9372 O.2       3 UNK        -0.5000 
     57 CA         -3.6904  -16.6508  -41.7284 C.3       3 UNK         0.1400 
     58 CB         -4.9445  -17.4775  -41.4055 C.3       3 UNK        -0.1800 
     59 N          -2.7205  -17.4923  -42.4340 N.am      3 UNK        -0.5000 
     60 C          -1.4262  -17.1870  -42.6083 C.2       2 UNK         0.5000 
     61 O          -0.9077  -16.1479  -42.2019 O.2       2 UNK        -0.5000 
     62 CA         -0.5757  -18.2130  -43.3802 C.3       2 UNK         0.1400 
     63 CB         -0.1894  -19.3686  -42.4503 C.3       2 UNK        -0.1800 
     64 N          -1.2682  -18.7422  -44.5561 N.am      2 UNK        -0.5000 
     65 C          -1.5569  -18.0148  -45.6440 C.2       1 UNK         0.5000 
     66 O          -1.1872  -16.8502  -45.7997 O.2       1 UNK        -0.5000 
     67 C           0.1980  -22.5958  -45.1224 C.2       11 UNK         0.5000 
     68 O          -0.7510  -22.4908  -45.8983 O.2       11 UNK        -0.5000 
     69 N           0.0365  -22.7442  -43.7976 N.am      12 UNK        -0.5000 
     70 CA         -1.2553  -22.8029  -43.1006 C.3       12 UNK         0.1400 
     71 CB         -1.0032  -22.8859  -41.5871 C.3       12 UNK        -0.1800 
     72 C          -2.1717  -23.9617  -43.5433 C.2       12 UNK         0.5000 
     73 O          -3.3901  -23.8582  -43.4015 O.2       12 UNK        -0.5000 
     74 N          -1.5730  -25.0366  -44.0730 N.am      13 UNK        -0.5000 
     75 CA         -2.2706  -26.2028  -44.6134 C.3       13 UNK         0.1400 
     76 CB         -1.2631  -27.3549  -44.7518 C.3       13 UNK        -0.1800 
     77 C          -2.9725  -25.9377  -45.9617 C.2       13 UNK         0.5000 
     78 O          -3.8674  -26.7020  -46.3258 O.2       13 UNK        -0.5000 
     79 N          -2.5594  -24.8870  -46.6828 N.am      14 UNK        -0.5000 
     80 CA         -3.1320  -24.4829  -47.9627 C.3       14 UNK         0.1400 
     81 CB         -1.9943  -24.0569  -48.8974 C.3       14 UNK        -0.1800 
     82 C          -4.1072  -23.3204  -47.7348 C.2       14 UNK         0.5000 
     83 O          -3.7590  -22.3608  -47.0439 O.2       14 UNK        -0.5000 
     84 N          -5.3062  -23.4271  -48.3192 N.am      15 UNK        -0.5000 
     85 CA         -6.3788  -22.4391  -48.2111 C.3       15 UNK         0.1400 
     86 CB         -7.6526  -23.0184  -48.8461 C.3       15 UNK        -0.1800 
     87 C          -6.0216  -21.0979  -48.8753 C.2       15 UNK         0.5000 
     88 O          -5.3398  -21.0818  -49.9018 O.2       15 UNK        -0.5000 
     89 N          -6.5554  -20.0043  -48.3138 N.am      16 UNK        -0.5000 
     90 CA         -6.3372  -18.6244  -48.7630 C.3       16 UNK         0.1400 
     91 CB         -7.0208  -17.6668  -47.7767 C.3       16 UNK        -0.1800 
     92 C          -6.8130  -18.3402  -50.2020 C.2       16 UNK         0.5000 
     93 O          -6.3105  -17.4137  -50.8351 O.2       16 UNK        -0.5000 
     94 N          -7.7436  -19.1585  -50.7124 N.am      17 UNK        -0.5000 
     95 CA         -8.2200  -19.1307  -52.0965 C.3       17 UNK         0.1400 
     96 CB         -9.3997  -20.1053  -52.2330 C.3       17 UNK        -0.1800 
     97 C          -7.1269  -19.4602  -53.1354 C.2       17 UNK         0.5000 
     98 O          -7.2428  -19.0348  -54.2851 O.2       17 UNK        -0.5000 
     99 N          -6.0815  -20.1906  -52.7198 N.am      18 UNK        -0.5000 
    100 CA        -4.9423  -20.5621  -53.5584 C.3       18 UNK         0.1400 
    101 CB        -4.3672  -21.8960  -53.0541 C.3       18 UNK        -0.1800 
    102 C         -3.8475  -19.4782  -53.6165 C.2       18 UNK         0.5000 
    103 O         -2.8527  -19.6842  -54.3145 O.2       18 UNK        -0.5000 
    104 N         -4.0174  -18.3576  -52.8947 N.am      19 UNK        -0.5000 
    105 CA        -3.0384  -17.2700  -52.7837 C.3       19 UNK         0.1400 
    106 CB        -3.5470  -16.2040  -51.8027 C.3       19 UNK        -0.1800 
    107 C         -2.6609  -16.6166  -54.1248 C.2       19 UNK         0.5000 
    108 O         -1.5037  -16.2400  -54.3077 O.2       19 UNK        -0.5000 
    109 N         -3.6305  -16.5257  -55.0455 N.am      20 UNK        -0.5000 
    110 CA        -3.4556  -15.9676  -56.3886 C.3       20 UNK         0.1400 
    111 CB        -4.8368  -15.7774  -57.0337 C.3       20 UNK        -0.1800 
    112 C         -2.5508  -16.8251  -57.2955 C.2       20 UNK         0.5000 
    113 O         -1.8689  -16.2777  -58.1627 O.2       20 UNK        -0.5000 
    114 N         -2.5568  -18.1458  -57.0749 N.am      21 UNK        -0.5000 
    115 CA        -1.7284  -19.1173  -57.7915 C.3       21 UNK         0.1400 
    116 CB        -2.5446  -20.4088  -57.9636 C.3       21 UNK        -0.1800 
    117 C         -0.4086  -19.4210  -57.0559 C.2       21 UNK         0.5000 
    118 O          0.4830  -20.0319  -57.6461 O.2       21 UNK        -0.5000 
    119 N         -0.3218  -19.0205  -55.7810 N.am      22 UNK        -0.5000 
    120 CA         0.6926  -19.4365  -54.8038 C.3       22 UNK         0.1400 
    121 C          0.6136  -20.9619  -54.4861 C.2       22 UNK         0.5000 
    122 N         -0.5876  -21.4950  -54.2925 N.am      22 UNK        -0.7600 
    123 O          1.6153  -21.6706  -54.4380 O.2       22 UNK        -0.5000 
    124 C124        2.1124  -18.8951  -55.1299 C.3       23 UNK        -0.0398 
    125 S125        3.3286  -18.8547  -53.7556 S.3       23 UNK        -0.2404 
    126 C126        2.4423  -18.1663  -52.3127 C.3       23 UNK        -0.0205 
    127 H127       -6.1724  -20.5148  -45.3526 H         1 UNK         0.0600 
    128 H128       -5.5091  -20.3002  -43.7313 H         1 UNK         0.0600 
    129 H129       -4.7456  -21.4314  -44.8415 H         1 UNK         0.0600 
    130 H130       -3.3325  -20.5999  -46.5020 H         1 UNK         0.3000 
    131 H131       -3.0441  -17.8495  -47.1273 H         1 UNK         0.0600 
    132 H132       -1.3816  -20.3208  -47.6867 H         1 UNK         0.0800 
    133 H133       -0.6271  -18.7701  -47.9600 H         1 UNK         0.0800 
    134 H134       -2.0160  -21.3635  -50.0216 H         1 UNK         0.0800 
    135 H135       -2.1278  -20.3850  -51.4588 H         1 UNK         0.0800 
    136 H136       -0.2111  -18.5657  -51.7890 H         1 UNK         0.1150 
    137 H137        3.6700  -20.1243  -50.8544 H         1 UNK         0.1150 
    138 H138        0.1602  -22.0539  -49.3506 H         1 UNK         0.1150 
    139 H139        2.3251  -23.1141  -49.0797 H         1 UNK         0.0800 
    140 H140        3.7473  -22.4256  -49.8176 H         1 UNK         0.0800 
    141 H141        1.0069  -21.3402  -47.3728 H         1 UNK         0.0800 
    142 H142        1.8276  -20.4600  -46.1396 H         1 UNK         0.0800 
    143 H143        1.7235  -23.5060  -46.2740 H         1 UNK         0.0600 
    144 H144        2.9869  -21.6731  -44.3600 H         1 UNK         0.3000 
    145 H145        4.1085  -24.1931  -42.2084 H         1 UNK         0.0600 
    146 H146        5.7074  -24.7333  -44.0530 H         1 UNK         0.0600 
    147 H147        5.8794  -23.0218  -44.4233 H         1 UNK         0.0600 
    148 H148        6.4429  -23.6570  -42.8764 H         1 UNK         0.0600 
    149 H149        5.0420  -21.5240  -42.6557 H         1 UNK         0.3000 
    150 H150        2.4184  -19.7635  -41.1115 H         1 UNK         0.0600 
    151 H151        5.1347  -20.4094  -39.8577 H         1 UNK         0.0600 
    152 H152        3.5734  -20.6731  -39.0902 H         1 UNK         0.0600 
    153 H153        4.0991  -19.0386  -39.4556 H         1 UNK         0.0600 
    154 H154        4.9284  -18.7808  -41.7625 H         1 UNK         0.3000 
    155 H155        4.8685  -17.2361  -43.6274 H         1 UNK         0.0600 
    156 H156        6.0863  -19.6967  -45.0110 H         1 UNK         0.0600 
    157 H157        6.6216  -19.0215  -43.4771 H         1 UNK         0.0600 
    158 H158        6.8163  -18.0928  -44.9508 H         1 UNK         0.0600 
    159 H159        4.7231  -18.1549  -46.3266 H         1 UNK         0.3000 
    160 H160        3.6454  -16.1556  -47.6457 H         1 UNK         0.0600 
    161 H161        1.8701  -18.6645  -47.6906 H         1 UNK         0.0600 
    162 H162        3.5948  -18.6224  -48.0606 H         1 UNK         0.0600 
    163 H163        2.4566  -17.8086  -49.1080 H         1 UNK         0.0600 
    164 H164        0.9978  -16.0089  -46.5257 H         1 UNK         0.3000 
    165 H165       -0.0152  -13.5035  -48.7520 H         1 UNK         0.0600 
    166 H166       -0.9370  -15.4177  -50.0694 H         1 UNK         0.0600 
    167 H167       -1.3615  -16.2562  -48.5849 H         1 UNK         0.0600 
    168 H168       -2.1617  -14.7429  -49.0032 H         1 UNK         0.0600 
    169 H169       -1.0721  -15.0643  -46.4840 H         1 UNK         0.3000 
    170 H170        0.0985  -14.1137  -44.1107 H         1 UNK         0.0600 
    171 H171        0.5268  -11.7129  -43.8184 H         1 UNK         0.0600 
    172 H172       -1.0980  -11.3023  -44.3467 H         1 UNK         0.0600 
    173 H173       -0.8516  -12.1739  -42.8335 H         1 UNK         0.0600 
    174 H174       -1.9426  -14.9181  -44.0340 H         1 UNK         0.3000 
    175 H175       -5.1375  -13.8010  -44.4545 H         1 UNK         0.0600 
    176 H176       -5.6375  -15.6301  -46.0694 H         1 UNK         0.0600 
    177 H177       -4.9276  -14.2544  -46.8995 H         1 UNK         0.0600 
    178 H178       -3.9474  -15.6778  -46.5703 H         1 UNK         0.0600 
    179 H179       -4.0731  -16.4659  -44.2446 H         1 UNK         0.3000 
    180 H180       -3.2422  -16.3314  -40.7850 H         1 UNK         0.0600 
    181 H181       -5.4400  -17.8329  -42.3095 H         1 UNK         0.0600 
    182 H182       -5.6691  -16.8830  -40.8477 H         1 UNK         0.0600 
    183 H183       -4.6981  -18.3459  -40.7943 H         1 UNK         0.0600 
    184 H184       -3.0821  -18.3351  -42.8547 H         1 UNK         0.3000 
    185 H185        0.3395  -17.7182  -43.7107 H         1 UNK         0.0600 
    186 H186        0.4815  -20.0701  -42.9447 H         1 UNK         0.0600 
    187 H187        0.3212  -18.9932  -41.5638 H         1 UNK         0.0600 
    188 H188       -1.0674  -19.9152  -42.1075 H         1 UNK         0.0600 
    189 H189       -1.6070  -19.6913  -44.5102 H         1 UNK         0.3000 
    190 H190        0.8627  -22.8150  -43.2186 H         1 UNK         0.3000 
    191 H191       -1.7894  -21.8758  -43.3151 H         1 UNK         0.0600 
    192 H192       -0.4601  -23.7938  -41.3216 H         1 UNK         0.0600 
    193 H193       -1.9423  -22.8900  -41.0322 H         1 UNK         0.0600 
    194 H194       -0.4212  -22.0375  -41.2294 H         1 UNK         0.0600 
    195 H195       -0.5658  -25.0376  -44.1410 H         1 UNK         0.3000 
    196 H196       -3.0388  -26.5053  -43.8985 H         1 UNK         0.0600 
    197 H197       -1.7492  -28.2578  -45.1241 H         1 UNK         0.0600 
    198 H198       -0.8126  -27.6035  -43.7907 H         1 UNK         0.0600 
    199 H199       -0.4593  -27.1049  -45.4456 H         1 UNK         0.0600 
    200 H200       -1.8969  -24.2348  -46.2780 H         1 UNK         0.3000 
    201 H201       -3.6602  -25.3174  -48.4288 H         1 UNK         0.0600 
    202 H202       -2.3790  -23.7510  -49.8709 H         1 UNK         0.0600 
    203 H203       -1.4441  -23.2187  -48.4734 H         1 UNK         0.0600 
    204 H204       -1.2902  -24.8722  -49.0635 H         1 UNK         0.0600 
    205 H205       -5.4979  -24.2301  -48.8994 H         1 UNK         0.3000 
    206 H206       -6.5654  -22.2661  -47.1494 H         1 UNK         0.0600 
    207 H207       -7.9478  -23.9491  -48.3612 H         1 UNK         0.0600 
    208 H208       -8.4899  -22.3259  -48.7509 H         1 UNK         0.0600 
    209 H209       -7.5150  -23.2221  -49.9091 H         1 UNK         0.0600 
    210 H210       -7.1434  -20.1134  -47.5008 H         1 UNK         0.3000 
    211 H211       -5.2630  -18.4340  -48.7333 H         1 UNK         0.0600 
    212 H212       -8.0997  -17.8231  -47.7462 H         1 UNK         0.0600 
    213 H213       -6.8476  -16.6275  -48.0593 H         1 UNK         0.0600 
    214 H214       -6.6339  -17.7963  -46.7662 H         1 UNK         0.0600 
    215 H215       -8.1056  -19.8926  -50.1230 H         1 UNK         0.3000 
    216 H216       -8.5799  -18.1217  -52.3079 H         1 UNK         0.0600 
    217 H217       -9.8009  -20.0941  -53.2474 H         1 UNK         0.0600 
    218 H218      -10.2144  -19.8363  -51.5604 H         1 UNK         0.0600 
    219 H219       -9.1021  -21.1305  -52.0087 H         1 UNK         0.0600 
    220 H220       -6.0283  -20.4769  -51.7470 H         1 UNK         0.3000 
    221 H221       -5.2879  -20.7184  -54.5822 H         1 UNK         0.0600 
    222 H222       -3.9693  -21.8104  -52.0433 H         1 UNK         0.0600 
    223 H223       -5.1298  -22.6747  -53.0459 H         1 UNK         0.0600 
    224 H224       -3.5579  -22.2446  -53.6965 H         1 UNK         0.0600 
    225 H225       -4.8561  -18.2613  -52.3361 H         1 UNK         0.3000 
    226 H226       -2.1288  -17.6986  -52.3667 H         1 UNK         0.0600 
    227 H227       -2.8361  -15.3820  -51.7125 H         1 UNK         0.0600 
    228 H228       -4.4976  -15.7798  -52.1278 H         1 UNK         0.0600 
    229 H229       -3.6874  -16.6187  -50.8047 H         1 UNK         0.0600 
    230 H230       -4.5510  -16.8668  -54.8082 H         1 UNK         0.3000 
    231 H231       -2.9868  -14.9863  -56.2888 H         1 UNK         0.0600 
    232 H232       -5.3675  -16.7249  -57.1362 H         1 UNK         0.0600 
    233 H233       -4.7463  -15.3420  -58.0298 H         1 UNK         0.0600 
    234 H234       -5.4594  -15.1056  -56.4424 H         1 UNK         0.0600 
    235 H235       -3.1238  -18.5101  -56.3212 H         1 UNK         0.3000 
    236 H236       -1.4768  -18.7372  -58.7838 H         1 UNK         0.0600 
    237 H237       -1.9800  -21.1580  -58.5201 H         1 UNK         0.0600 
    238 H238       -2.8112  -20.8473  -57.0008 H         1 UNK         0.0600 
    239 H239       -3.4664  -20.2224  -58.5147 H         1 UNK         0.0600 
    240 H240       -1.1242  -18.5472  -55.3904 H         1 UNK         0.3000 
    241 H241        0.3632  -18.9350  -53.9022 H         1 UNK         0.0600 
    242 H242       -0.6670  -22.4790  -54.0959 H         1 UNK         0.3800 
    243 H243       -1.4194  -20.9135  -54.3410 H         1 UNK         0.3800 
    244 H244        2.0281  -17.8719  -55.4983 H         1 UNK         0.0800 
    245 H245        2.5501  -19.4657  -55.9500 H         1 UNK         0.0800 
    246 H246        3.1589  -17.6225  -51.6955 H         1 UNK         0.0800 
    247 H247        1.7110  -17.4265  -52.6422 H         1 UNK         0.0800 
@<TRIPOS>BOND
     1    1    2 1    
     2    1  127 1    
     3    1  128 1    
     4    1  129 1    
     5    2    3 2    
     6    2    4 am   BACKBONE|DICT|INTERRES
     7    4    5 1    
     8    4  130 1    
     9    5    6 1    
    10    5   65 1    
    11    5  131 1    
    12    6    7 1    
    13    6  132 1    
    14    6  133 1    
    15    7    8 1    
    16    8    9 1    
    17    8  134 1    
    18    8  135 1    
    19    9   10 ar   
    20    9   14 ar   
    21   10   11 ar   
    22   10  136 1    
    23   11   12 ar   
    24   11  126 1    
    25   12   13 ar   
    26   12  137 1    
    27   13   14 ar   
    28   13   15 1    
    29   14  138 1    
    30   15   16 1    
    31   15  139 1    
    32   15  140 1    
    33   16   17 1    
    34   17   18 1    
    35   17  141 1    
    36   17  142 1    
    37   18   19 1    
    38   18   67 1    
    39   18  143 1    
    40   19   20 am   BACKBONE|DICT|INTERRES
    41   19  144 1    
    42   20   21 2    
    43   20   22 1    
    44   22   23 1    
    45   22   24 1    
    46   22  145 1    
    47   23  146 1    
    48   23  147 1    
    49   23  148 1    
    50   24   25 am   BACKBONE|DICT|INTERRES
    51   24  149 1    
    52   25   26 2    
    53   25   27 1    
    54   27   28 1    
    55   27   29 1    
    56   27  150 1    
    57   28  151 1    
    58   28  152 1    
    59   28  153 1    
    60   29   30 am   BACKBONE|DICT|INTERRES
    61   29  154 1    
    62   30   31 2    
    63   30   32 1    
    64   32   33 1    
    65   32   34 1    
    66   32  155 1    
    67   33  156 1    
    68   33  157 1    
    69   33  158 1    
    70   34   35 am   BACKBONE|DICT|INTERRES
    71   34  159 1    
    72   35   36 2    
    73   35   37 1    
    74   37   38 1    
    75   37   39 1    
    76   37  160 1    
    77   38  161 1    
    78   38  162 1    
    79   38  163 1    
    80   39   40 am   BACKBONE|DICT|INTERRES
    81   39  164 1    
    82   40   41 2    
    83   40   42 1    
    84   42   43 1    
    85   42   44 1    
    86   42  165 1    
    87   43  166 1    
    88   43  167 1    
    89   43  168 1    
    90   44   45 am   BACKBONE|DICT|INTERRES
    91   44  169 1    
    92   45   46 2    
    93   45   47 1    
    94   47   48 1    
    95   47   49 1    
    96   47  170 1    
    97   48  171 1    
    98   48  172 1    
    99   48  173 1    
   100   49   50 am   BACKBONE|DICT|INTERRES
   101   49  174 1    
   102   50   51 2    
   103   50   52 1    
   104   52   53 1    
   105   52   54 1    
   106   52  175 1    
   107   53  176 1    
   108   53  177 1    
   109   53  178 1    
   110   54   55 am   BACKBONE|DICT|INTERRES
   111   54  179 1    
   112   55   56 2    
   113   55   57 1    
   114   57   58 1    
   115   57   59 1    
   116   57  180 1    
   117   58  181 1    
   118   58  182 1    
   119   58  183 1    
   120   59   60 am   BACKBONE|DICT|INTERRES
   121   59  184 1    
   122   60   61 2    
   123   60   62 1    
   124   62   63 1    
   125   62   64 1    
   126   62  185 1    
   127   63  186 1    
   128   63  187 1    
   129   63  188 1    
   130   64   65 am   BACKBONE|DICT|INTERRES
   131   64  189 1    
   132   65   66 2    
   133   67   68 2    
   134   67   69 am   BACKBONE|DICT|INTERRES
   135   69   70 1    
   136   69  190 1    
   137   70   71 1    
   138   70   72 1    
   139   70  191 1    
   140   71  192 1    
   141   71  193 1    
   142   71  194 1    
   143   72   73 2    
   144   72   74 am   BACKBONE|DICT|INTERRES
   145   74   75 1    
   146   74  195 1    
   147   75   76 1    
   148   75   77 1    
   149   75  196 1    
   150   76  197 1    
   151   76  198 1    
   152   76  199 1    
   153   77   78 2    
   154   77   79 am   BACKBONE|DICT|INTERRES
   155   79   80 1    
   156   79  200 1    
   157   80   81 1    
   158   80   82 1    
   159   80  201 1    
   160   81  202 1    
   161   81  203 1    
   162   81  204 1    
   163   82   83 2    
   164   82   84 am   BACKBONE|DICT|INTERRES
   165   84   85 1    
   166   84  205 1    
   167   85   86 1    
   168   85   87 1    
   169   85  206 1    
   170   86  207 1    
   171   86  208 1    
   172   86  209 1    
   173   87   88 2    
   174   87   89 am   BACKBONE|DICT|INTERRES
   175   89   90 1    
   176   89  210 1    
   177   90   91 1    
   178   90   92 1    
   179   90  211 1    
   180   91  212 1    
   181   91  213 1    
   182   91  214 1    
   183   92   93 2    
   184   92   94 am   BACKBONE|DICT|INTERRES
   185   94   95 1    
   186   94  215 1    
   187   95   96 1    
   188   95   97 1    
   189   95  216 1    
   190   96  217 1    
   191   96  218 1    
   192   96  219 1    
   193   97   98 2    
   194   97   99 am   BACKBONE|DICT|INTERRES
   195   99  100 1    
   196   99  220 1    
   197  100  101 1    
   198  100  102 1    
   199  100  221 1    
   200  101  222 1    
   201  101  223 1    
   202  101  224 1    
   203  102  103 2    
   204  102  104 am   BACKBONE|DICT|INTERRES
   205  104  105 1    
   206  104  225 1    
   207  105  106 1    
   208  105  107 1    
   209  105  226 1    
   210  106  227 1    
   211  106  228 1    
   212  106  229 1    
   213  107  108 2    
   214  107  109 am   BACKBONE|DICT|INTERRES
   215  109  110 1    
   216  109  230 1    
   217  110  111 1    
   218  110  112 1    
   219  110  231 1    
   220  111  232 1    
   221  111  233 1    
   222  111  234 1    
   223  112  113 2    
   224  112  114 am   BACKBONE|DICT|INTERRES
   225  114  115 1    
   226  114  235 1    
   227  115  116 1    
   228  115  117 1    
   229  115  236 1    
   230  116  237 1    
   231  116  238 1    
   232  116  239 1    
   233  117  118 2    
   234  117  119 am   BACKBONE|DICT|INTERRES
   235  119  120 1    
   236  119  240 1    
   237  120  121 1    
   238  120  124 1    
   239  120  241 1    
   240  121  122 am   BACKBONE|DICT|INTERRES
   241  121  123 2    
   242  122  242 1    
   243  122  243 1    
   244  124  125 1    
   245  124  244 1    
   246  124  245 1    
   247  125  126 1    
   248  126  246 1    
   249  126  247 1    
@<TRIPOS>SUBSTRUCTURE
     1 UNK         1 GROUP             0       ****    0 ROOT    
