@<TRIPOS>MOLECULE
3R540
247   249    1
SMALL
USER_CHARGES


@<TRIPOS>ATOM
      1 CA          5.9414  -14.5774  -47.0644 C.3       0 UNK        -0.1800 
      2 C           5.0133  -13.8815  -46.0798 C.2       0 UNK         0.5000 
      3 O           5.2008  -13.9931  -44.8684 O.2       0 UNK        -0.5000 
      4 N           4.0135  -13.1525  -46.5884 N.am      1 UNK        -0.5000 
      5 CA          3.0165  -12.4103  -45.8056 C.3       1 UNK         0.1400 
      6 C6          1.6616  -12.2921  -46.5483 C.3       23 UNK        -0.0398 
      7 S7          0.9592  -13.9193  -46.9909 S.3       23 UNK        -0.2404 
      8 C8          1.2197  -13.9163  -48.7921 C.3       23 UNK        -0.0205 
      9 C9          0.7568  -15.2122  -49.4400 C.ar      23 UNK        -0.0193 
     10 C10        -0.5510  -15.3340  -49.9194 C.ar      23 UNK        -0.1150 
     11 C11        -0.9822  -16.5088  -50.5455 C.ar      23 UNK        -0.0193 
     12 C12        -0.0729  -17.5616  -50.7034 C.ar      23 UNK        -0.1150 
     13 C13         1.2351  -17.4587  -50.2186 C.ar      23 UNK        -0.0193 
     14 C14         1.6431  -16.2823  -49.5847 C.ar      23 UNK        -0.1150 
     15 C15         2.2104  -18.6150  -50.3895 C.3       23 UNK        -0.0205 
     16 S16         2.1207  -19.7957  -49.0059 S.3       23 UNK        -0.2404 
     17 C17         0.4605  -20.4974  -49.2722 C.3       23 UNK        -0.0398 
     18 CA          0.2389  -21.8528  -48.5698 C.3       11 UNK         0.1400 
     19 N           0.3230  -21.7500  -47.1124 N.am      11 UNK        -0.5000 
     20 C           0.2657  -22.7851  -46.2634 C.2       10 UNK         0.5000 
     21 O           0.1957  -23.9629  -46.6161 O.2       10 UNK        -0.5000 
     22 CA          0.2247  -22.4374  -44.7670 C.3       10 UNK         0.1400 
     23 CB          1.6366  -22.1704  -44.2235 C.3       10 UNK        -0.1800 
     24 N          -0.6319  -21.2803  -44.5068 N.am      10 UNK        -0.5000 
     25 C          -1.9689  -21.2966  -44.5931 C.2       9 UNK         0.5000 
     26 O          -2.6236  -22.3012  -44.8733 O.2       9 UNK        -0.5000 
     27 CA         -2.6914  -19.9567  -44.3612 C.3       9 UNK         0.1400 
     28 CB         -2.8159  -19.6574  -42.8598 C.3       9 UNK        -0.1800 
     29 N          -2.0308  -18.8319  -45.0244 N.am      9 UNK        -0.5000 
     30 C          -1.9423  -18.6862  -46.3539 C.2       8 UNK         0.5000 
     31 O          -2.4131  -19.4819  -47.1629 O.2       8 UNK        -0.5000 
     32 CA         -1.1718  -17.4630  -46.8763 C.3       8 UNK         0.1400 
     33 CB         -2.1038  -16.2413  -46.8967 C.3       8 UNK        -0.1800 
     34 N           0.0401  -17.1300  -46.1263 N.am      8 UNK        -0.5000 
     35 C           1.0129  -17.9692  -45.7389 C.2       7 UNK         0.5000 
     36 O           0.9938  -19.1842  -45.9306 O.2       7 UNK        -0.5000 
     37 CA          2.1980  -17.3545  -44.9699 C.3       7 UNK         0.1400 
     38 CB          3.3831  -17.1336  -45.9201 C.3       7 UNK        -0.1800 
     39 N           1.8829  -16.0919  -44.2929 N.am      7 UNK        -0.5000 
     40 C           0.9628  -15.9424  -43.3305 C.2       6 UNK         0.5000 
     41 O           0.3073  -16.8726  -42.8574 O.2       6 UNK        -0.5000 
     42 CA          0.7712  -14.5138  -42.8092 C.3       6 UNK         0.1400 
     43 CB         -0.5549  -14.3200  -42.0503 C.3       6 UNK        -0.1800 
     44 N           1.8919  -14.1842  -41.9358 N.am      6 UNK        -0.5000 
     45 C           2.4450  -12.9728  -41.8347 C.2       5 UNK         0.5000 
     46 O           2.1064  -12.0070  -42.5219 O.2       5 UNK        -0.5000 
     47 CA          3.5823  -12.8224  -40.8092 C.3       5 UNK         0.1400 
     48 CB          4.9464  -13.0790  -41.4649 C.3       5 UNK        -0.1800 
     49 N           3.5707  -11.4817  -40.2278 N.am      5 UNK        -0.5000 
     50 C           2.7028  -11.0798  -39.2882 C.2       4 UNK         0.5000 
     51 O           1.9160  -11.8371  -38.7178 O.2       4 UNK        -0.5000 
     52 CA          2.7015   -9.5821  -38.9264 C.3       4 UNK         0.1400 
     53 CB          3.6236   -9.3149  -37.7270 C.3       4 UNK        -0.1800 
     54 N           3.1125   -8.7315  -40.0423 N.am      4 UNK        -0.5000 
     55 C           2.3784   -8.4898  -41.1364 C.2       3 UNK         0.5000 
     56 O           1.2233   -8.8887  -41.2886 O.2       3 UNK        -0.5000 
     57 CA          3.0431   -7.6522  -42.2464 C.3       3 UNK         0.1400 
     58 CB          3.9242   -6.5101  -41.6948 C.3       3 UNK        -0.1800 
     59 N           3.7946   -8.4649  -43.2087 N.am      3 UNK        -0.5000 
     60 C           4.8317   -9.2804  -42.9746 C.2       2 UNK         0.5000 
     61 O           5.2691   -9.5426  -41.8518 O.2       2 UNK        -0.5000 
     62 CA          5.4855   -9.9095  -44.2196 C.3       2 UNK         0.1400 
     63 CB          6.9406  -10.3407  -43.9634 C.3       2 UNK        -0.1800 
     64 N           4.7343  -11.0667  -44.6940 N.am      2 UNK        -0.5000 
     65 C           3.5823  -11.0373  -45.3736 C.2       1 UNK         0.5000 
     66 O           3.0120   -9.9920  -45.6936 O.2       1 UNK        -0.5000 
     67 C          -1.1018  -22.4728  -49.0112 C.2       11 UNK         0.5000 
     68 O          -1.0964  -23.4257  -49.7878 O.2       11 UNK        -0.5000 
     69 N          -2.2193  -21.9661  -48.4671 N.am      12 UNK        -0.5000 
     70 CA         -3.5654  -22.4868  -48.6989 C.3       12 UNK         0.1400 
     71 CB         -4.6082  -21.5971  -48.0079 C.3       12 UNK        -0.1800 
     72 C          -3.7248  -23.9477  -48.2537 C.2       12 UNK         0.5000 
     73 O          -4.3014  -24.7337  -49.0027 O.2       12 UNK        -0.5000 
     74 N          -3.1870  -24.2981  -47.0765 N.am      13 UNK        -0.5000 
     75 CA         -3.1744  -25.6658  -46.5530 C.3       13 UNK         0.1400 
     76 CB         -2.6121  -25.6747  -45.1239 C.3       13 UNK        -0.1800 
     77 C          -2.4020  -26.6429  -47.4592 C.2       13 UNK         0.5000 
     78 O          -2.9129  -27.7238  -47.7566 O.2       13 UNK        -0.5000 
     79 N          -1.2169  -26.2244  -47.9278 N.am      14 UNK        -0.5000 
     80 CA         -0.3981  -26.9611  -48.8951 C.3       14 UNK         0.1400 
     81 CB          0.9706  -26.2774  -49.0314 C.3       14 UNK        -0.1800 
     82 C          -1.0792  -27.1066  -50.2712 C.2       14 UNK         0.5000 
     83 O          -0.9510  -28.1520  -50.9083 O.2       14 UNK        -0.5000 
     84 N          -1.8302  -26.0760  -50.6778 N.am      15 UNK        -0.5000 
     85 CA         -2.6410  -26.0202  -51.8945 C.3       15 UNK         0.1400 
     86 CB         -2.7356  -24.5549  -52.3544 C.3       15 UNK        -0.1800 
     87 C          -4.0384  -26.6633  -51.7397 C.2       15 UNK         0.5000 
     88 O          -4.9212  -26.3684  -52.5451 O.2       15 UNK        -0.5000 
     89 N          -4.2267  -27.5219  -50.7251 N.am      16 UNK        -0.5000 
     90 CA         -5.4285  -28.3171  -50.4448 C.3       16 UNK         0.1400 
     91 CB         -5.6461  -29.3739  -51.5485 C.3       16 UNK        -0.1800 
     92 C          -6.6773  -27.4494  -50.1843 C.2       16 UNK         0.5000 
     93 O          -7.7150  -27.6406  -50.8206 O.2       16 UNK        -0.5000 
     94 N          -6.5288  -26.4989  -49.2519 N.am      17 UNK        -0.5000 
     95 CA         -7.4891  -25.4555  -48.8749 C.3       17 UNK         0.1400 
     96 CB         -8.8028  -26.0543  -48.3289 C.3       17 UNK        -0.1800 
     97 C          -7.6958  -24.4312  -50.0095 C.2       17 UNK         0.5000 
     98 O          -8.8234  -24.0056  -50.2656 O.2       17 UNK        -0.5000 
     99 N          -6.5794  -24.0599  -50.6546 N.am      18 UNK        -0.5000 
    100 CA        -6.4551  -23.1355  -51.7841 C.3       18 UNK         0.1400 
    101 CB        -6.7034  -21.6826  -51.3279 C.3       18 UNK        -0.1800 
    102 C         -7.3243  -23.5504  -52.9875 C.2       18 UNK         0.5000 
    103 O         -8.1746  -22.7782  -53.4365 O.2       18 UNK        -0.5000 
    104 N         -7.1056  -24.7790  -53.4756 N.am      19 UNK        -0.5000 
    105 CA        -7.7526  -25.3384  -54.6604 C.3       19 UNK         0.1400 
    106 CB        -7.3800  -26.8242  -54.7881 C.3       19 UNK        -0.1800 
    107 C         -7.3535  -24.5422  -55.9168 C.2       19 UNK         0.5000 
    108 O         -6.1927  -24.5895  -56.3272 O.2       19 UNK        -0.5000 
    109 N         -8.3113  -23.7751  -56.4538 N.am      20 UNK        -0.5000 
    110 CA        -8.2065  -22.7871  -57.5370 C.3       20 UNK         0.1400 
    111 CB        -7.6509  -23.4029  -58.8360 C.3       20 UNK        -0.1800 
    112 C         -7.4448  -21.5016  -57.1489 C.2       20 UNK         0.5000 
    113 O         -7.8818  -20.4137  -57.5272 O.2       20 UNK        -0.5000 
    114 N         -6.3504  -21.6286  -56.3921 N.am      21 UNK        -0.5000 
    115 CA        -5.5372  -20.5383  -55.8637 C.3       21 UNK         0.1400 
    116 CB        -4.6273  -19.9748  -56.9723 C.3       21 UNK        -0.1800 
    117 C         -4.7044  -21.0548  -54.6810 C.2       21 UNK         0.5000 
    118 O         -4.5660  -22.2670  -54.5083 O.2       21 UNK        -0.5000 
    119 N         -4.1434  -20.1247  -53.9002 N.am      22 UNK        -0.5000 
    120 CA        -3.2055  -20.4042  -52.7977 C.3       22 UNK         0.1400 
    121 C         -1.7723  -20.8254  -53.2443 C.2       22 UNK         0.5000 
    122 N         -1.4217  -20.7697  -54.5235 N.am      22 UNK        -0.7600 
    123 O         -0.9633  -21.2186  -52.4126 O.2       22 UNK        -0.5000 
    124 C124       -3.1745  -19.2447  -51.7650 C.3       23 UNK        -0.0398 
    125 S125       -2.7225  -17.6257  -52.4906 S.3       23 UNK        -0.2404 
    126 C126       -2.4407  -16.6155  -50.9949 C.3       23 UNK        -0.0205 
    127 H127        6.9485  -14.1691  -46.9814 H         1 UNK         0.0600 
    128 H128        5.6054  -14.4534  -48.0941 H         1 UNK         0.0600 
    129 H129        5.9869  -15.6447  -46.8492 H         1 UNK         0.0600 
    130 H130        3.9320  -13.0628  -47.5904 H         1 UNK         0.3000 
    131 H131        2.8238  -12.9662  -44.8874 H         1 UNK         0.0600 
    132 H132        1.7636  -11.6778  -47.4445 H         1 UNK         0.0800 
    133 H133        0.9325  -11.7830  -45.9154 H         1 UNK         0.0800 
    134 H134        2.2768  -13.7561  -49.0073 H         1 UNK         0.0800 
    135 H135        0.6858  -13.0723  -49.2320 H         1 UNK         0.0800 
    136 H136       -1.2396  -14.5102  -49.7929 H         1 UNK         0.1150 
    137 H137       -0.3803  -18.4734  -51.1927 H         1 UNK         0.1150 
    138 H138        2.6538  -16.1967  -49.2109 H         1 UNK         0.1150 
    139 H139        2.0203  -19.1343  -51.3302 H         1 UNK         0.0800 
    140 H140        3.2298  -18.2324  -50.4570 H         1 UNK         0.0800 
    141 H141        0.3288  -20.6154  -50.3466 H         1 UNK         0.0800 
    142 H142       -0.2828  -19.7712  -48.9432 H         1 UNK         0.0800 
    143 H143        1.0299  -22.5332  -48.8926 H         1 UNK         0.0600 
    144 H144        0.4362  -20.8143  -46.7297 H         1 UNK         0.3000 
    145 H145       -0.1869  -23.2968  -44.2335 H         1 UNK         0.0600 
    146 H146        1.6146  -21.9662  -43.1530 H         1 UNK         0.0600 
    147 H147        2.2812  -23.0369  -44.3764 H         1 UNK         0.0600 
    148 H148        2.1087  -21.3207  -44.7175 H         1 UNK         0.0600 
    149 H149       -0.1652  -20.3941  -44.3702 H         1 UNK         0.3000 
    150 H150       -3.6981  -20.0481  -44.7745 H         1 UNK         0.0600 
    151 H151       -3.3105  -20.4776  -42.3376 H         1 UNK         0.0600 
    152 H152       -3.4072  -18.7583  -42.6854 H         1 UNK         0.0600 
    153 H153       -1.8399  -19.5116  -42.3949 H         1 UNK         0.0600 
    154 H154       -1.5856  -18.1451  -44.4316 H         1 UNK         0.3000 
    155 H155       -0.8620  -17.6805  -47.8982 H         1 UNK         0.0600 
    156 H156       -2.4306  -15.9680  -45.8927 H         1 UNK         0.0600 
    157 H157       -2.9964  -16.4411  -47.4911 H         1 UNK         0.0600 
    158 H158       -1.6165  -15.3714  -47.3330 H         1 UNK         0.0600 
    159 H159        0.1829  -16.1475  -45.9436 H         1 UNK         0.3000 
    160 H160        2.4985  -18.0765  -44.2078 H         1 UNK         0.0600 
    161 H161        4.2702  -16.8160  -45.3724 H         1 UNK         0.0600 
    162 H162        3.6403  -18.0535  -46.4475 H         1 UNK         0.0600 
    163 H163        3.1579  -16.3774  -46.6732 H         1 UNK         0.0600 
    164 H164        2.4007  -15.2826  -44.6018 H         1 UNK         0.3000 
    165 H165        0.7604  -13.8544  -43.6798 H         1 UNK         0.0600 
    166 H166       -0.6903  -13.2790  -41.7563 H         1 UNK         0.0600 
    167 H167       -1.4059  -14.5950  -42.6746 H         1 UNK         0.0600 
    168 H168       -0.5965  -14.9298  -41.1470 H         1 UNK         0.0600 
    169 H169        2.2457  -14.9446  -41.3709 H         1 UNK         0.3000 
    170 H170        3.4412  -13.5551  -40.0117 H         1 UNK         0.0600 
    171 H171        5.1420  -12.3741  -42.2708 H         1 UNK         0.0600 
    172 H172        5.7561  -12.9911  -40.7405 H         1 UNK         0.0600 
    173 H173        4.9954  -14.0822  -41.8902 H         1 UNK         0.0600 
    174 H174        4.1483  -10.7844  -40.6860 H         1 UNK         0.3000 
    175 H175        1.6828   -9.3095  -38.6424 H         1 UNK         0.0600 
    176 H176        4.6624   -9.5559  -37.9565 H         1 UNK         0.0600 
    177 H177        3.5804   -8.2694  -37.4212 H         1 UNK         0.0600 
    178 H178        3.3289   -9.9170  -36.8665 H         1 UNK         0.0600 
    179 H179        4.0691   -8.4060  -40.0352 H         1 UNK         0.3000 
    180 H180        2.2306   -7.1892  -42.8086 H         1 UNK         0.0600 
    181 H181        4.8225   -6.8773  -41.1981 H         1 UNK         0.0600 
    182 H182        3.3731   -5.9046  -40.9740 H         1 UNK         0.0600 
    183 H183        4.2427   -5.8443  -42.4969 H         1 UNK         0.0600 
    184 H184        3.4554   -8.4251  -44.1626 H         1 UNK         0.3000 
    185 H185        5.5015   -9.1539  -45.0081 H         1 UNK         0.0600 
    186 H186        7.5385   -9.5010  -43.6069 H         1 UNK         0.0600 
    187 H187        7.0068  -11.1313  -43.2153 H         1 UNK         0.0600 
    188 H188        7.4086  -10.7071  -44.8773 H         1 UNK         0.0600 
    189 H189        5.1252  -11.9790  -44.4858 H         1 UNK         0.3000 
    190 H190       -2.1557  -21.1547  -47.8555 H         1 UNK         0.3000 
    191 H191       -3.7504  -22.4475  -49.7737 H         1 UNK         0.0600 
    192 H192       -4.4302  -21.5275  -46.9344 H         1 UNK         0.0600 
    193 H193       -5.6159  -21.9905  -48.1487 H         1 UNK         0.0600 
    194 H194       -4.5947  -20.5864  -48.4159 H         1 UNK         0.0600 
    195 H195       -2.7645  -23.5826  -46.4944 H         1 UNK         0.3000 
    196 H196       -4.2101  -26.0088  -46.5075 H         1 UNK         0.0600 
    197 H197       -2.6157  -26.6834  -44.7093 H         1 UNK         0.0600 
    198 H198       -3.2108  -25.0491  -44.4618 H         1 UNK         0.0600 
    199 H199       -1.5858  -25.3097  -45.0900 H         1 UNK         0.0600 
    200 H200       -0.8538  -25.3292  -47.6126 H         1 UNK         0.3000 
    201 H201       -0.2375  -27.9657  -48.4985 H         1 UNK         0.0600 
    202 H202        1.4869  -26.2354  -48.0721 H         1 UNK         0.0600 
    203 H203        0.8764  -25.2569  -49.4035 H         1 UNK         0.0600 
    204 H204        1.6128  -26.8224  -49.7241 H         1 UNK         0.0600 
    205 H205       -1.8236  -25.2309  -50.1142 H         1 UNK         0.3000 
    206 H206       -2.1289  -26.5787  -52.6802 H         1 UNK         0.0600 
    207 H207       -1.7455  -24.1308  -52.5232 H         1 UNK         0.0600 
    208 H208       -3.2874  -24.4617  -53.2907 H         1 UNK         0.0600 
    209 H209       -3.2360  -23.9364  -51.6109 H         1 UNK         0.0600 
    210 H210       -3.4604  -27.6540  -50.0783 H         1 UNK         0.3000 
    211 H211       -5.2295  -28.8522  -49.5151 H         1 UNK         0.0600 
    212 H212       -5.8809  -28.9160  -52.5100 H         1 UNK         0.0600 
    213 H213       -6.4717  -30.0393  -51.2938 H         1 UNK         0.0600 
    214 H214       -4.7592  -29.9937  -51.6804 H         1 UNK         0.0600 
    215 H215       -5.5970  -26.3645  -48.8759 H         1 UNK         0.3000 
    216 H216       -7.0239  -24.9039  -48.0566 H         1 UNK         0.0600 
    217 H217       -9.4365  -25.2747  -47.9047 H         1 UNK         0.0600 
    218 H218       -8.6076  -26.7789  -47.5385 H         1 UNK         0.0600 
    219 H219       -9.3810  -26.5524  -49.1072 H         1 UNK         0.0600 
    220 H220       -5.7129  -24.4797  -50.3325 H         1 UNK         0.3000 
    221 H221       -5.4211  -23.1988  -52.1213 H         1 UNK         0.0600 
    222 H222       -7.7143  -21.5450  -50.9436 H         1 UNK         0.0600 
    223 H223       -6.0039  -21.3882  -50.5474 H         1 UNK         0.0600 
    224 H224       -6.5710  -20.9853  -52.1556 H         1 UNK         0.0600 
    225 H225       -6.3628  -25.3446  -53.0681 H         1 UNK         0.3000 
    226 H226       -8.8333  -25.2729  -54.5192 H         1 UNK         0.0600 
    227 H227       -7.6858  -27.3836  -53.9034 H         1 UNK         0.0600 
    228 H228       -7.8718  -27.2773  -55.6494 H         1 UNK         0.0600 
    229 H229       -6.3050  -26.9616  -54.9122 H         1 UNK         0.0600 
    230 H230       -9.2079  -23.7764  -55.9868 H         1 UNK         0.3000 
    231 H231       -9.2339  -22.4827  -57.7433 H         1 UNK         0.0600 
    232 H232       -8.2108  -24.2930  -59.1227 H         1 UNK         0.0600 
    233 H233       -6.6007  -23.6801  -58.7434 H         1 UNK         0.0600 
    234 H234       -7.7239  -22.6929  -59.6606 H         1 UNK         0.0600 
    235 H235       -6.0515  -22.5584  -56.1082 H         1 UNK         0.3000 
    236 H236       -6.1974  -19.7511  -55.4937 H         1 UNK         0.0600 
    237 H237       -4.0067  -19.1593  -56.5996 H         1 UNK         0.0600 
    238 H238       -3.9615  -20.7416  -57.3703 H         1 UNK         0.0600 
    239 H239       -5.2105  -19.5770  -57.8028 H         1 UNK         0.0600 
    240 H240       -4.2854  -19.1467  -54.1097 H         1 UNK         0.3000 
    241 H241       -3.5942  -21.2754  -52.2666 H         1 UNK         0.0600 
    242 H242       -0.4922  -21.0515  -54.7910 H         1 UNK         0.3800 
    243 H243       -2.0697  -20.4478  -55.2225 H         1 UNK         0.3800 
    244 H244       -4.1614  -19.1426  -51.3116 H         1 UNK         0.0800 
    245 H245       -2.4998  -19.4806  -50.9400 H         1 UNK         0.0800 
    246 H246       -3.0374  -17.0036  -50.1685 H         1 UNK         0.0800 
    247 H247       -2.8270  -15.6168  -51.2041 H         1 UNK         0.0800 
@<TRIPOS>BOND
     1    1    2 1    
     2    1  127 1    
     3    1  128 1    
     4    1  129 1    
     5    2    3 2    
     6    2    4 am   BACKBONE|DICT|INTERRES
     7    4    5 1    
     8    4  130 1    
     9    5    6 1    
    10    5   65 1    
    11    5  131 1    
    12    6    7 1    
    13    6  132 1    
    14    6  133 1    
    15    7    8 1    
    16    8    9 1    
    17    8  134 1    
    18    8  135 1    
    19    9   10 ar   
    20    9   14 ar   
    21   10   11 ar   
    22   10  136 1    
    23   11   12 ar   
    24   11  126 1    
    25   12   13 ar   
    26   12  137 1    
    27   13   14 ar   
    28   13   15 1    
    29   14  138 1    
    30   15   16 1    
    31   15  139 1    
    32   15  140 1    
    33   16   17 1    
    34   17   18 1    
    35   17  141 1    
    36   17  142 1    
    37   18   19 1    
    38   18   67 1    
    39   18  143 1    
    40   19   20 am   BACKBONE|DICT|INTERRES
    41   19  144 1    
    42   20   21 2    
    43   20   22 1    
    44   22   23 1    
    45   22   24 1    
    46   22  145 1    
    47   23  146 1    
    48   23  147 1    
    49   23  148 1    
    50   24   25 am   BACKBONE|DICT|INTERRES
    51   24  149 1    
    52   25   26 2    
    53   25   27 1    
    54   27   28 1    
    55   27   29 1    
    56   27  150 1    
    57   28  151 1    
    58   28  152 1    
    59   28  153 1    
    60   29   30 am   BACKBONE|DICT|INTERRES
    61   29  154 1    
    62   30   31 2    
    63   30   32 1    
    64   32   33 1    
    65   32   34 1    
    66   32  155 1    
    67   33  156 1    
    68   33  157 1    
    69   33  158 1    
    70   34   35 am   BACKBONE|DICT|INTERRES
    71   34  159 1    
    72   35   36 2    
    73   35   37 1    
    74   37   38 1    
    75   37   39 1    
    76   37  160 1    
    77   38  161 1    
    78   38  162 1    
    79   38  163 1    
    80   39   40 am   BACKBONE|DICT|INTERRES
    81   39  164 1    
    82   40   41 2    
    83   40   42 1    
    84   42   43 1    
    85   42   44 1    
    86   42  165 1    
    87   43  166 1    
    88   43  167 1    
    89   43  168 1    
    90   44   45 am   BACKBONE|DICT|INTERRES
    91   44  169 1    
    92   45   46 2    
    93   45   47 1    
    94   47   48 1    
    95   47   49 1    
    96   47  170 1    
    97   48  171 1    
    98   48  172 1    
    99   48  173 1    
   100   49   50 am   BACKBONE|DICT|INTERRES
   101   49  174 1    
   102   50   51 2    
   103   50   52 1    
   104   52   53 1    
   105   52   54 1    
   106   52  175 1    
   107   53  176 1    
   108   53  177 1    
   109   53  178 1    
   110   54   55 am   BACKBONE|DICT|INTERRES
   111   54  179 1    
   112   55   56 2    
   113   55   57 1    
   114   57   58 1    
   115   57   59 1    
   116   57  180 1    
   117   58  181 1    
   118   58  182 1    
   119   58  183 1    
   120   59   60 am   BACKBONE|DICT|INTERRES
   121   59  184 1    
   122   60   61 2    
   123   60   62 1    
   124   62   63 1    
   125   62   64 1    
   126   62  185 1    
   127   63  186 1    
   128   63  187 1    
   129   63  188 1    
   130   64   65 am   BACKBONE|DICT|INTERRES
   131   64  189 1    
   132   65   66 2    
   133   67   68 2    
   134   67   69 am   BACKBONE|DICT|INTERRES
   135   69   70 1    
   136   69  190 1    
   137   70   71 1    
   138   70   72 1    
   139   70  191 1    
   140   71  192 1    
   141   71  193 1    
   142   71  194 1    
   143   72   73 2    
   144   72   74 am   BACKBONE|DICT|INTERRES
   145   74   75 1    
   146   74  195 1    
   147   75   76 1    
   148   75   77 1    
   149   75  196 1    
   150   76  197 1    
   151   76  198 1    
   152   76  199 1    
   153   77   78 2    
   154   77   79 am   BACKBONE|DICT|INTERRES
   155   79   80 1    
   156   79  200 1    
   157   80   81 1    
   158   80   82 1    
   159   80  201 1    
   160   81  202 1    
   161   81  203 1    
   162   81  204 1    
   163   82   83 2    
   164   82   84 am   BACKBONE|DICT|INTERRES
   165   84   85 1    
   166   84  205 1    
   167   85   86 1    
   168   85   87 1    
   169   85  206 1    
   170   86  207 1    
   171   86  208 1    
   172   86  209 1    
   173   87   88 2    
   174   87   89 am   BACKBONE|DICT|INTERRES
   175   89   90 1    
   176   89  210 1    
   177   90   91 1    
   178   90   92 1    
   179   90  211 1    
   180   91  212 1    
   181   91  213 1    
   182   91  214 1    
   183   92   93 2    
   184   92   94 am   BACKBONE|DICT|INTERRES
   185   94   95 1    
   186   94  215 1    
   187   95   96 1    
   188   95   97 1    
   189   95  216 1    
   190   96  217 1    
   191   96  218 1    
   192   96  219 1    
   193   97   98 2    
   194   97   99 am   BACKBONE|DICT|INTERRES
   195   99  100 1    
   196   99  220 1    
   197  100  101 1    
   198  100  102 1    
   199  100  221 1    
   200  101  222 1    
   201  101  223 1    
   202  101  224 1    
   203  102  103 2    
   204  102  104 am   BACKBONE|DICT|INTERRES
   205  104  105 1    
   206  104  225 1    
   207  105  106 1    
   208  105  107 1    
   209  105  226 1    
   210  106  227 1    
   211  106  228 1    
   212  106  229 1    
   213  107  108 2    
   214  107  109 am   BACKBONE|DICT|INTERRES
   215  109  110 1    
   216  109  230 1    
   217  110  111 1    
   218  110  112 1    
   219  110  231 1    
   220  111  232 1    
   221  111  233 1    
   222  111  234 1    
   223  112  113 2    
   224  112  114 am   BACKBONE|DICT|INTERRES
   225  114  115 1    
   226  114  235 1    
   227  115  116 1    
   228  115  117 1    
   229  115  236 1    
   230  116  237 1    
   231  116  238 1    
   232  116  239 1    
   233  117  118 2    
   234  117  119 am   BACKBONE|DICT|INTERRES
   235  119  120 1    
   236  119  240 1    
   237  120  121 1    
   238  120  124 1    
   239  120  241 1    
   240  121  122 am   BACKBONE|DICT|INTERRES
   241  121  123 2    
   242  122  242 1    
   243  122  243 1    
   244  124  125 1    
   245  124  244 1    
   246  124  245 1    
   247  125  126 1    
   248  126  246 1    
   249  126  247 1    
@<TRIPOS>SUBSTRUCTURE
     1 UNK         1 GROUP             0       ****    0 ROOT    
