@<TRIPOS>MOLECULE
3R540
247   249    1
SMALL
USER_CHARGES


@<TRIPOS>ATOM
      1 CA          6.1734  -12.8767  -46.1071 C.3       0 UNK        -0.1800 
      2 C           6.8060  -12.7017  -47.4870 C.2       0 UNK         0.5000 
      3 O           7.9475  -12.2529  -47.5737 O.2       0 UNK        -0.5000 
      4 N           6.1260  -13.0521  -48.5870 N.am      1 UNK        -0.5000 
      5 CA          4.7367  -13.5167  -48.6579 C.3       1 UNK         0.1400 
      6 C6          4.4250  -14.1881  -50.0194 C.3       23 UNK        -0.0398 
      7 S7          5.3507  -15.7403  -50.2834 S.3       23 UNK        -0.2404 
      8 C8          4.4949  -16.9131  -49.1783 C.3       23 UNK        -0.0205 
      9 C9          3.1174  -17.3183  -49.6842 C.ar      23 UNK        -0.0193 
     10 C10         1.9890  -16.5613  -49.3533 C.ar      23 UNK        -0.1150 
     11 C11         0.7199  -16.9466  -49.7921 C.ar      23 UNK        -0.0193 
     12 C12         0.5805  -18.1163  -50.5439 C.ar      23 UNK        -0.1150 
     13 C13         1.6964  -18.8916  -50.8682 C.ar      23 UNK        -0.0193 
     14 C14         2.9641  -18.4805  -50.4464 C.ar      23 UNK        -0.1150 
     15 C15         1.5312  -20.1772  -51.6649 C.3       23 UNK        -0.0205 
     16 S16         1.5668  -21.6501  -50.5938 S.3       23 UNK        -0.2404 
     17 C17         0.0129  -21.4568  -49.6591 C.3       23 UNK        -0.0398 
     18 CA         -0.1866  -22.5780  -48.6136 C.3       11 UNK         0.1400 
     19 N           0.8875  -22.6239  -47.6118 N.am      11 UNK        -0.5000 
     20 C           0.9969  -23.5429  -46.6413 C.2       10 UNK         0.5000 
     21 O           0.1730  -24.4398  -46.4680 O.2       10 UNK        -0.5000 
     22 CA          2.2079  -23.4586  -45.6910 C.3       10 UNK         0.1400 
     23 CB          3.0826  -24.7135  -45.8377 C.3       10 UNK        -0.1800 
     24 N           3.0524  -22.2812  -45.9120 N.am      10 UNK        -0.5000 
     25 C           2.8942  -21.0407  -45.4289 C.2       9 UNK         0.5000 
     26 O           3.7182  -20.1620  -45.6805 O.2       9 UNK        -0.5000 
     27 CA          1.6910  -20.7019  -44.5144 C.3       9 UNK         0.1400 
     28 CB          2.0644  -20.8805  -43.0350 C.3       9 UNK        -0.1800 
     29 N           1.2486  -19.3246  -44.7200 N.am      9 UNK        -0.5000 
     30 C           0.6651  -18.8761  -45.8379 C.2       8 UNK         0.5000 
     31 O           0.2895  -19.6231  -46.7414 O.2       8 UNK        -0.5000 
     32 CA          0.4439  -17.3585  -45.9723 C.3       8 UNK         0.1400 
     33 CB         -1.0495  -17.0116  -45.8894 C.3       8 UNK        -0.1800 
     34 N           1.1648  -16.5688  -44.9773 N.am      8 UNK        -0.5000 
     35 C           2.4741  -16.2911  -44.9965 C.2       7 UNK         0.5000 
     36 O           3.2463  -16.6770  -45.8716 O.2       7 UNK        -0.5000 
     37 CA          3.0143  -15.4366  -43.8375 C.3       7 UNK         0.1400 
     38 CB          2.9329  -13.9441  -44.1883 C.3       7 UNK        -0.1800 
     39 N           2.2721  -15.6716  -42.5994 N.am      7 UNK        -0.5000 
     40 C           2.5883  -16.5920  -41.6800 C.2       6 UNK         0.5000 
     41 O           3.5685  -17.3323  -41.7628 O.2       6 UNK        -0.5000 
     42 CA          1.6552  -16.7078  -40.4578 C.3       6 UNK         0.1400 
     43 CB          2.1570  -15.8131  -39.3141 C.3       6 UNK        -0.1800 
     44 N           0.2633  -16.3638  -40.7554 N.am      6 UNK        -0.5000 
     45 C          -0.5624  -17.1245  -41.4862 C.2       5 UNK         0.5000 
     46 O          -0.2428  -18.2114  -41.9674 O.2       5 UNK        -0.5000 
     47 CA         -1.9753  -16.5652  -41.7511 C.3       5 UNK         0.1400 
     48 CB         -2.9344  -16.9868  -40.6277 C.3       5 UNK        -0.1800 
     49 N          -2.0618  -15.1090  -41.9368 N.am      5 UNK        -0.5000 
     50 C          -1.3455  -14.3940  -42.8145 C.2       4 UNK         0.5000 
     51 O          -0.3859  -14.8442  -43.4381 O.2       4 UNK        -0.5000 
     52 CA         -1.7439  -12.9231  -43.0284 C.3       4 UNK         0.1400 
     53 CB         -0.8090  -11.9977  -42.2353 C.3       4 UNK        -0.1800 
     54 N          -1.6757  -12.5654  -44.4477 N.am      4 UNK        -0.5000 
     55 C          -2.4503  -13.0924  -45.4076 C.2       3 UNK         0.5000 
     56 O          -3.3956  -13.8473  -45.1753 O.2       3 UNK        -0.5000 
     57 CA         -2.1404  -12.7141  -46.8716 C.3       3 UNK         0.1400 
     58 CB         -3.2570  -11.8314  -47.4517 C.3       3 UNK        -0.1800 
     59 N          -0.8560  -12.0339  -47.0680 N.am      3 UNK        -0.5000 
     60 C           0.3354  -12.6423  -47.0510 C.2       2 UNK         0.5000 
     61 O           0.4933  -13.8382  -46.7975 O.2       2 UNK        -0.5000 
     62 CA          1.5562  -11.7704  -47.3770 C.3       2 UNK         0.1400 
     63 CB          1.9239  -10.8467  -46.2008 C.3       2 UNK        -0.1800 
     64 N           2.6657  -12.6631  -47.6882 N.am      2 UNK        -0.5000 
     65 C           3.7534  -12.3576  -48.3996 C.2       1 UNK         0.5000 
     66 O           3.9853  -11.2367  -48.8581 O.2       1 UNK        -0.5000 
     67 C          -1.5831  -22.4764  -47.9698 C.2       11 UNK         0.5000 
     68 O          -2.4858  -23.2070  -48.3743 O.2       11 UNK        -0.5000 
     69 N          -1.7243  -21.6217  -46.9465 N.am      12 UNK        -0.5000 
     70 CA         -2.9336  -21.4702  -46.1308 C.3       12 UNK         0.1400 
     71 CB         -2.7087  -20.3756  -45.0781 C.3       12 UNK        -0.1800 
     72 C          -3.3946  -22.7772  -45.4572 C.2       12 UNK         0.5000 
     73 O          -4.5896  -23.0740  -45.4689 O.2       12 UNK        -0.5000 
     74 N          -2.4368  -23.5526  -44.9285 N.am      13 UNK        -0.5000 
     75 CA         -2.6726  -24.8616  -44.3125 C.3       13 UNK         0.1400 
     76 CB         -1.4292  -25.2874  -43.5164 C.3       13 UNK        -0.1800 
     77 C          -3.0682  -25.9403  -45.3397 C.2       13 UNK         0.5000 
     78 O          -3.8217  -26.8530  -45.0022 O.2       13 UNK        -0.5000 
     79 N          -2.6086  -25.7835  -46.5877 N.am      14 UNK        -0.5000 
     80 CA         -2.9721  -26.5926  -47.7523 C.3       14 UNK         0.1400 
     81 CB         -1.7797  -26.6147  -48.7261 C.3       14 UNK        -0.1800 
     82 C          -4.2713  -26.0985  -48.4308 C.2       14 UNK         0.5000 
     83 O          -4.3971  -26.1921  -49.6533 O.2       14 UNK        -0.5000 
     84 N          -5.2108  -25.5647  -47.6348 N.am      15 UNK        -0.5000 
     85 CA         -6.5195  -25.0314  -48.0286 C.3       15 UNK         0.1400 
     86 CB         -7.4421  -26.1684  -48.5159 C.3       15 UNK        -0.1800 
     87 C          -6.4099  -23.8721  -49.0391 C.2       15 UNK         0.5000 
     88 O          -7.1328  -23.8481  -50.0356 O.2       15 UNK        -0.5000 
     89 N          -5.4716  -22.9519  -48.7764 N.am      16 UNK        -0.5000 
     90 CA         -5.0950  -21.8150  -49.6252 C.3       16 UNK         0.1400 
     91 CB         -6.2465  -20.7948  -49.7098 C.3       16 UNK        -0.1800 
     92 C          -4.5578  -22.2713  -50.9995 C.2       16 UNK         0.5000 
     93 O          -4.9416  -21.7293  -52.0363 O.2       16 UNK        -0.5000 
     94 N          -3.7004  -23.3025  -50.9634 N.am      17 UNK        -0.5000 
     95 CA         -3.1605  -24.0671  -52.0923 C.3       17 UNK         0.1400 
     96 CB         -2.1717  -23.2092  -52.9082 C.3       17 UNK        -0.1800 
     97 C          -4.2834  -24.6750  -52.9580 C.2       17 UNK         0.5000 
     98 O          -4.2905  -24.4964  -54.1752 O.2       17 UNK        -0.5000 
     99 N          -5.2492  -25.3312  -52.2980 N.am      18 UNK        -0.5000 
    100 CA        -6.5102  -25.8354  -52.8586 C.3       18 UNK         0.1400 
    101 CB        -6.2505  -27.0533  -53.7688 C.3       18 UNK        -0.1800 
    102 C         -7.3327  -24.7223  -53.5501 C.2       18 UNK         0.5000 
    103 O         -7.8295  -24.9073  -54.6625 O.2       18 UNK        -0.5000 
    104 N         -7.4212  -23.5713  -52.8699 N.am      19 UNK        -0.5000 
    105 CA        -8.0587  -22.3133  -53.2706 C.3       19 UNK         0.1400 
    106 CB        -9.5821  -22.5021  -53.4244 C.3       19 UNK        -0.1800 
    107 C         -7.4241  -21.6128  -54.4945 C.2       19 UNK         0.5000 
    108 O         -8.0425  -20.7006  -55.0469 O.2       19 UNK        -0.5000 
    109 N         -6.2134  -22.0189  -54.9022 N.am      20 UNK        -0.5000 
    110 CA        -5.4929  -21.4351  -56.0361 C.3       20 UNK         0.1400 
    111 CB        -4.5854  -22.5025  -56.6664 C.3       20 UNK        -0.1800 
    112 C         -4.6637  -20.1927  -55.6581 C.2       20 UNK         0.5000 
    113 O         -4.2632  -19.4539  -56.5595 O.2       20 UNK        -0.5000 
    114 N         -4.3978  -19.9857  -54.3627 N.am      21 UNK        -0.5000 
    115 CA        -3.5749  -18.8974  -53.8392 C.3       21 UNK         0.1400 
    116 CB        -2.1767  -19.4551  -53.5010 C.3       21 UNK        -0.1800 
    117 C         -4.2488  -18.2519  -52.6160 C.2       21 UNK         0.5000 
    118 O         -5.4122  -18.5305  -52.3215 O.2       21 UNK        -0.5000 
    119 N         -3.4955  -17.3891  -51.9264 N.am      22 UNK        -0.5000 
    120 CA        -3.8449  -16.7866  -50.6294 C.3       22 UNK         0.1400 
    121 C         -3.6925  -17.7461  -49.4112 C.2       22 UNK         0.5000 
    122 N         -3.0366  -18.8937  -49.5416 N.am      22 UNK        -0.7600 
    123 O         -4.1683  -17.4371  -48.3236 O.2       22 UNK        -0.5000 
    124 C124       -3.0885  -15.4450  -50.3949 C.3       23 UNK        -0.0398 
    125 S125       -1.3289  -15.4581  -50.9033 S.3       23 UNK        -0.2404 
    126 C126       -0.5075  -16.1274  -49.4250 C.3       23 UNK        -0.0205 
    127 H127        5.8260  -13.8991  -45.9602 H         1 UNK         0.0600 
    128 H128        6.9028  -12.6646  -45.3251 H         1 UNK         0.0600 
    129 H129        5.3366  -12.1920  -45.9712 H         1 UNK         0.0600 
    130 H130        6.5725  -12.9218  -49.4829 H         1 UNK         0.3000 
    131 H131        4.5855  -14.2575  -47.8723 H         1 UNK         0.0600 
    132 H132        3.3608  -14.3888  -50.1357 H         1 UNK         0.0800 
    133 H133        4.6758  -13.5088  -50.8362 H         1 UNK         0.0800 
    134 H134        5.1188  -17.8021  -49.0744 H         1 UNK         0.0800 
    135 H135        4.4189  -16.4957  -48.1758 H         1 UNK         0.0800 
    136 H136        2.0946  -15.6800  -48.7374 H         1 UNK         0.1150 
    137 H137       -0.4016  -18.4262  -50.8685 H         1 UNK         0.1150 
    138 H138        3.8293  -19.0796  -50.6935 H         1 UNK         0.1150 
    139 H139        0.6014  -20.1637  -52.2356 H         1 UNK         0.0800 
    140 H140        2.3359  -20.2546  -52.3974 H         1 UNK         0.0800 
    141 H141       -0.8114  -21.4452  -50.3740 H         1 UNK         0.0800 
    142 H142        0.0132  -20.4816  -49.1724 H         1 UNK         0.0800 
    143 H143       -0.1591  -23.5318  -49.1449 H         1 UNK         0.0600 
    144 H144        1.5964  -21.9086  -47.6897 H         1 UNK         0.3000 
    145 H145        1.8236  -23.4485  -44.6701 H         1 UNK         0.0600 
    146 H146        3.4939  -24.8030  -46.8440 H         1 UNK         0.0600 
    147 H147        3.9155  -24.6986  -45.1343 H         1 UNK         0.0600 
    148 H148        2.5086  -25.6194  -45.6366 H         1 UNK         0.0600 
    149 H149        3.8559  -22.4463  -46.5002 H         1 UNK         0.3000 
    150 H150        0.8446  -21.3494  -44.7429 H         1 UNK         0.0600 
    151 H151        2.3883  -21.9010  -42.8289 H         1 UNK         0.0600 
    152 H152        1.2130  -20.6721  -42.3865 H         1 UNK         0.0600 
    153 H153        2.8766  -20.2129  -42.7433 H         1 UNK         0.0600 
    154 H154        1.5136  -18.6486  -44.0189 H         1 UNK         0.3000 
    155 H155        0.8045  -17.0688  -46.9571 H         1 UNK         0.0600 
    156 H156       -1.6220  -17.5475  -46.6468 H         1 UNK         0.0600 
    157 H157       -1.2149  -15.9469  -46.0545 H         1 UNK         0.0600 
    158 H158       -1.4657  -17.2668  -44.9152 H         1 UNK         0.0600 
    159 H159        0.5909  -16.1007  -44.2797 H         1 UNK         0.3000 
    160 H160        4.0660  -15.6932  -43.6930 H         1 UNK         0.0600 
    161 H161        1.9001  -13.6212  -44.3222 H         1 UNK         0.0600 
    162 H162        3.4656  -13.7315  -45.1145 H         1 UNK         0.0600 
    163 H163        3.3785  -13.3290  -43.4066 H         1 UNK         0.0600 
    164 H164        1.4001  -15.1649  -42.5025 H         1 UNK         0.3000 
    165 H165        1.6863  -17.7449  -40.1167 H         1 UNK         0.0600 
    166 H166        1.5513  -15.9424  -38.4170 H         1 UNK         0.0600 
    167 H167        3.1859  -16.0595  -39.0483 H         1 UNK         0.0600 
    168 H168        2.1324  -14.7576  -39.5880 H         1 UNK         0.0600 
    169 H169       -0.0782  -15.4812  -40.4041 H         1 UNK         0.3000 
    170 H170       -2.3274  -17.0224  -42.6774 H         1 UNK         0.0600 
    171 H171       -2.6714  -16.5189  -39.6782 H         1 UNK         0.0600 
    172 H172       -3.9635  -16.7150  -40.8634 H         1 UNK         0.0600 
    173 H173       -2.9125  -18.0673  -40.4787 H         1 UNK         0.0600 
    174 H174       -2.8142  -14.6489  -41.4450 H         1 UNK         0.3000 
    175 H175       -2.7690  -12.7739  -42.6835 H         1 UNK         0.0600 
    176 H176       -0.8484  -12.2227  -41.1687 H         1 UNK         0.0600 
    177 H177        0.2288  -12.1036  -42.5551 H         1 UNK         0.0600 
    178 H178       -1.0924  -10.9521  -42.3567 H         1 UNK         0.0600 
    179 H179       -0.9051  -11.9803  -44.7305 H         1 UNK         0.3000 
    180 H180       -2.1210  -13.6467  -47.4400 H         1 UNK         0.0600 
    181 H181       -3.0911  -11.6304  -48.5103 H         1 UNK         0.0600 
    182 H182       -3.3233  -10.8744  -46.9327 H         1 UNK         0.0600 
    183 H183       -4.2286  -12.3197  -47.3655 H         1 UNK         0.0600 
    184 H184       -0.9011  -11.0460  -47.2736 H         1 UNK         0.3000 
    185 H185        1.3218  -11.1697  -48.2584 H         1 UNK         0.0600 
    186 H186        1.1043  -10.1682  -45.9621 H         1 UNK         0.0600 
    187 H187        2.1550  -11.4112  -45.2981 H         1 UNK         0.0600 
    188 H188        2.7912  -10.2304  -46.4376 H         1 UNK         0.0600 
    189 H189        2.4964  -13.6130  -47.3785 H         1 UNK         0.3000 
    190 H190       -0.9414  -21.0088  -46.7271 H         1 UNK         0.3000 
    191 H191       -3.7403  -21.1414  -46.7878 H         1 UNK         0.0600 
    192 H192       -1.8372  -20.5818  -44.4553 H         1 UNK         0.0600 
    193 H193       -3.5715  -20.2795  -44.4177 H         1 UNK         0.0600 
    194 H194       -2.5622  -19.4080  -45.5535 H         1 UNK         0.0600 
    195 H195       -1.4742  -23.2656  -45.0224 H         1 UNK         0.3000 
    196 H196       -3.5022  -24.7579  -43.6099 H         1 UNK         0.0600 
    197 H197       -1.6085  -26.2266  -42.9917 H         1 UNK         0.0600 
    198 H198       -1.1659  -24.5421  -42.7657 H         1 UNK         0.0600 
    199 H199       -0.5632  -25.4364  -44.1610 H         1 UNK         0.0600 
    200 H200       -1.9872  -25.0045  -46.7690 H         1 UNK         0.3000 
    201 H201       -3.1544  -27.6189  -47.4279 H         1 UNK         0.0600 
    202 H202       -0.8702  -26.9519  -48.2283 H         1 UNK         0.0600 
    203 H203       -1.5836  -25.6282  -49.1456 H         1 UNK         0.0600 
    204 H204       -1.9641  -27.2946  -49.5586 H         1 UNK         0.0600 
    205 H205       -5.0019  -25.5122  -46.6472 H         1 UNK         0.3000 
    206 H206       -6.9639  -24.6076  -47.1270 H         1 UNK         0.0600 
    207 H207       -7.5234  -26.9570  -47.7679 H         1 UNK         0.0600 
    208 H208       -8.4503  -25.7990  -48.7074 H         1 UNK         0.0600 
    209 H209       -7.0788  -26.6195  -49.4396 H         1 UNK         0.0600 
    210 H210       -4.8880  -23.1035  -47.9642 H         1 UNK         0.3000 
    211 H211       -4.2637  -21.3213  -49.1259 H         1 UNK         0.0600 
    212 H212       -7.1037  -21.1864  -50.2559 H         1 UNK         0.0600 
    213 H213       -5.9225  -19.8865  -50.2140 H         1 UNK         0.0600 
    214 H214       -6.5865  -20.5037  -48.7162 H         1 UNK         0.0600 
    215 H215       -3.4369  -23.6405  -50.0428 H         1 UNK         0.3000 
    216 H216       -2.6060  -24.9040  -51.6653 H         1 UNK         0.0600 
    217 H217       -1.6791  -23.8084  -53.6745 H         1 UNK         0.0600 
    218 H218       -1.3910  -22.7902  -52.2747 H         1 UNK         0.0600 
    219 H219       -2.6755  -22.3867  -53.4157 H         1 UNK         0.0600 
    220 H220       -5.1265  -25.4625  -51.2970 H         1 UNK         0.3000 
    221 H221       -7.1076  -26.1759  -52.0118 H         1 UNK         0.0600 
    222 H222       -5.6880  -26.7800  -54.6620 H         1 UNK         0.0600 
    223 H223       -5.6893  -27.8250  -53.2420 H         1 UNK         0.0600 
    224 H224       -7.1886  -27.5018  -54.0975 H         1 UNK         0.0600 
    225 H225       -7.0170  -23.5589  -51.9369 H         1 UNK         0.3000 
    226 H226       -7.9004  -21.6302  -52.4361 H         1 UNK         0.0600 
    227 H227       -9.8282  -23.1210  -54.2875 H         1 UNK         0.0600 
    228 H228      -10.0118  -22.9721  -52.5397 H         1 UNK         0.0600 
    229 H229      -10.0860  -21.5440  -53.5561 H         1 UNK         0.0600 
    230 H230       -5.7451  -22.7608  -54.3958 H         1 UNK         0.3000 
    231 H231       -6.2153  -21.1296  -56.7959 H         1 UNK         0.0600 
    232 H232       -4.1673  -22.1481  -57.6093 H         1 UNK         0.0600 
    233 H233       -5.1353  -23.4200  -56.8776 H         1 UNK         0.0600 
    234 H234       -3.7470  -22.7522  -56.0158 H         1 UNK         0.0600 
    235 H235       -4.7990  -20.6030  -53.6602 H         1 UNK         0.3000 
    236 H236       -3.4681  -18.1099  -54.5876 H         1 UNK         0.0600 
    237 H237       -1.4754  -18.6581  -53.2527 H         1 UNK         0.0600 
    238 H238       -2.2129  -20.1417  -52.6546 H         1 UNK         0.0600 
    239 H239       -1.7527  -19.9949  -54.3480 H         1 UNK         0.0600 
    240 H240       -2.5643  -17.1744  -52.2534 H         1 UNK         0.3000 
    241 H241       -4.9091  -16.5455  -50.6617 H         1 UNK         0.0600 
    242 H242       -2.9160  -19.4706  -48.7273 H         1 UNK         0.3800 
    243 H243       -2.6536  -19.1629  -50.4301 H         1 UNK         0.3800 
    244 H244       -3.5742  -14.6685  -50.9871 H         1 UNK         0.0800 
    245 H245       -3.1713  -15.1050  -49.3607 H         1 UNK         0.0800 
    246 H246       -0.2460  -15.2999  -48.7673 H         1 UNK         0.0800 
    247 H247       -1.1838  -16.7632  -48.8591 H         1 UNK         0.0800 
@<TRIPOS>BOND
     1    1    2 1    
     2    1  127 1    
     3    1  128 1    
     4    1  129 1    
     5    2    3 2    
     6    2    4 am   BACKBONE|DICT|INTERRES
     7    4    5 1    
     8    4  130 1    
     9    5    6 1    
    10    5   65 1    
    11    5  131 1    
    12    6    7 1    
    13    6  132 1    
    14    6  133 1    
    15    7    8 1    
    16    8    9 1    
    17    8  134 1    
    18    8  135 1    
    19    9   10 ar   
    20    9   14 ar   
    21   10   11 ar   
    22   10  136 1    
    23   11   12 ar   
    24   11  126 1    
    25   12   13 ar   
    26   12  137 1    
    27   13   14 ar   
    28   13   15 1    
    29   14  138 1    
    30   15   16 1    
    31   15  139 1    
    32   15  140 1    
    33   16   17 1    
    34   17   18 1    
    35   17  141 1    
    36   17  142 1    
    37   18   19 1    
    38   18   67 1    
    39   18  143 1    
    40   19   20 am   BACKBONE|DICT|INTERRES
    41   19  144 1    
    42   20   21 2    
    43   20   22 1    
    44   22   23 1    
    45   22   24 1    
    46   22  145 1    
    47   23  146 1    
    48   23  147 1    
    49   23  148 1    
    50   24   25 am   BACKBONE|DICT|INTERRES
    51   24  149 1    
    52   25   26 2    
    53   25   27 1    
    54   27   28 1    
    55   27   29 1    
    56   27  150 1    
    57   28  151 1    
    58   28  152 1    
    59   28  153 1    
    60   29   30 am   BACKBONE|DICT|INTERRES
    61   29  154 1    
    62   30   31 2    
    63   30   32 1    
    64   32   33 1    
    65   32   34 1    
    66   32  155 1    
    67   33  156 1    
    68   33  157 1    
    69   33  158 1    
    70   34   35 am   BACKBONE|DICT|INTERRES
    71   34  159 1    
    72   35   36 2    
    73   35   37 1    
    74   37   38 1    
    75   37   39 1    
    76   37  160 1    
    77   38  161 1    
    78   38  162 1    
    79   38  163 1    
    80   39   40 am   BACKBONE|DICT|INTERRES
    81   39  164 1    
    82   40   41 2    
    83   40   42 1    
    84   42   43 1    
    85   42   44 1    
    86   42  165 1    
    87   43  166 1    
    88   43  167 1    
    89   43  168 1    
    90   44   45 am   BACKBONE|DICT|INTERRES
    91   44  169 1    
    92   45   46 2    
    93   45   47 1    
    94   47   48 1    
    95   47   49 1    
    96   47  170 1    
    97   48  171 1    
    98   48  172 1    
    99   48  173 1    
   100   49   50 am   BACKBONE|DICT|INTERRES
   101   49  174 1    
   102   50   51 2    
   103   50   52 1    
   104   52   53 1    
   105   52   54 1    
   106   52  175 1    
   107   53  176 1    
   108   53  177 1    
   109   53  178 1    
   110   54   55 am   BACKBONE|DICT|INTERRES
   111   54  179 1    
   112   55   56 2    
   113   55   57 1    
   114   57   58 1    
   115   57   59 1    
   116   57  180 1    
   117   58  181 1    
   118   58  182 1    
   119   58  183 1    
   120   59   60 am   BACKBONE|DICT|INTERRES
   121   59  184 1    
   122   60   61 2    
   123   60   62 1    
   124   62   63 1    
   125   62   64 1    
   126   62  185 1    
   127   63  186 1    
   128   63  187 1    
   129   63  188 1    
   130   64   65 am   BACKBONE|DICT|INTERRES
   131   64  189 1    
   132   65   66 2    
   133   67   68 2    
   134   67   69 am   BACKBONE|DICT|INTERRES
   135   69   70 1    
   136   69  190 1    
   137   70   71 1    
   138   70   72 1    
   139   70  191 1    
   140   71  192 1    
   141   71  193 1    
   142   71  194 1    
   143   72   73 2    
   144   72   74 am   BACKBONE|DICT|INTERRES
   145   74   75 1    
   146   74  195 1    
   147   75   76 1    
   148   75   77 1    
   149   75  196 1    
   150   76  197 1    
   151   76  198 1    
   152   76  199 1    
   153   77   78 2    
   154   77   79 am   BACKBONE|DICT|INTERRES
   155   79   80 1    
   156   79  200 1    
   157   80   81 1    
   158   80   82 1    
   159   80  201 1    
   160   81  202 1    
   161   81  203 1    
   162   81  204 1    
   163   82   83 2    
   164   82   84 am   BACKBONE|DICT|INTERRES
   165   84   85 1    
   166   84  205 1    
   167   85   86 1    
   168   85   87 1    
   169   85  206 1    
   170   86  207 1    
   171   86  208 1    
   172   86  209 1    
   173   87   88 2    
   174   87   89 am   BACKBONE|DICT|INTERRES
   175   89   90 1    
   176   89  210 1    
   177   90   91 1    
   178   90   92 1    
   179   90  211 1    
   180   91  212 1    
   181   91  213 1    
   182   91  214 1    
   183   92   93 2    
   184   92   94 am   BACKBONE|DICT|INTERRES
   185   94   95 1    
   186   94  215 1    
   187   95   96 1    
   188   95   97 1    
   189   95  216 1    
   190   96  217 1    
   191   96  218 1    
   192   96  219 1    
   193   97   98 2    
   194   97   99 am   BACKBONE|DICT|INTERRES
   195   99  100 1    
   196   99  220 1    
   197  100  101 1    
   198  100  102 1    
   199  100  221 1    
   200  101  222 1    
   201  101  223 1    
   202  101  224 1    
   203  102  103 2    
   204  102  104 am   BACKBONE|DICT|INTERRES
   205  104  105 1    
   206  104  225 1    
   207  105  106 1    
   208  105  107 1    
   209  105  226 1    
   210  106  227 1    
   211  106  228 1    
   212  106  229 1    
   213  107  108 2    
   214  107  109 am   BACKBONE|DICT|INTERRES
   215  109  110 1    
   216  109  230 1    
   217  110  111 1    
   218  110  112 1    
   219  110  231 1    
   220  111  232 1    
   221  111  233 1    
   222  111  234 1    
   223  112  113 2    
   224  112  114 am   BACKBONE|DICT|INTERRES
   225  114  115 1    
   226  114  235 1    
   227  115  116 1    
   228  115  117 1    
   229  115  236 1    
   230  116  237 1    
   231  116  238 1    
   232  116  239 1    
   233  117  118 2    
   234  117  119 am   BACKBONE|DICT|INTERRES
   235  119  120 1    
   236  119  240 1    
   237  120  121 1    
   238  120  124 1    
   239  120  241 1    
   240  121  122 am   BACKBONE|DICT|INTERRES
   241  121  123 2    
   242  122  242 1    
   243  122  243 1    
   244  124  125 1    
   245  124  244 1    
   246  124  245 1    
   247  125  126 1    
   248  126  246 1    
   249  126  247 1    
@<TRIPOS>SUBSTRUCTURE
     1 UNK         1 GROUP             0       ****    0 ROOT    
