@<TRIPOS>MOLECULE
3R540
247   249    1
SMALL
USER_CHARGES


@<TRIPOS>ATOM
      1 CA          4.1001  -17.8958  -46.2294 C.3       0 UNK        -0.1800 
      2 C           4.1607  -16.3813  -46.3548 C.2       0 UNK         0.5000 
      3 O           4.1658  -15.6754  -45.3454 O.2       0 UNK        -0.5000 
      4 N           4.2073  -15.8759  -47.5928 N.am      1 UNK        -0.5000 
      5 CA          4.3279  -14.4466  -47.8948 C.3       1 UNK         0.1400 
      6 C6          4.0426  -14.1273  -49.3826 C.3       23 UNK        -0.0398 
      7 S7          2.4063  -14.7253  -49.9221 S.3       23 UNK        -0.2404 
      8 C8          2.8535  -16.0603  -51.0831 C.3       23 UNK        -0.0205 
      9 C9          1.9657  -17.2842  -50.9122 C.ar      23 UNK        -0.0193 
     10 C10         0.5795  -17.1717  -51.0556 C.ar      23 UNK        -0.1150 
     11 C11        -0.2501  -18.2875  -50.9026 C.ar      23 UNK        -0.0193 
     12 C12         0.3333  -19.5276  -50.6220 C.ar      23 UNK        -0.1150 
     13 C13         1.7186  -19.6615  -50.4881 C.ar      23 UNK        -0.0193 
     14 C14         2.5299  -18.5330  -50.6310 C.ar      23 UNK        -0.1150 
     15 C15         2.3329  -21.0319  -50.2195 C.3       23 UNK        -0.0205 
     16 S16         3.1213  -21.1839  -48.5774 S.3       23 UNK        -0.2404 
     17 C17         1.7768  -20.7339  -47.4294 C.3       23 UNK        -0.0398 
     18 CA          0.9600  -21.9233  -46.8676 C.3       11 UNK         0.1400 
     19 N           0.1580  -21.5151  -45.7105 N.am      11 UNK        -0.5000 
     20 C          -0.5919  -22.3247  -44.9497 C.2       10 UNK         0.5000 
     21 O          -0.6205  -23.5478  -45.0746 O.2       10 UNK        -0.5000 
     22 CA         -1.5133  -21.6489  -43.9167 C.3       10 UNK         0.1400 
     23 CB         -0.7549  -21.3359  -42.6188 C.3       10 UNK        -0.1800 
     24 N          -2.1348  -20.4302  -44.4402 N.am      10 UNK        -0.5000 
     25 C          -3.0102  -20.4073  -45.4561 C.2       9 UNK         0.5000 
     26 O          -3.4458  -21.4243  -45.9959 O.2       9 UNK        -0.5000 
     27 CA         -3.4300  -19.0246  -45.9923 C.3       9 UNK         0.1400 
     28 CB         -4.5706  -18.4304  -45.1544 C.3       9 UNK        -0.1800 
     29 N          -2.3099  -18.0821  -46.0536 N.am      9 UNK        -0.5000 
     30 C          -1.2631  -18.2235  -46.8781 C.2       8 UNK         0.5000 
     31 O          -1.1754  -19.1391  -47.6934 O.2       8 UNK        -0.5000 
     32 CA         -0.0875  -17.2351  -46.7210 C.3       8 UNK         0.1400 
     33 CB         -0.3120  -15.9465  -47.5179 C.3       8 UNK        -0.1800 
     34 N           0.1852  -16.8973  -45.3250 N.am      8 UNK        -0.5000 
     35 C           0.6076  -17.7783  -44.4090 C.2       7 UNK         0.5000 
     36 O           0.8807  -18.9494  -44.6660 O.2       7 UNK        -0.5000 
     37 CA          0.6713  -17.2873  -42.9542 C.3       7 UNK         0.1400 
     38 CB          1.9633  -16.4996  -42.6884 C.3       7 UNK        -0.1800 
     39 N          -0.4981  -16.4750  -42.6144 N.am      7 UNK        -0.5000 
     40 C          -1.7403  -16.9662  -42.4893 C.2       6 UNK         0.5000 
     41 O          -2.0121  -18.1613  -42.5932 O.2       6 UNK        -0.5000 
     42 CA         -2.8732  -15.9522  -42.2455 C.3       6 UNK         0.1400 
     43 CB         -3.0215  -15.6620  -40.7447 C.3       6 UNK        -0.1800 
     44 N          -2.6647  -14.6941  -42.9614 N.am      6 UNK        -0.5000 
     45 C          -2.7088  -14.5531  -44.2944 C.2       5 UNK         0.5000 
     46 O          -3.0003  -15.4614  -45.0716 O.2       5 UNK        -0.5000 
     47 CA         -2.3011  -13.1762  -44.8534 C.3       5 UNK         0.1400 
     48 CB         -3.5224  -12.2518  -44.9591 C.3       5 UNK        -0.1800 
     49 N          -1.2646  -12.5320  -44.0408 N.am      5 UNK        -0.5000 
     50 C          -0.0218  -13.0105  -43.9029 C.2       4 UNK         0.5000 
     51 O           0.4050  -13.9925  -44.5170 O.2       4 UNK        -0.5000 
     52 CA          0.8524  -12.3376  -42.8389 C.3       4 UNK         0.1400 
     53 CB          0.4764  -12.8744  -41.4411 C.3       4 UNK        -0.1800 
     54 N           2.2529  -12.6139  -43.1401 N.am      4 UNK        -0.5000 
     55 C           3.3110  -12.0738  -42.5251 C.2       3 UNK         0.5000 
     56 O           3.2331  -11.2659  -41.5985 O.2       3 UNK        -0.5000 
     57 CA          4.6963  -12.4869  -43.0530 C.3       3 UNK         0.1400 
     58 CB          5.1055  -13.8574  -42.4916 C.3       3 UNK        -0.1800 
     59 N           4.7769  -12.5127  -44.5159 N.am      3 UNK        -0.5000 
     60 C           4.6640  -11.4315  -45.3043 C.2       2 UNK         0.5000 
     61 O           4.4280  -10.3023  -44.8722 O.2       2 UNK        -0.5000 
     62 CA          4.8894  -11.6367  -46.8174 C.3       2 UNK         0.1400 
     63 CB          5.3615  -10.3470  -47.5133 C.3       2 UNK        -0.1800 
     64 N           5.8963  -12.6761  -47.0523 N.am      2 UNK        -0.5000 
     65 C           5.7337  -13.9259  -47.5049 C.2       1 UNK         0.5000 
     66 O           6.7037  -14.6729  -47.6437 O.2       1 UNK        -0.5000 
     67 C           0.0833  -22.5877  -47.9497 C.2       11 UNK         0.5000 
     68 O           0.4261  -23.6705  -48.4230 O.2       11 UNK        -0.5000 
     69 N          -1.0532  -21.9576  -48.2846 N.am      12 UNK        -0.5000 
     70 CA         -2.0445  -22.4724  -49.2313 C.3       12 UNK         0.1400 
     71 CB         -3.1546  -21.4324  -49.4437 C.3       12 UNK        -0.1800 
     72 C          -2.6473  -23.8145  -48.7852 C.2       12 UNK         0.5000 
     73 O          -2.7558  -24.7282  -49.6021 O.2       12 UNK        -0.5000 
     74 N          -2.9900  -23.9192  -47.4939 N.am      13 UNK        -0.5000 
     75 CA         -3.4977  -25.1376  -46.8652 C.3       13 UNK         0.1400 
     76 CB         -3.9799  -24.8220  -45.4415 C.3       13 UNK        -0.1800 
     77 C          -2.4640  -26.2790  -46.8594 C.2       13 UNK         0.5000 
     78 O          -2.8179  -27.4121  -47.1849 O.2       13 UNK        -0.5000 
     79 N          -1.2041  -25.9580  -46.5313 N.am      14 UNK        -0.5000 
     80 CA         -0.0729  -26.8891  -46.5412 C.3       14 UNK         0.1400 
     81 CB          1.1464  -26.2240  -45.8847 C.3       14 UNK        -0.1800 
     82 C           0.2766  -27.3935  -47.9537 C.2       14 UNK         0.5000 
     83 O           0.5741  -28.5768  -48.1212 O.2       14 UNK        -0.5000 
     84 N           0.2031  -26.4968  -48.9463 N.am      15 UNK        -0.5000 
     85 CA          0.3806  -26.8012  -50.3677 C.3       15 UNK         0.1400 
     86 CB          0.6206  -25.4858  -51.1269 C.3       15 UNK        -0.1800 
     87 C          -0.8112  -27.5604  -50.9870 C.2       15 UNK         0.5000 
     88 O          -0.6635  -28.1198  -52.0743 O.2       15 UNK        -0.5000 
     89 N          -1.9643  -27.5428  -50.3012 N.am      16 UNK        -0.5000 
     90 CA         -3.2742  -28.0453  -50.7265 C.3       16 UNK         0.1400 
     91 CB         -3.2589  -29.5808  -50.8751 C.3       16 UNK        -0.1800 
     92 C          -3.7998  -27.3114  -51.9789 C.2       16 UNK         0.5000 
     93 O          -4.3886  -27.9316  -52.8669 O.2       16 UNK        -0.5000 
     94 N          -3.5568  -25.9959  -52.0319 N.am      17 UNK        -0.5000 
     95 CA         -3.9686  -25.1120  -53.1154 C.3       17 UNK         0.1400 
     96 CB         -3.1158  -23.8338  -53.0698 C.3       17 UNK        -0.1800 
     97 C          -5.4619  -24.7703  -52.9971 C.2       17 UNK         0.5000 
     98 O          -5.9143  -24.3777  -51.9196 O.2       17 UNK        -0.5000 
     99 N          -6.1932  -24.8950  -54.1113 N.am      18 UNK        -0.5000 
    100 CA        -7.6040  -24.5124  -54.2095 C.3       18 UNK         0.1400 
    101 CB        -8.2270  -25.1853  -55.4420 C.3       18 UNK        -0.1800 
    102 C         -7.7886  -22.9848  -54.2764 C.2       18 UNK         0.5000 
    103 O         -8.7805  -22.4641  -53.7655 O.2       18 UNK        -0.5000 
    104 N         -6.8142  -22.2883  -54.8770 N.am      19 UNK        -0.5000 
    105 CA        -6.7759  -20.8351  -55.0490 C.3       19 UNK         0.1400 
    106 CB        -5.9533  -20.5119  -56.3094 C.3       19 UNK        -0.1800 
    107 C         -6.2435  -20.1109  -53.7938 C.2       19 UNK         0.5000 
    108 O         -5.4085  -19.2111  -53.9021 O.2       19 UNK        -0.5000 
    109 N         -6.7420  -20.4990  -52.6140 N.am      20 UNK        -0.5000 
    110 CA        -6.3774  -19.9619  -51.3002 C.3       20 UNK         0.1400 
    111 CB        -6.7131  -21.0167  -50.2300 C.3       20 UNK        -0.1800 
    112 C         -7.0296  -18.5900  -51.0115 C.2       20 UNK         0.5000 
    113 O         -7.5984  -18.3857  -49.9377 O.2       20 UNK        -0.5000 
    114 N         -6.9530  -17.6744  -51.9856 N.am      21 UNK        -0.5000 
    115 CA        -7.3954  -16.2845  -51.8674 C.3       21 UNK         0.1400 
    116 CB        -7.5828  -15.6931  -53.2729 C.3       21 UNK        -0.1800 
    117 C         -6.3970  -15.4468  -51.0484 C.2       21 UNK         0.5000 
    118 O         -6.8090  -14.5720  -50.2856 O.2       21 UNK        -0.5000 
    119 N         -5.1048  -15.7507  -51.2140 N.am      22 UNK        -0.5000 
    120 CA        -3.9987  -15.2690  -50.3808 C.3       22 UNK         0.1400 
    121 C         -4.0294  -15.8857  -48.9537 C.2       22 UNK         0.5000 
    122 N         -3.6930  -15.1040  -47.9364 N.am      22 UNK        -0.7600 
    123 O         -4.3250  -17.0630  -48.7688 O.2       22 UNK        -0.5000 
    124 C124       -2.6140  -15.4559  -51.0716 C.3       23 UNK        -0.0398 
    125 S125       -2.4335  -16.9384  -52.1364 S.3       23 UNK        -0.2404 
    126 C126       -1.7737  -18.1960  -50.9927 C.3       23 UNK        -0.0205 
    127 H127        5.0671  -18.2837  -45.9102 H         1 UNK         0.0600 
    128 H128        3.3574  -18.1844  -45.4877 H         1 UNK         0.0600 
    129 H129        3.8369  -18.3657  -47.1772 H         1 UNK         0.0600 
    130 H130        4.2127  -16.4961  -48.3883 H         1 UNK         0.3000 
    131 H131        3.5662  -13.9615  -47.2847 H         1 UNK         0.0600 
    132 H132        4.8249  -14.5336  -50.0256 H         1 UNK         0.0800 
    133 H133        4.0608  -13.0482  -49.5443 H         1 UNK         0.0800 
    134 H134        2.7587  -15.6887  -52.1042 H         1 UNK         0.0800 
    135 H135        3.8990  -16.3427  -50.9567 H         1 UNK         0.0800 
    136 H136        0.1562  -16.2035  -51.2751 H         1 UNK         0.1150 
    137 H137       -0.2983  -20.3952  -50.5022 H         1 UNK         0.1150 
    138 H138        3.6013  -18.6343  -50.5297 H         1 UNK         0.1150 
    139 H139        1.5851  -21.8180  -50.3315 H         1 UNK         0.0800 
    140 H140        3.0865  -21.2315  -50.9823 H         1 UNK         0.0800 
    141 H141        1.1340  -19.9931  -47.8960 H         1 UNK         0.0800 
    142 H142        2.2557  -20.2158  -46.5988 H         1 UNK         0.0800 
    143 H143        1.6640  -22.6768  -46.5087 H         1 UNK         0.0600 
    144 H144        0.1730  -20.5255  -45.4803 H         1 UNK         0.3000 
    145 H145       -2.3129  -22.3524  -43.6763 H         1 UNK         0.0600 
    146 H146       -1.4197  -20.9091  -41.8676 H         1 UNK         0.0600 
    147 H147       -0.3217  -22.2420  -42.1935 H         1 UNK         0.0600 
    148 H148        0.0588  -20.6303  -42.7835 H         1 UNK         0.0600 
    149 H149       -1.8725  -19.5553  -43.9975 H         1 UNK         0.3000 
    150 H150       -3.8015  -19.1660  -47.0096 H         1 UNK         0.0600 
    151 H151       -5.4282  -19.1038  -45.1330 H         1 UNK         0.0600 
    152 H152       -4.9119  -17.4831  -45.5725 H         1 UNK         0.0600 
    153 H153       -4.2659  -18.2541  -44.1235 H         1 UNK         0.0600 
    154 H154       -2.3603  -17.2664  -45.4530 H         1 UNK         0.3000 
    155 H155        0.8031  -17.7193  -47.1266 H         1 UNK         0.0600 
    156 H156        0.5793  -15.3192  -47.5041 H         1 UNK         0.0600 
    157 H157       -0.5387  -16.1701  -48.5592 H         1 UNK         0.0600 
    158 H158       -1.1344  -15.3609  -47.1122 H         1 UNK         0.0600 
    159 H159        0.0317  -15.9346  -45.0445 H         1 UNK         0.3000 
    160 H160        0.6754  -18.1655  -42.3051 H         1 UNK         0.0600 
    161 H161        2.0442  -15.6191  -43.3243 H         1 UNK         0.0600 
    162 H162        2.8403  -17.1176  -42.8851 H         1 UNK         0.0600 
    163 H163        2.0228  -16.1722  -41.6506 H         1 UNK         0.0600 
    164 H164       -0.3610  -15.4779  -42.5643 H         1 UNK         0.3000 
    165 H165       -3.8045  -16.3966  -42.6018 H         1 UNK         0.0600 
    166 H166       -3.8662  -15.0002  -40.5528 H         1 UNK         0.0600 
    167 H167       -3.1976  -16.5820  -40.1855 H         1 UNK         0.0600 
    168 H168       -2.1267  -15.1935  -40.3328 H         1 UNK         0.0600 
    169 H169       -2.4370  -13.8864  -42.4020 H         1 UNK         0.3000 
    170 H170       -1.9001  -13.3301  -45.8572 H         1 UNK         0.0600 
    171 H171       -4.3015  -12.7041  -45.5744 H         1 UNK         0.0600 
    172 H172       -3.9570  -12.0424  -43.9809 H         1 UNK         0.0600 
    173 H173       -3.2575  -11.3001  -45.4201 H         1 UNK         0.0600 
    174 H174       -1.5452  -11.7203  -43.5090 H         1 UNK         0.3000 
    175 H175        0.6883  -11.2590  -42.8811 H         1 UNK         0.0600 
    176 H176       -0.5873  -12.7462  -41.2381 H         1 UNK         0.0600 
    177 H177        0.7056  -13.9357  -41.3425 H         1 UNK         0.0600 
    178 H178        1.0100  -12.3474  -40.6507 H         1 UNK         0.0600 
    179 H179        2.3937  -13.2632  -43.9047 H         1 UNK         0.3000 
    180 H180        5.4181  -11.7494  -42.6955 H         1 UNK         0.0600 
    181 H181        4.4317  -14.6477  -42.8235 H         1 UNK         0.0600 
    182 H182        5.0913  -13.8523  -41.4010 H         1 UNK         0.0600 
    183 H183        6.1152  -14.1264  -42.8023 H         1 UNK         0.0600 
    184 H184        4.9561  -13.4146  -44.9368 H         1 UNK         0.3000 
    185 H185        3.9242  -11.8863  -47.2543 H         1 UNK         0.0600 
    186 H186        4.6182   -9.5538  -47.4222 H         1 UNK         0.0600 
    187 H187        6.2939   -9.9760  -47.0858 H         1 UNK         0.0600 
    188 H188        5.5246  -10.5118  -48.5786 H         1 UNK         0.0600 
    189 H189        6.8343  -12.4025  -46.7967 H         1 UNK         0.3000 
    190 H190       -1.2394  -21.0420  -47.8830 H         1 UNK         0.3000 
    191 H191       -1.5329  -22.6288  -50.1831 H         1 UNK         0.0600 
    192 H192       -3.8370  -21.3808  -48.5957 H         1 UNK         0.0600 
    193 H193       -3.7480  -21.6773  -50.3243 H         1 UNK         0.0600 
    194 H194       -2.7464  -20.4356  -49.5867 H         1 UNK         0.0600 
    195 H195       -2.9141  -23.0955  -46.9040 H         1 UNK         0.3000 
    196 H196       -4.3590  -25.4737  -47.4463 H         1 UNK         0.0600 
    197 H197       -4.4042  -25.7082  -44.9681 H         1 UNK         0.0600 
    198 H198       -4.7537  -24.0540  -45.4490 H         1 UNK         0.0600 
    199 H199       -3.1664  -24.4693  -44.8078 H         1 UNK         0.0600 
    200 H200       -1.0050  -25.0082  -46.2267 H         1 UNK         0.3000 
    201 H201       -0.3505  -27.7569  -45.9393 H         1 UNK         0.0600 
    202 H202        0.9327  -25.9411  -44.8538 H         1 UNK         0.0600 
    203 H203        1.4520  -25.3251  -46.4209 H         1 UNK         0.0600 
    204 H204        1.9999  -26.9027  -45.8658 H         1 UNK         0.0600 
    205 H205        0.0274  -25.5226  -48.7123 H         1 UNK         0.3000 
    206 H206        1.2667  -27.4292  -50.4794 H         1 UNK         0.0600 
    207 H207       -0.2345  -24.8137  -51.0435 H         1 UNK         0.0600 
    208 H208        1.4960  -24.9619  -50.7425 H         1 UNK         0.0600 
    209 H209        0.7918  -25.6694  -52.1883 H         1 UNK         0.0600 
    210 H210       -1.9700  -27.0248  -49.4324 H         1 UNK         0.3000 
    211 H211       -3.9665  -27.8001  -49.9199 H         1 UNK         0.0600 
    212 H212       -2.6344  -29.9036  -51.7084 H         1 UNK         0.0600 
    213 H213       -4.2639  -29.9648  -51.0530 H         1 UNK         0.0600 
    214 H214       -2.8849  -30.0591  -49.9698 H         1 UNK         0.0600 
    215 H215       -3.1472  -25.5496  -51.2138 H         1 UNK         0.3000 
    216 H216       -3.7837  -25.6142  -54.0674 H         1 UNK         0.0600 
    217 H217       -3.2569  -23.2904  -52.1352 H         1 UNK         0.0600 
    218 H218       -3.3784  -23.1583  -53.8848 H         1 UNK         0.0600 
    219 H219       -2.0545  -24.0642  -53.1648 H         1 UNK         0.0600 
    220 H220       -5.7591  -25.2482  -54.9521 H         1 UNK         0.3000 
    221 H221       -8.1291  -24.8743  -53.3227 H         1 UNK         0.0600 
    222 H222       -8.1553  -26.2711  -55.3764 H         1 UNK         0.0600 
    223 H223       -7.7384  -24.8710  -56.3651 H         1 UNK         0.0600 
    224 H224       -9.2853  -24.9354  -55.5293 H         1 UNK         0.0600 
    225 H225       -6.0191  -22.7981  -55.2317 H         1 UNK         0.3000 
    226 H226       -7.7920  -20.4720  -55.2166 H         1 UNK         0.0600 
    227 H227       -6.3653  -21.0096  -57.1874 H         1 UNK         0.0600 
    228 H228       -5.9557  -19.4410  -56.5167 H         1 UNK         0.0600 
    229 H229       -4.9139  -20.8246  -56.2025 H         1 UNK         0.0600 
    230 H230       -7.4624  -21.2109  -52.6253 H         1 UNK         0.3000 
    231 H231       -5.2968  -19.8048  -51.2795 H         1 UNK         0.0600 
    232 H232       -7.7859  -21.2045  -50.1740 H         1 UNK         0.0600 
    233 H233       -6.3811  -20.6932  -49.2425 H         1 UNK         0.0600 
    234 H234       -6.2195  -21.9655  -50.4409 H         1 UNK         0.0600 
    235 H235       -6.4587  -17.9357  -52.8328 H         1 UNK         0.3000 
    236 H236       -8.3591  -16.2618  -51.3540 H         1 UNK         0.0600 
    237 H237       -8.3287  -16.2517  -53.8386 H         1 UNK         0.0600 
    238 H238       -7.9239  -14.6585  -53.2181 H         1 UNK         0.0600 
    239 H239       -6.6528  -15.7034  -53.8429 H         1 UNK         0.0600 
    240 H240       -4.8636  -16.4997  -51.8464 H         1 UNK         0.3000 
    241 H241       -4.1475  -14.1939  -50.2597 H         1 UNK         0.0600 
    242 H242       -3.6763  -15.4860  -46.9983 H         1 UNK         0.3800 
    243 H243       -3.4702  -14.1324  -48.0765 H         1 UNK         0.3800 
    244 H244       -1.8009  -15.4148  -50.3471 H         1 UNK         0.0800 
    245 H245       -2.4443  -14.5999  -51.7256 H         1 UNK         0.0800 
    246 H246       -2.1805  -18.0438  -49.9937 H         1 UNK         0.0800 
    247 H247       -2.1621  -19.1521  -51.3440 H         1 UNK         0.0800 
@<TRIPOS>BOND
     1    1    2 1    
     2    1  127 1    
     3    1  128 1    
     4    1  129 1    
     5    2    3 2    
     6    2    4 am   BACKBONE|DICT|INTERRES
     7    4    5 1    
     8    4  130 1    
     9    5    6 1    
    10    5   65 1    
    11    5  131 1    
    12    6    7 1    
    13    6  132 1    
    14    6  133 1    
    15    7    8 1    
    16    8    9 1    
    17    8  134 1    
    18    8  135 1    
    19    9   10 ar   
    20    9   14 ar   
    21   10   11 ar   
    22   10  136 1    
    23   11   12 ar   
    24   11  126 1    
    25   12   13 ar   
    26   12  137 1    
    27   13   14 ar   
    28   13   15 1    
    29   14  138 1    
    30   15   16 1    
    31   15  139 1    
    32   15  140 1    
    33   16   17 1    
    34   17   18 1    
    35   17  141 1    
    36   17  142 1    
    37   18   19 1    
    38   18   67 1    
    39   18  143 1    
    40   19   20 am   BACKBONE|DICT|INTERRES
    41   19  144 1    
    42   20   21 2    
    43   20   22 1    
    44   22   23 1    
    45   22   24 1    
    46   22  145 1    
    47   23  146 1    
    48   23  147 1    
    49   23  148 1    
    50   24   25 am   BACKBONE|DICT|INTERRES
    51   24  149 1    
    52   25   26 2    
    53   25   27 1    
    54   27   28 1    
    55   27   29 1    
    56   27  150 1    
    57   28  151 1    
    58   28  152 1    
    59   28  153 1    
    60   29   30 am   BACKBONE|DICT|INTERRES
    61   29  154 1    
    62   30   31 2    
    63   30   32 1    
    64   32   33 1    
    65   32   34 1    
    66   32  155 1    
    67   33  156 1    
    68   33  157 1    
    69   33  158 1    
    70   34   35 am   BACKBONE|DICT|INTERRES
    71   34  159 1    
    72   35   36 2    
    73   35   37 1    
    74   37   38 1    
    75   37   39 1    
    76   37  160 1    
    77   38  161 1    
    78   38  162 1    
    79   38  163 1    
    80   39   40 am   BACKBONE|DICT|INTERRES
    81   39  164 1    
    82   40   41 2    
    83   40   42 1    
    84   42   43 1    
    85   42   44 1    
    86   42  165 1    
    87   43  166 1    
    88   43  167 1    
    89   43  168 1    
    90   44   45 am   BACKBONE|DICT|INTERRES
    91   44  169 1    
    92   45   46 2    
    93   45   47 1    
    94   47   48 1    
    95   47   49 1    
    96   47  170 1    
    97   48  171 1    
    98   48  172 1    
    99   48  173 1    
   100   49   50 am   BACKBONE|DICT|INTERRES
   101   49  174 1    
   102   50   51 2    
   103   50   52 1    
   104   52   53 1    
   105   52   54 1    
   106   52  175 1    
   107   53  176 1    
   108   53  177 1    
   109   53  178 1    
   110   54   55 am   BACKBONE|DICT|INTERRES
   111   54  179 1    
   112   55   56 2    
   113   55   57 1    
   114   57   58 1    
   115   57   59 1    
   116   57  180 1    
   117   58  181 1    
   118   58  182 1    
   119   58  183 1    
   120   59   60 am   BACKBONE|DICT|INTERRES
   121   59  184 1    
   122   60   61 2    
   123   60   62 1    
   124   62   63 1    
   125   62   64 1    
   126   62  185 1    
   127   63  186 1    
   128   63  187 1    
   129   63  188 1    
   130   64   65 am   BACKBONE|DICT|INTERRES
   131   64  189 1    
   132   65   66 2    
   133   67   68 2    
   134   67   69 am   BACKBONE|DICT|INTERRES
   135   69   70 1    
   136   69  190 1    
   137   70   71 1    
   138   70   72 1    
   139   70  191 1    
   140   71  192 1    
   141   71  193 1    
   142   71  194 1    
   143   72   73 2    
   144   72   74 am   BACKBONE|DICT|INTERRES
   145   74   75 1    
   146   74  195 1    
   147   75   76 1    
   148   75   77 1    
   149   75  196 1    
   150   76  197 1    
   151   76  198 1    
   152   76  199 1    
   153   77   78 2    
   154   77   79 am   BACKBONE|DICT|INTERRES
   155   79   80 1    
   156   79  200 1    
   157   80   81 1    
   158   80   82 1    
   159   80  201 1    
   160   81  202 1    
   161   81  203 1    
   162   81  204 1    
   163   82   83 2    
   164   82   84 am   BACKBONE|DICT|INTERRES
   165   84   85 1    
   166   84  205 1    
   167   85   86 1    
   168   85   87 1    
   169   85  206 1    
   170   86  207 1    
   171   86  208 1    
   172   86  209 1    
   173   87   88 2    
   174   87   89 am   BACKBONE|DICT|INTERRES
   175   89   90 1    
   176   89  210 1    
   177   90   91 1    
   178   90   92 1    
   179   90  211 1    
   180   91  212 1    
   181   91  213 1    
   182   91  214 1    
   183   92   93 2    
   184   92   94 am   BACKBONE|DICT|INTERRES
   185   94   95 1    
   186   94  215 1    
   187   95   96 1    
   188   95   97 1    
   189   95  216 1    
   190   96  217 1    
   191   96  218 1    
   192   96  219 1    
   193   97   98 2    
   194   97   99 am   BACKBONE|DICT|INTERRES
   195   99  100 1    
   196   99  220 1    
   197  100  101 1    
   198  100  102 1    
   199  100  221 1    
   200  101  222 1    
   201  101  223 1    
   202  101  224 1    
   203  102  103 2    
   204  102  104 am   BACKBONE|DICT|INTERRES
   205  104  105 1    
   206  104  225 1    
   207  105  106 1    
   208  105  107 1    
   209  105  226 1    
   210  106  227 1    
   211  106  228 1    
   212  106  229 1    
   213  107  108 2    
   214  107  109 am   BACKBONE|DICT|INTERRES
   215  109  110 1    
   216  109  230 1    
   217  110  111 1    
   218  110  112 1    
   219  110  231 1    
   220  111  232 1    
   221  111  233 1    
   222  111  234 1    
   223  112  113 2    
   224  112  114 am   BACKBONE|DICT|INTERRES
   225  114  115 1    
   226  114  235 1    
   227  115  116 1    
   228  115  117 1    
   229  115  236 1    
   230  116  237 1    
   231  116  238 1    
   232  116  239 1    
   233  117  118 2    
   234  117  119 am   BACKBONE|DICT|INTERRES
   235  119  120 1    
   236  119  240 1    
   237  120  121 1    
   238  120  124 1    
   239  120  241 1    
   240  121  122 am   BACKBONE|DICT|INTERRES
   241  121  123 2    
   242  122  242 1    
   243  122  243 1    
   244  124  125 1    
   245  124  244 1    
   246  124  245 1    
   247  125  126 1    
   248  126  246 1    
   249  126  247 1    
@<TRIPOS>SUBSTRUCTURE
     1 UNK         1 GROUP             0       ****    0 ROOT    
