@<TRIPOS>MOLECULE
3R540
247   249    1
SMALL
USER_CHARGES


@<TRIPOS>ATOM
      1 CA         -2.5446  -15.1126  -50.5440 C.3       0 UNK        -0.1800 
      2 C          -1.3176  -14.3855  -50.0106 C.2       0 UNK         0.5000 
      3 O          -1.0110  -13.2843  -50.4682 O.2       0 UNK        -0.5000 
      4 N          -0.6123  -15.0031  -49.0556 N.am      1 UNK        -0.5000 
      5 CA          0.5676  -14.4426  -48.3883 C.3       1 UNK         0.1400 
      6 C6          1.4812  -15.5676  -47.8241 C.3       23 UNK        -0.0398 
      7 S7          3.2189  -15.3965  -48.3499 S.3       23 UNK        -0.2404 
      8 C8          3.1489  -15.7842  -50.1324 C.3       23 UNK        -0.0205 
      9 C9          2.3840  -17.0626  -50.4479 C.ar      23 UNK        -0.0193 
     10 C10         1.2647  -17.0195  -51.2827 C.ar      23 UNK        -0.1150 
     11 C11         0.5627  -18.1871  -51.5954 C.ar      23 UNK        -0.0193 
     12 C12         0.9702  -19.4041  -51.0417 C.ar      23 UNK        -0.1150 
     13 C13         2.0767  -19.4563  -50.1880 C.ar      23 UNK        -0.0193 
     14 C14         2.7899  -18.2866  -49.9104 C.ar      23 UNK        -0.1150 
     15 C15         2.5037  -20.7690  -49.5516 C.3       23 UNK        -0.0205 
     16 S16         2.0307  -20.8314  -47.7949 S.3       23 UNK        -0.2404 
     17 C17         0.2242  -21.0699  -47.8981 C.3       23 UNK        -0.0398 
     18 CA         -0.2239  -22.3409  -47.1429 C.3       11 UNK         0.1400 
     19 N           0.0706  -22.2723  -45.7072 N.am      11 UNK        -0.5000 
     20 C          -0.0523  -23.2995  -44.8555 C.2       10 UNK         0.5000 
     21 O          -0.3815  -24.4339  -45.1963 O.2       10 UNK        -0.5000 
     22 CA          0.1659  -22.9931  -43.3659 C.3       10 UNK         0.1400 
     23 CB          1.6612  -22.9884  -43.0152 C.3       10 UNK        -0.1800 
     24 N          -0.4444  -21.7171  -42.9922 N.am      10 UNK        -0.5000 
     25 C          -1.7678  -21.5247  -42.8898 C.2       9 UNK         0.5000 
     26 O          -2.5993  -22.4174  -43.0540 O.2       9 UNK        -0.5000 
     27 CA         -2.2464  -20.0903  -42.5940 C.3       9 UNK         0.1400 
     28 CB         -2.2713  -19.8301  -41.0804 C.3       9 UNK        -0.1800 
     29 N          -1.4263  -19.0668  -43.2419 N.am      9 UNK        -0.5000 
     30 C          -1.3128  -18.8986  -44.5671 C.2       8 UNK         0.5000 
     31 O          -1.9197  -19.5712  -45.3976 O.2       8 UNK        -0.5000 
     32 CA         -0.3151  -17.8271  -45.0434 C.3       8 UNK         0.1400 
     33 CB         -1.0340  -16.4751  -45.1549 C.3       8 UNK        -0.1800 
     34 N           0.8649  -17.7042  -44.1761 N.am      8 UNK        -0.5000 
     35 C           1.7184  -18.7102  -43.9184 C.2       7 UNK         0.5000 
     36 O           1.5726  -19.8447  -44.3774 O.2       7 UNK        -0.5000 
     37 CA          2.8811  -18.4281  -42.9433 C.3       7 UNK         0.1400 
     38 CB          4.0371  -19.4412  -43.0770 C.3       7 UNK        -0.1800 
     39 N           3.3825  -17.0529  -42.9943 N.am      7 UNK        -0.5000 
     40 C           3.9737  -16.4317  -44.0265 C.2       6 UNK         0.5000 
     41 O           4.1835  -16.9661  -45.1151 O.2       6 UNK        -0.5000 
     42 CA          4.4092  -14.9677  -43.8069 C.3       6 UNK         0.1400 
     43 CB          3.9641  -14.0719  -44.9701 C.3       6 UNK        -0.1800 
     44 N           3.8593  -14.4186  -42.5670 N.am      6 UNK        -0.5000 
     45 C           4.5559  -14.1747  -41.4491 C.2       5 UNK         0.5000 
     46 O           5.7740  -14.3269  -41.3522 O.2       5 UNK        -0.5000 
     47 CA          3.7534  -13.7102  -40.2157 C.3       5 UNK         0.1400 
     48 CB          3.7315  -12.1762  -40.1382 C.3       5 UNK        -0.1800 
     49 N           2.3747  -14.2050  -40.1957 N.am      5 UNK        -0.5000 
     50 C           2.0134  -15.4948  -40.1341 C.2       4 UNK         0.5000 
     51 O           2.8131  -16.4235  -40.0241 O.2       4 UNK        -0.5000 
     52 CA          0.5135  -15.8091  -40.2966 C.3       4 UNK         0.1400 
     53 CB         -0.1549  -15.9875  -38.9259 C.3       4 UNK        -0.1800 
     54 N          -0.2214  -14.7985  -41.0638 N.am      4 UNK        -0.5000 
     55 C           0.0174  -14.4714  -42.3413 C.2       3 UNK         0.5000 
     56 O           0.8910  -15.0178  -43.0212 O.2       3 UNK        -0.5000 
     57 CA         -0.8883  -13.3799  -42.9522 C.3       3 UNK         0.1400 
     58 CB         -1.2188  -12.2477  -41.9540 C.3       3 UNK        -0.1800 
     59 N          -0.3671  -12.8169  -44.2013 N.am      3 UNK        -0.5000 
     60 C           0.7681  -12.1311  -44.3878 C.2       2 UNK         0.5000 
     61 O           1.5952  -11.9150  -43.4994 O.2       2 UNK        -0.5000 
     62 CA          0.9965  -11.5885  -45.8179 C.3       2 UNK         0.1400 
     63 CB          2.2062  -10.6411  -45.9100 C.3       2 UNK        -0.1800 
     64 N           1.1494  -12.6451  -46.8231 N.am      2 UNK        -0.5000 
     65 C           0.1658  -13.4146  -47.3068 C.2       1 UNK         0.5000 
     66 O          -1.0042  -13.3416  -46.9188 O.2       1 UNK        -0.5000 
     67 C          -1.7136  -22.6428  -47.4060 C.2       11 UNK         0.5000 
     68 O          -2.0220  -23.4475  -48.2860 O.2       11 UNK        -0.5000 
     69 N          -2.6049  -22.0300  -46.6137 N.am      12 UNK        -0.5000 
     70 CA         -4.0445  -22.2772  -46.6318 C.3       12 UNK         0.1400 
     71 CB         -4.7697  -21.2406  -45.7630 C.3       12 UNK        -0.1800 
     72 C          -4.4060  -23.7109  -46.2086 C.2       12 UNK         0.5000 
     73 O          -5.2352  -24.3420  -46.8630 O.2       12 UNK        -0.5000 
     74 N          -3.7528  -24.2193  -45.1555 N.am      13 UNK        -0.5000 
     75 CA         -3.8952  -25.6029  -44.7006 C.3       13 UNK         0.1400 
     76 CB         -3.1912  -25.7736  -43.3458 C.3       13 UNK        -0.1800 
     77 C          -3.3673  -26.6250  -45.7267 C.2       13 UNK         0.5000 
     78 O          -3.9854  -27.6744  -45.9101 O.2       13 UNK        -0.5000 
     79 N          -2.2415  -26.2986  -46.3749 N.am      14 UNK        -0.5000 
     80 CA         -1.5813  -27.1400  -47.3681 C.3       14 UNK         0.1400 
     81 CB         -0.1373  -26.6559  -47.5749 C.3       14 UNK        -0.1800 
     82 C          -2.3260  -27.2025  -48.7127 C.2       14 UNK         0.5000 
     83 O          -2.5353  -28.3026  -49.2271 O.2       14 UNK        -0.5000 
     84 N          -2.6747  -26.0390  -49.2804 N.am      15 UNK        -0.5000 
     85 CA         -3.1343  -25.9279  -50.6672 C.3       15 UNK         0.1400 
     86 CB         -1.9162  -25.9454  -51.6146 C.3       15 UNK        -0.1800 
     87 C          -4.0497  -24.7134  -50.9056 C.2       15 UNK         0.5000 
     88 O          -4.0406  -24.1563  -52.0033 O.2       15 UNK        -0.5000 
     89 N          -4.8246  -24.3110  -49.8876 N.am      16 UNK        -0.5000 
     90 CA         -5.8843  -23.2864  -49.9137 C.3       16 UNK         0.1400 
     91 CB         -7.0522  -23.7359  -50.8136 C.3       16 UNK        -0.1800 
     92 C          -5.4422  -21.8316  -50.2028 C.2       16 UNK         0.5000 
     93 O          -6.2663  -20.9281  -50.0645 O.2       16 UNK        -0.5000 
     94 N          -4.1574  -21.6171  -50.5190 N.am      17 UNK        -0.5000 
     95 CA         -3.5007  -20.3384  -50.7939 C.3       17 UNK         0.1400 
     96 CB         -3.4121  -19.4752  -49.5150 C.3       17 UNK        -0.1800 
     97 C          -4.1200  -19.6175  -52.0105 C.2       17 UNK         0.5000 
     98 O          -3.8974  -20.0582  -53.1390 O.2       17 UNK        -0.5000 
     99 N          -4.8405  -18.5132  -51.7788 N.am      18 UNK        -0.5000 
    100 CA        -5.5000  -17.7140  -52.8110 C.3       18 UNK         0.1400 
    101 CB        -5.9918  -16.3988  -52.1884 C.3       18 UNK        -0.1800 
    102 C         -6.6646  -18.4654  -53.4833 C.2       18 UNK         0.5000 
    103 O         -7.4449  -19.1277  -52.7969 O.2       18 UNK        -0.5000 
    104 N         -6.7607  -18.3167  -54.8115 N.am      19 UNK        -0.5000 
    105 CA        -7.6978  -18.9844  -55.7219 C.3       19 UNK         0.1400 
    106 CB        -9.1568  -18.5765  -55.4259 C.3       19 UNK        -0.1800 
    107 C         -7.4832  -20.5124  -55.7669 C.2       19 UNK         0.5000 
    108 O         -8.4475  -21.2719  -55.8813 O.2       19 UNK        -0.5000 
    109 N         -6.2160  -20.9314  -55.6721 N.am      20 UNK        -0.5000 
    110 CA        -5.7864  -22.3230  -55.6222 C.3       20 UNK         0.1400 
    111 CB        -6.1132  -22.9330  -54.2460 C.3       20 UNK        -0.1800 
    112 C         -4.2976  -22.3866  -55.9887 C.2       20 UNK         0.5000 
    113 O         -3.9755  -22.4054  -57.1775 O.2       20 UNK        -0.5000 
    114 N         -3.4180  -22.4002  -54.9768 N.am      21 UNK        -0.5000 
    115 CA        -1.9605  -22.3551  -55.1224 C.3       21 UNK         0.1400 
    116 CB        -1.3053  -22.5484  -53.7459 C.3       21 UNK        -0.1800 
    117 C         -1.4729  -21.0485  -55.7761 C.2       21 UNK         0.5000 
    118 O         -0.5751  -21.0866  -56.6189 O.2       21 UNK        -0.5000 
    119 N         -2.1071  -19.9339  -55.3998 N.am      22 UNK        -0.5000 
    120 CA        -1.9885  -18.6280  -56.0546 C.3       22 UNK         0.1400 
    121 C         -3.2765  -18.3474  -56.8670 C.2       22 UNK         0.5000 
    122 N         -3.1592  -17.8147  -58.0745 N.am      22 UNK        -0.7600 
    123 O         -4.3875  -18.5719  -56.3924 O.2       22 UNK        -0.5000 
    124 C124       -1.7503  -17.4952  -55.0290 C.3       23 UNK        -0.0398 
    125 S125       -0.1306  -17.6382  -54.2082 S.3       23 UNK        -0.2404 
    126 C126       -0.6340  -18.1234  -52.5299 C.3       23 UNK        -0.0205 
    127 H127       -2.4848  -15.2068  -51.6283 H         1 UNK         0.0600 
    128 H128       -3.4462  -14.5511  -50.2993 H         1 UNK         0.0600 
    129 H129       -2.6409  -16.1123  -50.1208 H         1 UNK         0.0600 
    130 H130       -0.9415  -15.8863  -48.6966 H         1 UNK         0.3000 
    131 H131        1.1213  -13.8814  -49.1437 H         1 UNK         0.0600 
    132 H132        1.4824  -15.5955  -46.7337 H         1 UNK         0.0800 
    133 H133        1.1306  -16.5571  -48.1196 H         1 UNK         0.0800 
    134 H134        2.7127  -14.9348  -50.6598 H         1 UNK         0.0800 
    135 H135        4.1678  -15.8825  -50.5089 H         1 UNK         0.0800 
    136 H136        0.9439  -16.0778  -51.7058 H         1 UNK         0.1150 
    137 H137        0.4259  -20.3090  -51.2723 H         1 UNK         0.1150 
    138 H138        3.6473  -18.3242  -49.2529 H         1 UNK         0.1150 
    139 H139        2.0783  -21.6224  -50.0821 H         1 UNK         0.0800 
    140 H140        3.5872  -20.8704  -49.6287 H         1 UNK         0.0800 
    141 H141       -0.0726  -21.1306  -48.9460 H         1 UNK         0.0800 
    142 H142       -0.2656  -20.1826  -47.4952 H         1 UNK         0.0800 
    143 H143        0.3412  -23.1833  -47.5475 H         1 UNK         0.0600 
    144 H144        0.3931  -21.3799  -45.3501 H         1 UNK         0.3000 
    145 H145       -0.3122  -23.7849  -42.7850 H         1 UNK         0.0600 
    146 H146        1.8217  -22.7478  -41.9642 H         1 UNK         0.0600 
    147 H147        2.1019  -23.9696  -43.1957 H         1 UNK         0.0600 
    148 H148        2.2183  -22.2693  -43.6151 H         1 UNK         0.0600 
    149 H149        0.1748  -20.9215  -42.9280 H         1 UNK         0.3000 
    150 H150       -3.2653  -19.9947  -42.9743 H         1 UNK         0.0600 
    151 H151       -2.8947  -20.5647  -40.5688 H         1 UNK         0.0600 
    152 H152       -2.6815  -18.8452  -40.8558 H         1 UNK         0.0600 
    153 H153       -1.2731  -19.8858  -40.6443 H         1 UNK         0.0600 
    154 H154       -0.8873  -18.4655  -42.6379 H         1 UNK         0.3000 
    155 H155        0.0403  -18.1127  -46.0355 H         1 UNK         0.0600 
    156 H156       -1.7872  -16.4987  -45.9434 H         1 UNK         0.0600 
    157 H157       -0.3438  -15.6675  -45.3876 H         1 UNK         0.0600 
    158 H158       -1.5439  -16.2149  -44.2273 H         1 UNK         0.0600 
    159 H159        1.0374  -16.7898  -43.7665 H         1 UNK         0.3000 
    160 H160        2.4610  -18.5508  -41.9444 H         1 UNK         0.0600 
    161 H161        4.4531  -19.4504  -44.0850 H         1 UNK         0.0600 
    162 H162        3.6984  -20.4534  -42.8554 H         1 UNK         0.0600 
    163 H163        4.8447  -19.2131  -42.3815 H         1 UNK         0.0600 
    164 H164        3.2771  -16.5284  -42.1351 H         1 UNK         0.3000 
    165 H165        5.5002  -14.9609  -43.7756 H         1 UNK         0.0600 
    166 H166        2.8891  -14.1419  -45.1343 H         1 UNK         0.0600 
    167 H167        4.2127  -13.0289  -44.7774 H         1 UNK         0.0600 
    168 H168        4.4646  -14.3574  -45.8950 H         1 UNK         0.0600 
    169 H169        2.8556  -14.2728  -42.5637 H         1 UNK         0.3000 
    170 H170        4.2604  -14.0938  -39.3280 H         1 UNK         0.0600 
    171 H171        4.7441  -11.7707  -40.1267 H         1 UNK         0.0600 
    172 H172        3.2124  -11.7389  -40.9926 H         1 UNK         0.0600 
    173 H173        3.2347  -11.8329  -39.2306 H         1 UNK         0.0600 
    174 H174        1.6483  -13.5127  -40.3033 H         1 UNK         0.3000 
    175 H175        0.4379  -16.7545  -40.8378 H         1 UNK         0.0600 
    176 H176       -0.1388  -15.0634  -38.3468 H         1 UNK         0.0600 
    177 H177       -1.1936  -16.3014  -39.0311 H         1 UNK         0.0600 
    178 H178        0.3555  -16.7522  -38.3385 H         1 UNK         0.0600 
    179 H179       -0.9594  -14.3158  -40.5719 H         1 UNK         0.3000 
    180 H180       -1.8236  -13.8744  -43.2168 H         1 UNK         0.0600 
    181 H181       -0.3170  -11.7890  -41.5466 H         1 UNK         0.0600 
    182 H182       -1.8131  -12.6110  -41.1153 H         1 UNK         0.0600 
    183 H183       -1.8019  -11.4612  -42.4335 H         1 UNK         0.0600 
    184 H184       -0.9203  -13.0029  -45.0335 H         1 UNK         0.3000 
    185 H185        0.1112  -11.0026  -46.0743 H         1 UNK         0.0600 
    186 H186        2.1180   -9.8229  -45.1939 H         1 UNK         0.0600 
    187 H187        3.1436  -11.1570  -45.7043 H         1 UNK         0.0600 
    188 H188        2.2815  -10.1940  -46.9014 H         1 UNK         0.0600 
    189 H189        2.0877  -12.7881  -47.1685 H         1 UNK         0.3000 
    190 H190       -2.2778  -21.3140  -45.9700 H         1 UNK         0.3000 
    191 H191       -4.3804  -22.1404  -47.6570 H         1 UNK         0.0600 
    192 H192       -4.5703  -20.2271  -46.1118 H         1 UNK         0.0600 
    193 H193       -4.4636  -21.3029  -44.7193 H         1 UNK         0.0600 
    194 H194       -5.8495  -21.3898  -45.7985 H         1 UNK         0.0600 
    195 H195       -3.1220  -23.6248  -44.6286 H         1 UNK         0.3000 
    196 H196       -4.9594  -25.7997  -44.5545 H         1 UNK         0.0600 
    197 H197       -3.3079  -26.7910  -42.9707 H         1 UNK         0.0600 
    198 H198       -3.6094  -25.1004  -42.5972 H         1 UNK         0.0600 
    199 H199       -2.1226  -25.5705  -43.4174 H         1 UNK         0.0600 
    200 H200       -1.7554  -25.4479  -46.1067 H         1 UNK         0.3000 
    201 H201       -1.5340  -28.1558  -46.9697 H         1 UNK         0.0600 
    202 H202        0.4322  -26.7090  -46.6469 H         1 UNK         0.0600 
    203 H203       -0.1039  -25.6251  -47.9286 H         1 UNK         0.0600 
    204 H204        0.3814  -27.2726  -48.3100 H         1 UNK         0.0600 
    205 H205       -2.4618  -25.1615  -48.8076 H         1 UNK         0.3000 
    206 H206       -3.7550  -26.7942  -50.9040 H         1 UNK         0.0600 
    207 H207       -1.3307  -26.8568  -51.4945 H         1 UNK         0.0600 
    208 H208       -2.2234  -25.9027  -52.6602 H         1 UNK         0.0600 
    209 H209       -1.2564  -25.0979  -51.4260 H         1 UNK         0.0600 
    210 H210       -4.7304  -24.7916  -49.0009 H         1 UNK         0.3000 
    211 H211       -6.2859  -23.2482  -48.9019 H         1 UNK         0.0600 
    212 H212       -6.7278  -23.9521  -51.8284 H         1 UNK         0.0600 
    213 H213       -7.5177  -24.6395  -50.4203 H         1 UNK         0.0600 
    214 H214       -7.8296  -22.9732  -50.8726 H         1 UNK         0.0600 
    215 H215       -3.5909  -22.4417  -50.6665 H         1 UNK         0.3000 
    216 H216       -2.4778  -20.5846  -51.0801 H         1 UNK         0.0600 
    217 H217       -2.8665  -19.9984  -48.7302 H         1 UNK         0.0600 
    218 H218       -4.3930  -19.2194  -49.1140 H         1 UNK         0.0600 
    219 H219       -2.8763  -18.5452  -49.7069 H         1 UNK         0.0600 
    220 H220       -5.0362  -18.2616  -50.8216 H         1 UNK         0.3000 
    221 H221       -4.7575  -17.4718  -53.5728 H         1 UNK         0.0600 
    222 H222       -6.7172  -16.5772  -51.3936 H         1 UNK         0.0600 
    223 H223       -5.1654  -15.8268  -51.7678 H         1 UNK         0.0600 
    224 H224       -6.4738  -15.7687  -52.9371 H         1 UNK         0.0600 
    225 H225       -6.0085  -17.8296  -55.2856 H         1 UNK         0.3000 
    226 H226       -7.4546  -18.6203  -56.7211 H         1 UNK         0.0600 
    227 H227       -9.2653  -17.4923  -55.3980 H         1 UNK         0.0600 
    228 H228       -9.8294  -18.9493  -56.1991 H         1 UNK         0.0600 
    229 H229       -9.5060  -18.9741  -54.4728 H         1 UNK         0.0600 
    230 H230       -5.4784  -20.2340  -55.6462 H         1 UNK         0.3000 
    231 H231       -6.3254  -22.8877  -56.3857 H         1 UNK         0.0600 
    232 H232       -5.7096  -23.9424  -54.1591 H         1 UNK         0.0600 
    233 H233       -7.1899  -23.0057  -54.0940 H         1 UNK         0.0600 
    234 H234       -5.7072  -22.3345  -53.4293 H         1 UNK         0.0600 
    235 H235       -3.7738  -22.3604  -54.0307 H         1 UNK         0.3000 
    236 H236       -1.6617  -23.1851  -55.7658 H         1 UNK         0.0600 
    237 H237       -1.5959  -23.5008  -53.3046 H         1 UNK         0.0600 
    238 H238       -0.2176  -22.5441  -53.8260 H         1 UNK         0.0600 
    239 H239       -1.5869  -21.7576  -53.0508 H         1 UNK         0.0600 
    240 H240       -2.8454  -20.0112  -54.7044 H         1 UNK         0.3000 
    241 H241       -1.1466  -18.6350  -56.7498 H         1 UNK         0.0600 
    242 H242       -2.2588  -17.6132  -58.4817 H         1 UNK         0.3800 
    243 H243       -3.9946  -17.6171  -58.6028 H         1 UNK         0.3800 
    244 H244       -1.7738  -16.5227  -55.5239 H         1 UNK         0.0800 
    245 H245       -2.5445  -17.4743  -54.2826 H         1 UNK         0.0800 
    246 H246       -1.1375  -19.0891  -52.5823 H         1 UNK         0.0800 
    247 H247       -1.3576  -17.4083  -52.1380 H         1 UNK         0.0800 
@<TRIPOS>BOND
     1    1    2 1    
     2    1  127 1    
     3    1  128 1    
     4    1  129 1    
     5    2    3 2    
     6    2    4 am   BACKBONE|DICT|INTERRES
     7    4    5 1    
     8    4  130 1    
     9    5    6 1    
    10    5   65 1    
    11    5  131 1    
    12    6    7 1    
    13    6  132 1    
    14    6  133 1    
    15    7    8 1    
    16    8    9 1    
    17    8  134 1    
    18    8  135 1    
    19    9   10 ar   
    20    9   14 ar   
    21   10   11 ar   
    22   10  136 1    
    23   11   12 ar   
    24   11  126 1    
    25   12   13 ar   
    26   12  137 1    
    27   13   14 ar   
    28   13   15 1    
    29   14  138 1    
    30   15   16 1    
    31   15  139 1    
    32   15  140 1    
    33   16   17 1    
    34   17   18 1    
    35   17  141 1    
    36   17  142 1    
    37   18   19 1    
    38   18   67 1    
    39   18  143 1    
    40   19   20 am   BACKBONE|DICT|INTERRES
    41   19  144 1    
    42   20   21 2    
    43   20   22 1    
    44   22   23 1    
    45   22   24 1    
    46   22  145 1    
    47   23  146 1    
    48   23  147 1    
    49   23  148 1    
    50   24   25 am   BACKBONE|DICT|INTERRES
    51   24  149 1    
    52   25   26 2    
    53   25   27 1    
    54   27   28 1    
    55   27   29 1    
    56   27  150 1    
    57   28  151 1    
    58   28  152 1    
    59   28  153 1    
    60   29   30 am   BACKBONE|DICT|INTERRES
    61   29  154 1    
    62   30   31 2    
    63   30   32 1    
    64   32   33 1    
    65   32   34 1    
    66   32  155 1    
    67   33  156 1    
    68   33  157 1    
    69   33  158 1    
    70   34   35 am   BACKBONE|DICT|INTERRES
    71   34  159 1    
    72   35   36 2    
    73   35   37 1    
    74   37   38 1    
    75   37   39 1    
    76   37  160 1    
    77   38  161 1    
    78   38  162 1    
    79   38  163 1    
    80   39   40 am   BACKBONE|DICT|INTERRES
    81   39  164 1    
    82   40   41 2    
    83   40   42 1    
    84   42   43 1    
    85   42   44 1    
    86   42  165 1    
    87   43  166 1    
    88   43  167 1    
    89   43  168 1    
    90   44   45 am   BACKBONE|DICT|INTERRES
    91   44  169 1    
    92   45   46 2    
    93   45   47 1    
    94   47   48 1    
    95   47   49 1    
    96   47  170 1    
    97   48  171 1    
    98   48  172 1    
    99   48  173 1    
   100   49   50 am   BACKBONE|DICT|INTERRES
   101   49  174 1    
   102   50   51 2    
   103   50   52 1    
   104   52   53 1    
   105   52   54 1    
   106   52  175 1    
   107   53  176 1    
   108   53  177 1    
   109   53  178 1    
   110   54   55 am   BACKBONE|DICT|INTERRES
   111   54  179 1    
   112   55   56 2    
   113   55   57 1    
   114   57   58 1    
   115   57   59 1    
   116   57  180 1    
   117   58  181 1    
   118   58  182 1    
   119   58  183 1    
   120   59   60 am   BACKBONE|DICT|INTERRES
   121   59  184 1    
   122   60   61 2    
   123   60   62 1    
   124   62   63 1    
   125   62   64 1    
   126   62  185 1    
   127   63  186 1    
   128   63  187 1    
   129   63  188 1    
   130   64   65 am   BACKBONE|DICT|INTERRES
   131   64  189 1    
   132   65   66 2    
   133   67   68 2    
   134   67   69 am   BACKBONE|DICT|INTERRES
   135   69   70 1    
   136   69  190 1    
   137   70   71 1    
   138   70   72 1    
   139   70  191 1    
   140   71  192 1    
   141   71  193 1    
   142   71  194 1    
   143   72   73 2    
   144   72   74 am   BACKBONE|DICT|INTERRES
   145   74   75 1    
   146   74  195 1    
   147   75   76 1    
   148   75   77 1    
   149   75  196 1    
   150   76  197 1    
   151   76  198 1    
   152   76  199 1    
   153   77   78 2    
   154   77   79 am   BACKBONE|DICT|INTERRES
   155   79   80 1    
   156   79  200 1    
   157   80   81 1    
   158   80   82 1    
   159   80  201 1    
   160   81  202 1    
   161   81  203 1    
   162   81  204 1    
   163   82   83 2    
   164   82   84 am   BACKBONE|DICT|INTERRES
   165   84   85 1    
   166   84  205 1    
   167   85   86 1    
   168   85   87 1    
   169   85  206 1    
   170   86  207 1    
   171   86  208 1    
   172   86  209 1    
   173   87   88 2    
   174   87   89 am   BACKBONE|DICT|INTERRES
   175   89   90 1    
   176   89  210 1    
   177   90   91 1    
   178   90   92 1    
   179   90  211 1    
   180   91  212 1    
   181   91  213 1    
   182   91  214 1    
   183   92   93 2    
   184   92   94 am   BACKBONE|DICT|INTERRES
   185   94   95 1    
   186   94  215 1    
   187   95   96 1    
   188   95   97 1    
   189   95  216 1    
   190   96  217 1    
   191   96  218 1    
   192   96  219 1    
   193   97   98 2    
   194   97   99 am   BACKBONE|DICT|INTERRES
   195   99  100 1    
   196   99  220 1    
   197  100  101 1    
   198  100  102 1    
   199  100  221 1    
   200  101  222 1    
   201  101  223 1    
   202  101  224 1    
   203  102  103 2    
   204  102  104 am   BACKBONE|DICT|INTERRES
   205  104  105 1    
   206  104  225 1    
   207  105  106 1    
   208  105  107 1    
   209  105  226 1    
   210  106  227 1    
   211  106  228 1    
   212  106  229 1    
   213  107  108 2    
   214  107  109 am   BACKBONE|DICT|INTERRES
   215  109  110 1    
   216  109  230 1    
   217  110  111 1    
   218  110  112 1    
   219  110  231 1    
   220  111  232 1    
   221  111  233 1    
   222  111  234 1    
   223  112  113 2    
   224  112  114 am   BACKBONE|DICT|INTERRES
   225  114  115 1    
   226  114  235 1    
   227  115  116 1    
   228  115  117 1    
   229  115  236 1    
   230  116  237 1    
   231  116  238 1    
   232  116  239 1    
   233  117  118 2    
   234  117  119 am   BACKBONE|DICT|INTERRES
   235  119  120 1    
   236  119  240 1    
   237  120  121 1    
   238  120  124 1    
   239  120  241 1    
   240  121  122 am   BACKBONE|DICT|INTERRES
   241  121  123 2    
   242  122  242 1    
   243  122  243 1    
   244  124  125 1    
   245  124  244 1    
   246  124  245 1    
   247  125  126 1    
   248  126  246 1    
   249  126  247 1    
@<TRIPOS>SUBSTRUCTURE
     1 UNK         1 GROUP             0       ****    0 ROOT    
