@<TRIPOS>MOLECULE
3R540
247   249    1
SMALL
USER_CHARGES


@<TRIPOS>ATOM
      1 CA         -2.1135  -15.1226  -51.9736 C.3       0 UNK        -0.1800 
      2 C          -2.0445  -15.0755  -50.4543 C.2       0 UNK         0.5000 
      3 O          -1.5616  -16.0217  -49.8351 O.2       0 UNK        -0.5000 
      4 N          -2.5204  -13.9766  -49.8530 N.am      1 UNK        -0.5000 
      5 CA         -2.6227  -13.7844  -48.3989 C.3       1 UNK         0.1400 
      6 C6         -3.3956  -12.4922  -48.0100 C.3       23 UNK        -0.0398 
      7 S7         -4.8343  -12.0705  -49.0538 S.3       23 UNK        -0.2404 
      8 C8         -6.1670  -13.0710  -48.3225 C.3       23 UNK        -0.0205 
      9 C9         -6.1788  -14.4890  -48.8734 C.ar      23 UNK        -0.0193 
     10 C10        -6.3883  -14.7062  -50.2391 C.ar      23 UNK        -0.1150 
     11 C11        -6.4121  -16.0023  -50.7605 C.ar      23 UNK        -0.0193 
     12 C12        -6.2498  -17.0889  -49.8970 C.ar      23 UNK        -0.1150 
     13 C13        -6.0306  -16.8848  -48.5331 C.ar      23 UNK        -0.0193 
     14 C14        -5.9966  -15.5835  -48.0241 C.ar      23 UNK        -0.1150 
     15 C15        -5.7881  -18.0722  -47.6225 C.3       23 UNK        -0.0205 
     16 S16        -7.3243  -18.6686  -46.8514 S.3       23 UNK        -0.2404 
     17 C17        -6.9068  -20.2528  -46.0194 C.3       23 UNK        -0.0398 
     18 CA         -5.4905  -20.8500  -46.2447 C.3       11 UNK         0.1400 
     19 N          -4.4392  -20.0267  -45.6368 N.am      11 UNK        -0.5000 
     20 C          -3.1937  -19.9316  -46.1162 C.2       10 UNK         0.5000 
     21 O          -2.8056  -20.5462  -47.1084 O.2       10 UNK        -0.5000 
     22 CA         -2.2154  -19.0013  -45.3743 C.3       10 UNK         0.1400 
     23 CB         -2.2212  -17.6036  -46.0140 C.3       10 UNK        -0.1800 
     24 N          -2.4270  -18.8598  -43.9310 N.am      10 UNK        -0.5000 
     25 C          -2.5140  -19.8505  -43.0345 C.2       9 UNK         0.5000 
     26 O          -2.6311  -21.0387  -43.3367 O.2       9 UNK        -0.5000 
     27 CA         -2.3832  -19.4392  -41.5549 C.3       9 UNK         0.1400 
     28 CB         -2.7825  -20.5730  -40.5936 C.3       9 UNK        -0.1800 
     29 N          -1.0018  -19.0472  -41.2761 N.am      9 UNK        -0.5000 
     30 C          -0.4404  -17.8875  -41.6441 C.2       8 UNK         0.5000 
     31 O          -1.0785  -16.9457  -42.1175 O.2       8 UNK        -0.5000 
     32 CA          1.0891  -17.7680  -41.4989 C.3       8 UNK         0.1400 
     33 CB          1.4479  -17.0457  -40.1918 C.3       8 UNK        -0.1800 
     34 N           1.8197  -19.0390  -41.5569 N.am      8 UNK        -0.5000 
     35 C           1.8307  -19.8937  -42.5923 C.2       7 UNK         0.5000 
     36 O           1.1052  -19.7850  -43.5815 O.2       7 UNK        -0.5000 
     37 CA          2.8448  -21.0477  -42.5015 C.3       7 UNK         0.1400 
     38 CB          3.0868  -21.7478  -43.8517 C.3       7 UNK        -0.1800 
     39 N           4.1175  -20.5490  -41.9865 N.am      7 UNK        -0.5000 
     40 C           4.9156  -21.1919  -41.1245 C.2       6 UNK         0.5000 
     41 O           4.6430  -22.2904  -40.6387 O.2       6 UNK        -0.5000 
     42 CA          6.2496  -20.5149  -40.7401 C.3       6 UNK         0.1400 
     43 CB          7.4265  -21.2267  -41.4258 C.3       6 UNK        -0.1800 
     44 N           6.3107  -19.0908  -41.0740 N.am      6 UNK        -0.5000 
     45 C           5.6339  -18.1210  -40.4450 C.2       5 UNK         0.5000 
     46 O           4.9176  -18.3159  -39.4629 O.2       5 UNK        -0.5000 
     47 CA          5.7465  -16.6994  -41.0354 C.3       5 UNK         0.1400 
     48 CB          6.8232  -15.8956  -40.2909 C.3       5 UNK        -0.1800 
     49 N           6.0226  -16.6474  -42.4782 N.am      5 UNK        -0.5000 
     50 C           5.2562  -17.1944  -43.4315 C.2       4 UNK         0.5000 
     51 O           4.2787  -17.9042  -43.1935 O.2       4 UNK        -0.5000 
     52 CA          5.6800  -16.9512  -44.8919 C.3       4 UNK         0.1400 
     53 CB          6.7227  -17.9954  -45.3207 C.3       4 UNK        -0.1800 
     54 N           4.5388  -17.0217  -45.8078 N.am      4 UNK        -0.5000 
     55 C           3.5142  -16.1595  -45.8143 C.2       3 UNK         0.5000 
     56 O           3.4628  -15.1526  -45.1013 O.2       3 UNK        -0.5000 
     57 CA          2.3456  -16.4979  -46.7620 C.3       3 UNK         0.1400 
     58 CB          1.4245  -17.5506  -46.1273 C.3       3 UNK        -0.1800 
     59 N           1.5604  -15.3065  -47.0867 N.am      3 UNK        -0.5000 
     60 C           1.9825  -14.3220  -47.8877 C.2       2 UNK         0.5000 
     61 O           2.9979  -14.4027  -48.5828 O.2       2 UNK        -0.5000 
     62 CA          1.1311  -13.0361  -47.9019 C.3       2 UNK         0.1400 
     63 CB          1.7685  -11.9116  -48.7388 C.3       2 UNK        -0.1800 
     64 N          -0.2252  -13.2655  -48.3951 N.am      2 UNK        -0.5000 
     65 C          -1.2471  -13.7735  -47.6931 C.2       1 UNK         0.5000 
     66 O          -1.1432  -14.1863  -46.5371 O.2       1 UNK        -0.5000 
     67 C          -5.4360  -22.3163  -45.7595 C.2       11 UNK         0.5000 
     68 O          -6.0681  -23.1653  -46.3888 O.2       11 UNK        -0.5000 
     69 N          -4.7073  -22.5976  -44.6701 N.am      12 UNK        -0.5000 
     70 CA         -4.6563  -23.9112  -44.0269 C.3       12 UNK         0.1400 
     71 CB         -5.1256  -23.7723  -42.5689 C.3       12 UNK        -0.1800 
     72 C          -3.2484  -24.5205  -44.0829 C.2       12 UNK         0.5000 
     73 O          -3.1045  -25.6777  -44.4778 O.2       12 UNK        -0.5000 
     74 N          -2.2404  -23.7430  -43.6699 N.am      13 UNK        -0.5000 
     75 CA         -0.8522  -24.1789  -43.5549 C.3       13 UNK         0.1400 
     76 CB         -0.1331  -23.3185  -42.5040 C.3       13 UNK        -0.1800 
     77 C          -0.1348  -24.1249  -44.9103 C.2       13 UNK         0.5000 
     78 O           0.4230  -25.1340  -45.3427 O.2       13 UNK        -0.5000 
     79 N          -0.1728  -22.9530  -45.5607 N.am      14 UNK        -0.5000 
     80 CA          0.4166  -22.7488  -46.8870 C.3       14 UNK         0.1400 
     81 CB          0.7225  -21.2571  -47.0946 C.3       14 UNK        -0.1800 
     82 C          -0.4912  -23.2806  -48.0113 C.2       14 UNK         0.5000 
     83 O           0.0189  -23.6829  -49.0571 O.2       14 UNK        -0.5000 
     84 N          -1.8109  -23.2684  -47.7634 N.am      15 UNK        -0.5000 
     85 CA         -2.8991  -23.6462  -48.6688 C.3       15 UNK         0.1400 
     86 CB         -2.8978  -25.1686  -48.9115 C.3       15 UNK        -0.1800 
     87 C          -2.8798  -22.8197  -49.9705 C.2       15 UNK         0.5000 
     88 O          -2.9374  -23.3838  -51.0631 O.2       15 UNK        -0.5000 
     89 N          -2.7770  -21.4909  -49.8198 N.am      16 UNK        -0.5000 
     90 CA         -2.5418  -20.5039  -50.8804 C.3       16 UNK         0.1400 
     91 CB         -2.6215  -19.0966  -50.2737 C.3       16 UNK        -0.1800 
     92 C          -3.4738  -20.6044  -52.1026 C.2       16 UNK         0.5000 
     93 O          -3.0115  -20.4446  -53.2336 O.2       16 UNK        -0.5000 
     94 N          -4.7578  -20.8940  -51.8565 N.am      17 UNK        -0.5000 
     95 CA         -5.7753  -21.0591  -52.8940 C.3       17 UNK         0.1400 
     96 CB         -7.1671  -20.9958  -52.2482 C.3       17 UNK        -0.1800 
     97 C          -5.6036  -22.3568  -53.7072 C.2       17 UNK         0.5000 
     98 O          -5.8672  -22.3534  -54.9095 O.2       17 UNK        -0.5000 
     99 N          -5.1445  -23.4322  -53.0517 N.am      18 UNK        -0.5000 
    100 CA        -4.8561  -24.7250  -53.6784 C.3       18 UNK         0.1400 
    101 CB        -4.9072  -25.8333  -52.6159 C.3       18 UNK        -0.1800 
    102 C         -3.4925  -24.7163  -54.3912 C.2       18 UNK         0.5000 
    103 O         -3.3530  -25.3233  -55.4532 O.2       18 UNK        -0.5000 
    104 N         -2.5250  -23.9929  -53.8111 N.am      19 UNK        -0.5000 
    105 CA        -1.1967  -23.7341  -54.3706 C.3       19 UNK         0.1400 
    106 CB        -0.3020  -23.1655  -53.2578 C.3       19 UNK        -0.1800 
    107 C         -1.2156  -22.7789  -55.5830 C.2       19 UNK         0.5000 
    108 O         -0.2099  -22.6826  -56.2870 O.2       19 UNK        -0.5000 
    109 N         -2.3476  -22.0899  -55.7917 N.am      20 UNK        -0.5000 
    110 CA        -2.6268  -21.1035  -56.8385 C.3       20 UNK         0.1400 
    111 CB        -2.5224  -21.7283  -58.2453 C.3       20 UNK        -0.1800 
    112 C         -1.8069  -19.8057  -56.6890 C.2       20 UNK         0.5000 
    113 O         -1.5969  -19.0926  -57.6722 O.2       20 UNK        -0.5000 
    114 N         -1.4097  -19.4818  -55.4494 N.am      21 UNK        -0.5000 
    115 CA        -0.7518  -18.2238  -55.0821 C.3       21 UNK         0.1400 
    116 CB        -0.2123  -18.3378  -53.6483 C.3       21 UNK        -0.1800 
    117 C         -1.6974  -17.0133  -55.2126 C.2       21 UNK         0.5000 
    118 O         -1.2361  -15.8922  -55.4258 O.2       21 UNK        -0.5000 
    119 N         -3.0042  -17.2818  -55.1120 N.am      22 UNK        -0.5000 
    120 CA        -4.1096  -16.3422  -55.3437 C.3       22 UNK         0.1400 
    121 C         -4.3116  -15.9349  -56.8349 C.2       22 UNK         0.5000 
    122 N         -3.6436  -16.5546  -57.8024 N.am      22 UNK        -0.7600 
    123 O         -5.0916  -15.0308  -57.1206 O.2       22 UNK        -0.5000 
    124 C124       -5.4307  -16.8891  -54.7433 C.3       23 UNK        -0.0398 
    125 S125       -5.2735  -17.2405  -52.9598 S.3       23 UNK        -0.2404 
    126 C126       -6.6061  -16.2216  -52.2540 C.3       23 UNK        -0.0205 
    127 H127       -2.5650  -16.0600  -52.2968 H         1 UNK         0.0600 
    128 H128       -1.1119  -15.0641  -52.3993 H         1 UNK         0.0600 
    129 H129       -2.7088  -14.3044  -52.3794 H         1 UNK         0.0600 
    130 H130       -2.9267  -13.2393  -50.4115 H         1 UNK         0.3000 
    131 H131       -3.1784  -14.6391  -48.0078 H         1 UNK         0.0600 
    132 H132       -3.7160  -12.5479  -46.9683 H         1 UNK         0.0800 
    133 H133       -2.7350  -11.6243  -48.0653 H         1 UNK         0.0800 
    134 H134       -6.0837  -13.0661  -47.2348 H         1 UNK         0.0800 
    135 H135       -7.1232  -12.6013  -48.5569 H         1 UNK         0.0800 
    136 H136       -6.5223  -13.8586  -50.8965 H         1 UNK         0.1150 
    137 H137       -6.2689  -18.0944  -50.2935 H         1 UNK         0.1150 
    138 H138       -5.8279  -15.4257  -46.9681 H         1 UNK         0.1150 
    139 H139       -5.0912  -17.7756  -46.8421 H         1 UNK         0.0800 
    140 H140       -5.3142  -18.8674  -48.1958 H         1 UNK         0.0800 
    141 H141       -7.6663  -20.9625  -46.3534 H         1 UNK         0.0800 
    142 H142       -7.0861  -20.1218  -44.9510 H         1 UNK         0.0800 
    143 H143       -5.3262  -20.9075  -47.3220 H         1 UNK         0.0600 
    144 H144       -4.6868  -19.4977  -44.8133 H         1 UNK         0.3000 
    145 H145       -1.2176  -19.4241  -45.4983 H         1 UNK         0.0600 
    146 H146       -2.0733  -17.6576  -47.0940 H         1 UNK         0.0600 
    147 H147       -1.4235  -16.9815  -45.6095 H         1 UNK         0.0600 
    148 H148       -3.1592  -17.0794  -45.8334 H         1 UNK         0.0600 
    149 H149       -2.2738  -17.9301  -43.5572 H         1 UNK         0.3000 
    150 H150       -3.0475  -18.5913  -41.3757 H         1 UNK         0.0600 
    151 H151       -2.1435  -21.4492  -40.7102 H         1 UNK         0.0600 
    152 H152       -3.8108  -20.8899  -40.7711 H         1 UNK         0.0600 
    153 H153       -2.7182  -20.2486  -39.5549 H         1 UNK         0.0600 
    154 H154       -0.3925  -19.7704  -40.9242 H         1 UNK         0.3000 
    155 H155        1.4429  -17.1582  -42.3331 H         1 UNK         0.0600 
    156 H156        1.1571  -17.6293  -39.3176 H         1 UNK         0.0600 
    157 H157        0.9441  -16.0804  -40.1261 H         1 UNK         0.0600 
    158 H158        2.5187  -16.8554  -40.1270 H         1 UNK         0.0600 
    159 H159        2.4633  -19.2138  -40.7984 H         1 UNK         0.3000 
    160 H160        2.4209  -21.7725  -41.8045 H         1 UNK         0.0600 
    161 H161        3.4815  -21.0541  -44.5951 H         1 UNK         0.0600 
    162 H162        2.1633  -22.1659  -44.2486 H         1 UNK         0.0600 
    163 H163        3.7948  -22.5701  -43.7495 H         1 UNK         0.0600 
    164 H164        4.3808  -19.6258  -42.3235 H         1 UNK         0.3000 
    165 H165        6.3687  -20.6193  -39.6597 H         1 UNK         0.0600 
    166 H166        8.3813  -20.8059  -41.1098 H         1 UNK         0.0600 
    167 H167        7.4428  -22.2882  -41.1748 H         1 UNK         0.0600 
    168 H168        7.3662  -21.1474  -42.5121 H         1 UNK         0.0600 
    169 H169        6.8698  -18.8374  -41.8750 H         1 UNK         0.3000 
    170 H170        4.7850  -16.2085  -40.8738 H         1 UNK         0.0600 
    171 H171        6.8405  -14.8568  -40.6212 H         1 UNK         0.0600 
    172 H172        7.8177  -16.3156  -40.4468 H         1 UNK         0.0600 
    173 H173        6.6342  -15.8892  -39.2165 H         1 UNK         0.0600 
    174 H174        6.8245  -16.0995  -42.7558 H         1 UNK         0.3000 
    175 H175        6.1210  -15.9552  -44.9688 H         1 UNK         0.0600 
    176 H176        7.6078  -17.9516  -44.6848 H         1 UNK         0.0600 
    177 H177        6.3252  -19.0096  -45.2599 H         1 UNK         0.0600 
    178 H178        7.0536  -17.8253  -46.3455 H         1 UNK         0.0600 
    179 H179        4.4905  -17.8408  -46.3953 H         1 UNK         0.3000 
    180 H180        2.7556  -16.9083  -47.6873 H         1 UNK         0.0600 
    181 H181        0.6225  -17.8344  -46.8085 H         1 UNK         0.0600 
    182 H182        0.9758  -17.1897  -45.2009 H         1 UNK         0.0600 
    183 H183        1.9770  -18.4590  -45.8846 H         1 UNK         0.0600 
    184 H184        0.7061  -15.1570  -46.5621 H         1 UNK         0.3000 
    185 H185        1.0723  -12.6821  -46.8704 H         1 UNK         0.0600 
    186 H186        2.7731  -11.6797  -48.3827 H         1 UNK         0.0600 
    187 H187        1.8470  -12.1864  -49.7914 H         1 UNK         0.0600 
    188 H188        1.1846  -10.9931  -48.6748 H         1 UNK         0.0600 
    189 H189       -0.4017  -13.0003  -49.3530 H         1 UNK         0.3000 
    190 H190       -4.1514  -21.8637  -44.2432 H         1 UNK         0.3000 
    191 H191       -5.3300  -24.6132  -44.5226 H         1 UNK         0.0600 
    192 H192       -6.1563  -23.4205  -42.5213 H         1 UNK         0.0600 
    193 H193       -5.0855  -24.7316  -42.0512 H         1 UNK         0.0600 
    194 H194       -4.5077  -23.0695  -42.0086 H         1 UNK         0.0600 
    195 H195       -2.4330  -22.7780  -43.4074 H         1 UNK         0.3000 
    196 H196       -0.8332  -25.2135  -43.2050 H         1 UNK         0.0600 
    197 H197        0.9073  -23.6268  -42.3972 H         1 UNK         0.0600 
    198 H198       -0.6035  -23.4207  -41.5261 H         1 UNK         0.0600 
    199 H199       -0.1434  -22.2610  -42.7685 H         1 UNK         0.0600 
    200 H200       -0.6348  -22.1654  -45.1299 H         1 UNK         0.3000 
    201 H201        1.3639  -23.2903  -46.9368 H         1 UNK         0.0600 
    202 H202        1.2868  -21.1041  -48.0151 H         1 UNK         0.0600 
    203 H203        1.3199  -20.8550  -46.2766 H         1 UNK         0.0600 
    204 H204       -0.1852  -20.6617  -47.1737 H         1 UNK         0.0600 
    205 H205       -2.1028  -22.8586  -46.8883 H         1 UNK         0.3000 
    206 H206       -3.8293  -23.3947  -48.1589 H         1 UNK         0.0600 
    207 H207       -2.9031  -25.7164  -47.9690 H         1 UNK         0.0600 
    208 H208       -3.7839  -25.4740  -49.4680 H         1 UNK         0.0600 
    209 H209       -2.0247  -25.4886  -49.4811 H         1 UNK         0.0600 
    210 H210       -2.7368  -21.1318  -48.8679 H         1 UNK         0.3000 
    211 H211       -1.5231  -20.6592  -51.2389 H         1 UNK         0.0600 
    212 H212       -3.5958  -18.9050  -49.8255 H         1 UNK         0.0600 
    213 H213       -2.4612  -18.3308  -51.0328 H         1 UNK         0.0600 
    214 H214       -1.8645  -18.9528  -49.5024 H         1 UNK         0.0600 
    215 H215       -5.0495  -21.0200  -50.8993 H         1 UNK         0.3000 
    216 H216       -5.6897  -20.2233  -53.5916 H         1 UNK         0.0600 
    217 H217       -7.3081  -21.7896  -51.5137 H         1 UNK         0.0600 
    218 H218       -7.9509  -21.0995  -52.9997 H         1 UNK         0.0600 
    219 H219       -7.3242  -20.0404  -51.7470 H         1 UNK         0.0600 
    220 H220       -4.8604  -23.3293  -52.0863 H         1 UNK         0.3000 
    221 H221       -5.6258  -24.9362  -54.4240 H         1 UNK         0.0600 
    222 H222       -4.1332  -25.7037  -51.8595 H         1 UNK         0.0600 
    223 H223       -5.8727  -25.8524  -52.1102 H         1 UNK         0.0600 
    224 H224       -4.7580  -26.8135  -53.0703 H         1 UNK         0.0600 
    225 H225       -2.7113  -23.5973  -52.8922 H         1 UNK         0.3000 
    226 H226       -0.7744  -24.6841  -54.7040 H         1 UNK         0.0600 
    227 H227       -0.2588  -23.8380  -52.4004 H         1 UNK         0.0600 
    228 H228        0.7198  -23.0212  -53.6108 H         1 UNK         0.0600 
    229 H229       -0.6669  -22.2004  -52.9064 H         1 UNK         0.0600 
    230 H230       -3.0891  -22.2235  -55.1183 H         1 UNK         0.3000 
    231 H231       -3.6676  -20.8110  -56.6924 H         1 UNK         0.0600 
    232 H232       -1.4921  -21.9676  -58.5093 H         1 UNK         0.0600 
    233 H233       -2.9014  -21.0442  -59.0053 H         1 UNK         0.0600 
    234 H234       -3.1091  -22.6444  -58.3140 H         1 UNK         0.0600 
    235 H235       -1.7091  -20.0760  -54.6823 H         1 UNK         0.3000 
    236 H236        0.0907  -18.0660  -55.7584 H         1 UNK         0.0600 
    237 H237       -1.0167  -18.4861  -52.9285 H         1 UNK         0.0600 
    238 H238        0.4825  -19.1723  -53.5522 H         1 UNK         0.0600 
    239 H239        0.3222  -17.4321  -53.3589 H         1 UNK         0.0600 
    240 H240       -3.2721  -18.2298  -54.8912 H         1 UNK         0.3000 
    241 H241       -3.8625  -15.4194  -54.8153 H         1 UNK         0.0600 
    242 H242       -3.7882  -16.2710  -58.7587 H         1 UNK         0.3800 
    243 H243       -2.9820  -17.2903  -57.5966 H         1 UNK         0.3800 
    244 H244       -5.7259  -17.8109  -55.2473 H         1 UNK         0.0800 
    245 H245       -6.2468  -16.1828  -54.9036 H         1 UNK         0.0800 
    246 H246       -6.6383  -15.2623  -52.7727 H         1 UNK         0.0800 
    247 H247       -7.5664  -16.7085  -52.4282 H         1 UNK         0.0800 
@<TRIPOS>BOND
     1    1    2 1    
     2    1  127 1    
     3    1  128 1    
     4    1  129 1    
     5    2    3 2    
     6    2    4 am   BACKBONE|DICT|INTERRES
     7    4    5 1    
     8    4  130 1    
     9    5    6 1    
    10    5   65 1    
    11    5  131 1    
    12    6    7 1    
    13    6  132 1    
    14    6  133 1    
    15    7    8 1    
    16    8    9 1    
    17    8  134 1    
    18    8  135 1    
    19    9   10 ar   
    20    9   14 ar   
    21   10   11 ar   
    22   10  136 1    
    23   11   12 ar   
    24   11  126 1    
    25   12   13 ar   
    26   12  137 1    
    27   13   14 ar   
    28   13   15 1    
    29   14  138 1    
    30   15   16 1    
    31   15  139 1    
    32   15  140 1    
    33   16   17 1    
    34   17   18 1    
    35   17  141 1    
    36   17  142 1    
    37   18   19 1    
    38   18   67 1    
    39   18  143 1    
    40   19   20 am   BACKBONE|DICT|INTERRES
    41   19  144 1    
    42   20   21 2    
    43   20   22 1    
    44   22   23 1    
    45   22   24 1    
    46   22  145 1    
    47   23  146 1    
    48   23  147 1    
    49   23  148 1    
    50   24   25 am   BACKBONE|DICT|INTERRES
    51   24  149 1    
    52   25   26 2    
    53   25   27 1    
    54   27   28 1    
    55   27   29 1    
    56   27  150 1    
    57   28  151 1    
    58   28  152 1    
    59   28  153 1    
    60   29   30 am   BACKBONE|DICT|INTERRES
    61   29  154 1    
    62   30   31 2    
    63   30   32 1    
    64   32   33 1    
    65   32   34 1    
    66   32  155 1    
    67   33  156 1    
    68   33  157 1    
    69   33  158 1    
    70   34   35 am   BACKBONE|DICT|INTERRES
    71   34  159 1    
    72   35   36 2    
    73   35   37 1    
    74   37   38 1    
    75   37   39 1    
    76   37  160 1    
    77   38  161 1    
    78   38  162 1    
    79   38  163 1    
    80   39   40 am   BACKBONE|DICT|INTERRES
    81   39  164 1    
    82   40   41 2    
    83   40   42 1    
    84   42   43 1    
    85   42   44 1    
    86   42  165 1    
    87   43  166 1    
    88   43  167 1    
    89   43  168 1    
    90   44   45 am   BACKBONE|DICT|INTERRES
    91   44  169 1    
    92   45   46 2    
    93   45   47 1    
    94   47   48 1    
    95   47   49 1    
    96   47  170 1    
    97   48  171 1    
    98   48  172 1    
    99   48  173 1    
   100   49   50 am   BACKBONE|DICT|INTERRES
   101   49  174 1    
   102   50   51 2    
   103   50   52 1    
   104   52   53 1    
   105   52   54 1    
   106   52  175 1    
   107   53  176 1    
   108   53  177 1    
   109   53  178 1    
   110   54   55 am   BACKBONE|DICT|INTERRES
   111   54  179 1    
   112   55   56 2    
   113   55   57 1    
   114   57   58 1    
   115   57   59 1    
   116   57  180 1    
   117   58  181 1    
   118   58  182 1    
   119   58  183 1    
   120   59   60 am   BACKBONE|DICT|INTERRES
   121   59  184 1    
   122   60   61 2    
   123   60   62 1    
   124   62   63 1    
   125   62   64 1    
   126   62  185 1    
   127   63  186 1    
   128   63  187 1    
   129   63  188 1    
   130   64   65 am   BACKBONE|DICT|INTERRES
   131   64  189 1    
   132   65   66 2    
   133   67   68 2    
   134   67   69 am   BACKBONE|DICT|INTERRES
   135   69   70 1    
   136   69  190 1    
   137   70   71 1    
   138   70   72 1    
   139   70  191 1    
   140   71  192 1    
   141   71  193 1    
   142   71  194 1    
   143   72   73 2    
   144   72   74 am   BACKBONE|DICT|INTERRES
   145   74   75 1    
   146   74  195 1    
   147   75   76 1    
   148   75   77 1    
   149   75  196 1    
   150   76  197 1    
   151   76  198 1    
   152   76  199 1    
   153   77   78 2    
   154   77   79 am   BACKBONE|DICT|INTERRES
   155   79   80 1    
   156   79  200 1    
   157   80   81 1    
   158   80   82 1    
   159   80  201 1    
   160   81  202 1    
   161   81  203 1    
   162   81  204 1    
   163   82   83 2    
   164   82   84 am   BACKBONE|DICT|INTERRES
   165   84   85 1    
   166   84  205 1    
   167   85   86 1    
   168   85   87 1    
   169   85  206 1    
   170   86  207 1    
   171   86  208 1    
   172   86  209 1    
   173   87   88 2    
   174   87   89 am   BACKBONE|DICT|INTERRES
   175   89   90 1    
   176   89  210 1    
   177   90   91 1    
   178   90   92 1    
   179   90  211 1    
   180   91  212 1    
   181   91  213 1    
   182   91  214 1    
   183   92   93 2    
   184   92   94 am   BACKBONE|DICT|INTERRES
   185   94   95 1    
   186   94  215 1    
   187   95   96 1    
   188   95   97 1    
   189   95  216 1    
   190   96  217 1    
   191   96  218 1    
   192   96  219 1    
   193   97   98 2    
   194   97   99 am   BACKBONE|DICT|INTERRES
   195   99  100 1    
   196   99  220 1    
   197  100  101 1    
   198  100  102 1    
   199  100  221 1    
   200  101  222 1    
   201  101  223 1    
   202  101  224 1    
   203  102  103 2    
   204  102  104 am   BACKBONE|DICT|INTERRES
   205  104  105 1    
   206  104  225 1    
   207  105  106 1    
   208  105  107 1    
   209  105  226 1    
   210  106  227 1    
   211  106  228 1    
   212  106  229 1    
   213  107  108 2    
   214  107  109 am   BACKBONE|DICT|INTERRES
   215  109  110 1    
   216  109  230 1    
   217  110  111 1    
   218  110  112 1    
   219  110  231 1    
   220  111  232 1    
   221  111  233 1    
   222  111  234 1    
   223  112  113 2    
   224  112  114 am   BACKBONE|DICT|INTERRES
   225  114  115 1    
   226  114  235 1    
   227  115  116 1    
   228  115  117 1    
   229  115  236 1    
   230  116  237 1    
   231  116  238 1    
   232  116  239 1    
   233  117  118 2    
   234  117  119 am   BACKBONE|DICT|INTERRES
   235  119  120 1    
   236  119  240 1    
   237  120  121 1    
   238  120  124 1    
   239  120  241 1    
   240  121  122 am   BACKBONE|DICT|INTERRES
   241  121  123 2    
   242  122  242 1    
   243  122  243 1    
   244  124  125 1    
   245  124  244 1    
   246  124  245 1    
   247  125  126 1    
   248  126  246 1    
   249  126  247 1    
@<TRIPOS>SUBSTRUCTURE
     1 UNK         1 GROUP             0       ****    0 ROOT    
