@<TRIPOS>MOLECULE
3R540
247   249    1
SMALL
USER_CHARGES


@<TRIPOS>ATOM
      1 CA         -0.6997  -12.3882  -46.8449 C.3       0 UNK        -0.1800 
      2 C           0.7089  -12.5165  -47.4062 C.2       0 UNK         0.5000 
      3 O           1.1945  -11.5941  -48.0616 O.2       0 UNK        -0.5000 
      4 N           1.3752  -13.6460  -47.1402 N.am      1 UNK        -0.5000 
      5 CA          2.7508  -13.9217  -47.5556 C.3       1 UNK         0.1400 
      6 C6          3.0571  -15.4378  -47.5307 C.3       23 UNK        -0.0398 
      7 S7          4.4907  -15.8974  -48.5611 S.3       23 UNK        -0.2404 
      8 C8          3.8019  -15.8551  -50.2501 C.3       23 UNK        -0.0205 
      9 C9          2.6842  -16.8662  -50.4595 C.ar      23 UNK        -0.0193 
     10 C10         1.3487  -16.4504  -50.4583 C.ar      23 UNK        -0.1150 
     11 C11         0.3193  -17.3723  -50.6649 C.ar      23 UNK        -0.0193 
     12 C12         0.6339  -18.7180  -50.8678 C.ar      23 UNK        -0.1150 
     13 C13         1.9631  -19.1476  -50.8738 C.ar      23 UNK        -0.0193 
     14 C14         2.9856  -18.2142  -50.6757 C.ar      23 UNK        -0.1150 
     15 C15         2.2818  -20.6211  -51.0971 C.3       23 UNK        -0.0205 
     16 S16         3.2123  -21.3660  -49.7175 S.3       23 UNK        -0.2404 
     17 C17         2.1276  -21.0221  -48.2914 C.3       23 UNK        -0.0398 
     18 CA          1.4364  -22.2799  -47.7155 C.3       11 UNK         0.1400 
     19 N           0.9527  -22.0119  -46.3653 N.am      11 UNK        -0.5000 
     20 C           1.2123  -22.7519  -45.2819 C.2       10 UNK         0.5000 
     21 O           1.9127  -23.7644  -45.3009 O.2       10 UNK        -0.5000 
     22 CA          0.6049  -22.2889  -43.9392 C.3       10 UNK         0.1400 
     23 CB          1.7123  -21.8050  -42.9900 C.3       10 UNK        -0.1800 
     24 N          -0.4053  -21.2344  -44.0624 N.am      10 UNK        -0.5000 
     25 C          -1.6058  -21.3815  -44.6373 C.2       9 UNK         0.5000 
     26 O          -2.0059  -22.4433  -45.1137 O.2       9 UNK        -0.5000 
     27 CA         -2.4682  -20.1119  -44.7725 C.3       9 UNK         0.1400 
     28 CB         -3.2195  -19.8204  -43.4659 C.3       9 UNK        -0.1800 
     29 N          -1.6965  -18.9309  -45.1745 N.am      9 UNK        -0.5000 
     30 C          -1.0127  -18.8247  -46.3231 C.2       8 UNK         0.5000 
     31 O          -0.9656  -19.7150  -47.1684 O.2       8 UNK        -0.5000 
     32 CA         -0.1968  -17.5418  -46.5482 C.3       8 UNK         0.1400 
     33 CB         -1.1047  -16.3742  -46.9607 C.3       8 UNK        -0.1800 
     34 N           0.6019  -17.1895  -45.3737 N.am      8 UNK        -0.5000 
     35 C           1.6196  -17.9358  -44.9157 C.2       7 UNK         0.5000 
     36 O           2.0655  -18.9200  -45.5038 O.2       7 UNK        -0.5000 
     37 CA          2.2097  -17.5472  -43.5496 C.3       7 UNK         0.1400 
     38 CB          3.3219  -16.5032  -43.7083 C.3       7 UNK        -0.1800 
     39 N           1.1888  -17.0450  -42.6300 N.am      7 UNK        -0.5000 
     40 C           0.2483  -17.8133  -42.0616 C.2       6 UNK         0.5000 
     41 O           0.1586  -19.0269  -42.2406 O.2       6 UNK        -0.5000 
     42 CA         -0.7932  -17.0993  -41.1814 C.3       6 UNK         0.1400 
     43 CB         -0.2585  -16.9126  -39.7539 C.3       6 UNK        -0.1800 
     44 N          -1.1925  -15.8007  -41.7244 N.am      6 UNK        -0.5000 
     45 C          -1.8474  -15.6304  -42.8816 C.2       5 UNK         0.5000 
     46 O          -2.2200  -16.5592  -43.5977 O.2       5 UNK        -0.5000 
     47 CA         -2.0740  -14.1778  -43.3398 C.3       5 UNK         0.1400 
     48 CB         -3.3981  -13.6352  -42.7834 C.3       5 UNK        -0.1800 
     49 N          -0.9801  -13.2804  -42.9559 N.am      5 UNK        -0.5000 
     50 C           0.2764  -13.3778  -43.4083 C.2       4 UNK         0.5000 
     51 O           0.6398  -14.2226  -44.2317 O.2       4 UNK        -0.5000 
     52 CA          1.2882  -12.3788  -42.8270 C.3       4 UNK         0.1400 
     53 CB          2.4875  -13.0990  -42.1920 C.3       4 UNK        -0.1800 
     54 N           1.7566  -11.4812  -43.8793 N.am      4 UNK        -0.5000 
     55 C           1.2497  -10.2606  -44.1080 C.2       3 UNK         0.5000 
     56 O           0.3486   -9.7734  -43.4235 O.2       3 UNK        -0.5000 
     57 CA          1.7871   -9.4477  -45.3076 C.3       3 UNK         0.1400 
     58 CB          2.0874   -7.9808  -44.9346 C.3       3 UNK        -0.1800 
     59 N           2.9136  -10.0655  -46.0147 N.am      3 UNK        -0.5000 
     60 C           4.1823  -10.2197  -45.6018 C.2       2 UNK         0.5000 
     61 O           4.6179   -9.7888  -44.5335 O.2       2 UNK        -0.5000 
     62 CA          5.0986  -11.0331  -46.5485 C.3       2 UNK         0.1400 
     63 CB          6.3557  -11.5878  -45.8459 C.3       2 UNK        -0.1800 
     64 N           4.3686  -12.1040  -47.2439 N.am      2 UNK        -0.5000 
     65 C           3.6930  -13.1031  -46.6568 C.2       1 UNK         0.5000 
     66 O           3.7069  -13.3206  -45.4453 O.2       1 UNK        -0.5000 
     67 C           0.2731  -22.7744  -48.5995 C.2       11 UNK         0.5000 
     68 O           0.3809  -23.8423  -49.2020 O.2       11 UNK        -0.5000 
     69 N          -0.8159  -21.9959  -48.6586 N.am      12 UNK        -0.5000 
     70 CA         -1.9879  -22.2434  -49.4923 C.3       12 UNK         0.1400 
     71 CB         -2.7239  -20.9134  -49.7396 C.3       12 UNK        -0.1800 
     72 C          -2.9203  -23.2935  -48.8711 C.2       12 UNK         0.5000 
     73 O          -3.0332  -24.3979  -49.4005 O.2       12 UNK        -0.5000 
     74 N          -3.5765  -22.9355  -47.7581 N.am      13 UNK        -0.5000 
     75 CA         -4.6178  -23.7450  -47.1191 C.3       13 UNK         0.1400 
     76 CB         -5.3091  -22.9313  -46.0151 C.3       13 UNK        -0.1800 
     77 C          -4.1028  -25.0907  -46.5781 C.2       13 UNK         0.5000 
     78 O          -4.8327  -26.0821  -46.6153 O.2       13 UNK        -0.5000 
     79 N          -2.8381  -25.1139  -46.1399 N.am      14 UNK        -0.5000 
     80 CA         -2.1139  -26.3173  -45.7318 C.3       14 UNK         0.1400 
     81 CB         -0.7502  -25.9079  -45.1634 C.3       14 UNK        -0.1800 
     82 C          -1.9315  -27.3477  -46.8654 C.2       14 UNK         0.5000 
     83 O          -1.8584  -28.5442  -46.5825 O.2       14 UNK        -0.5000 
     84 N          -1.8976  -26.8891  -48.1249 N.am      15 UNK        -0.5000 
     85 CA         -1.8076  -27.7255  -49.3212 C.3       15 UNK         0.1400 
     86 CB         -1.0428  -26.9632  -50.4187 C.3       15 UNK        -0.1800 
     87 C          -3.2088  -28.1866  -49.7704 C.2       15 UNK         0.5000 
     88 O          -3.6237  -27.9103  -50.8962 O.2       15 UNK        -0.5000 
     89 N          -3.9122  -28.8823  -48.8654 N.am      16 UNK        -0.5000 
     90 CA         -5.2306  -29.5004  -49.0441 C.3       16 UNK         0.1400 
     91 CB         -5.1352  -30.6918  -50.0208 C.3       16 UNK        -0.1800 
     92 C          -6.3401  -28.4954  -49.4239 C.2       16 UNK         0.5000 
     93 O          -7.1283  -28.7591  -50.3341 O.2       16 UNK        -0.5000 
     94 N          -6.3836  -27.3645  -48.7036 N.am      17 UNK        -0.5000 
     95 CA         -7.3701  -26.2834  -48.8166 C.3       17 UNK         0.1400 
     96 CB         -8.7809  -26.7814  -48.4352 C.3       17 UNK        -0.1800 
     97 C          -7.3371  -25.5386  -50.1689 C.2       17 UNK         0.5000 
     98 O          -8.3691  -25.0303  -50.6127 O.2       17 UNK        -0.5000 
     99 N          -6.1564  -25.4695  -50.7989 N.am      18 UNK        -0.5000 
    100 CA        -5.9196  -24.7020  -52.0214 C.3       18 UNK         0.1400 
    101 CB        -4.5669  -25.1159  -52.6212 C.3       18 UNK        -0.1800 
    102 C         -5.9501  -23.1839  -51.7608 C.2       18 UNK         0.5000 
    103 O         -5.6266  -22.7390  -50.6581 O.2       18 UNK        -0.5000 
    104 N         -6.3163  -22.4128  -52.7914 N.am      19 UNK        -0.5000 
    105 CA        -6.3178  -20.9478  -52.7515 C.3       19 UNK         0.1400 
    106 CB        -7.3943  -20.4225  -53.7142 C.3       19 UNK        -0.1800 
    107 C         -4.9478  -20.3456  -53.1141 C.2       19 UNK         0.5000 
    108 O         -4.6742  -19.2064  -52.7384 O.2       19 UNK        -0.5000 
    109 N         -4.1348  -21.0948  -53.8790 N.am      20 UNK        -0.5000 
    110 CA        -2.8097  -20.7261  -54.4072 C.3       20 UNK         0.1400 
    111 CB        -1.7893  -20.6083  -53.2569 C.3       20 UNK        -0.1800 
    112 C         -2.8126  -19.4703  -55.3126 C.2       20 UNK         0.5000 
    113 O         -1.7651  -18.8521  -55.5043 O.2       20 UNK        -0.5000 
    114 N         -3.9963  -19.1135  -55.8368 N.am      21 UNK        -0.5000 
    115 CA        -4.3284  -17.8853  -56.5702 C.3       21 UNK         0.1400 
    116 CB        -3.5513  -17.8035  -57.9011 C.3       21 UNK        -0.1800 
    117 C         -4.2025  -16.5940  -55.7262 C.2       21 UNK         0.5000 
    118 O         -4.1728  -15.5006  -56.2948 O.2       21 UNK        -0.5000 
    119 N         -4.1457  -16.7282  -54.3951 N.am      22 UNK        -0.5000 
    120 CA        -4.0751  -15.6167  -53.4375 C.3       22 UNK         0.1400 
    121 C         -5.4734  -15.0009  -53.1589 C.2       22 UNK         0.5000 
    122 N         -5.5325  -13.7219  -52.8127 N.am      22 UNK        -0.7600 
    123 O         -6.5025  -15.6710  -53.2204 O.2       22 UNK        -0.5000 
    124 C124       -3.3871  -16.0492  -52.1177 C.3       23 UNK        -0.0398 
    125 S125       -1.6619  -16.5720  -52.3913 S.3       23 UNK        -0.2404 
    126 C126       -1.1298  -16.9152  -50.6892 C.3       23 UNK        -0.0205 
    127 H127       -1.3997  -12.1389  -47.6421 H         1 UNK         0.0600 
    128 H128       -0.7383  -11.5983  -46.0954 H         1 UNK         0.0600 
    129 H129       -1.0339  -13.3149  -46.3804 H         1 UNK         0.0600 
    130 H130        0.9867  -14.2883  -46.4615 H         1 UNK         0.3000 
    131 H131        2.8527  -13.5723  -48.5847 H         1 UNK         0.0600 
    132 H132        3.2381  -15.7861  -46.5144 H         1 UNK         0.0800 
    133 H133        2.1934  -16.0051  -47.8742 H         1 UNK         0.0800 
    134 H134        4.6064  -16.0613  -50.9575 H         1 UNK         0.0800 
    135 H135        3.4549  -14.8474  -50.4814 H         1 UNK         0.0800 
    136 H136        1.1099  -15.4074  -50.3041 H         1 UNK         0.1150 
    137 H137       -0.1575  -19.4315  -51.0356 H         1 UNK         0.1150 
    138 H138        4.0165  -18.5397  -50.6792 H         1 UNK         0.1150 
    139 H139        1.3681  -21.1973  -51.2530 H         1 UNK         0.0800 
    140 H140        2.8669  -20.7208  -52.0122 H         1 UNK         0.0800 
    141 H141        1.4009  -20.2427  -48.5204 H         1 UNK         0.0800 
    142 H142        2.7747  -20.5877  -47.5281 H         1 UNK         0.0800 
    143 H143        2.1794  -23.0797  -47.6833 H         1 UNK         0.0600 
    144 H144        0.3631  -21.1969  -46.2582 H         1 UNK         0.3000 
    145 H145        0.1260  -23.1580  -43.4850 H         1 UNK         0.0600 
    146 H146        1.3096  -21.5548  -42.0084 H         1 UNK         0.0600 
    147 H147        2.4694  -22.5759  -42.8413 H         1 UNK         0.0600 
    148 H148        2.2155  -20.9209  -43.3825 H         1 UNK         0.0600 
    149 H149       -0.1703  -20.3370  -43.6473 H         1 UNK         0.3000 
    150 H150       -3.2090  -20.2999  -45.5522 H         1 UNK         0.0600 
    151 H151       -3.8293  -20.6740  -43.1673 H         1 UNK         0.0600 
    152 H152       -3.8875  -18.9661  -43.5780 H         1 UNK         0.0600 
    153 H153       -2.5340  -19.6028  -42.6468 H         1 UNK         0.0600 
    154 H154       -1.7240  -18.1335  -44.5442 H         1 UNK         0.3000 
    155 H155        0.4861  -17.7394  -47.3778 H         1 UNK         0.0600 
    156 H156       -1.8173  -16.6841  -47.7258 H         1 UNK         0.0600 
    157 H157       -0.5237  -15.5576  -47.3830 H         1 UNK         0.0600 
    158 H158       -1.6801  -15.9850  -46.1222 H         1 UNK         0.0600 
    159 H159        0.3078  -16.3877  -44.8309 H         1 UNK         0.3000 
    160 H160        2.6519  -18.4440  -43.1105 H         1 UNK         0.0600 
    161 H161        2.9466  -15.5883  -44.1639 H         1 UNK         0.0600 
    162 H162        4.1236  -16.8805  -44.3444 H         1 UNK         0.0600 
    163 H163        3.7640  -16.2439  -42.7463 H         1 UNK         0.0600 
    164 H164        1.1674  -16.0484  -42.4744 H         1 UNK         0.3000 
    165 H165       -1.6808  -17.7337  -41.1342 H         1 UNK         0.0600 
    166 H166       -1.0168  -16.4774  -39.1028 H         1 UNK         0.0600 
    167 H167        0.0315  -17.8698  -39.3183 H         1 UNK         0.0600 
    168 H168        0.6172  -16.2628  -39.7317 H         1 UNK         0.0600 
    169 H169       -0.9281  -14.9828  -41.1958 H         1 UNK         0.3000 
    170 H170       -2.1412  -14.1836  -44.4289 H         1 UNK         0.0600 
    171 H171       -4.2336  -14.2747  -43.0718 H         1 UNK         0.0600 
    172 H172       -3.3867  -13.5809  -41.6942 H         1 UNK         0.0600 
    173 H173       -3.6073  -12.6368  -43.1679 H         1 UNK         0.0600 
    174 H174       -1.2090  -12.5475  -42.2994 H         1 UNK         0.3000 
    175 H175        0.8031  -11.8097  -42.0312 H         1 UNK         0.0600 
    176 H176        3.0766  -13.6401  -42.9300 H         1 UNK         0.0600 
    177 H177        3.1519  -12.3885  -41.7003 H         1 UNK         0.0600 
    178 H178        2.1625  -13.8166  -41.4378 H         1 UNK         0.0600 
    179 H179        2.4674  -11.8586  -44.4957 H         1 UNK         0.3000 
    180 H180        0.9718   -9.4307  -46.0322 H         1 UNK         0.0600 
    181 H181        2.8269   -7.9055  -44.1373 H         1 UNK         0.0600 
    182 H182        1.1864   -7.4744  -44.5869 H         1 UNK         0.0600 
    183 H183        2.4593   -7.4223  -45.7937 H         1 UNK         0.0600 
    184 H184        2.6595  -10.4921  -46.8989 H         1 UNK         0.3000 
    185 H185        5.4324  -10.3367  -47.3189 H         1 UNK         0.0600 
    186 H186        6.9729  -10.7783  -45.4546 H         1 UNK         0.0600 
    187 H187        6.1013  -12.2371  -45.0077 H         1 UNK         0.0600 
    188 H188        6.9735  -12.1602  -46.5378 H         1 UNK         0.0600 
    189 H189        4.2756  -11.9845  -48.2434 H         1 UNK         0.3000 
    190 H190       -0.8417  -21.1383  -48.1071 H         1 UNK         0.3000 
    191 H191       -1.6537  -22.6260  -50.4588 H         1 UNK         0.0600 
    192 H192       -3.0840  -20.4597  -48.8161 H         1 UNK         0.0600 
    193 H193       -3.5845  -21.0584  -50.3920 H         1 UNK         0.0600 
    194 H194       -2.0763  -20.1871  -50.2239 H         1 UNK         0.0600 
    195 H195       -3.3824  -22.0359  -47.3463 H         1 UNK         0.3000 
    196 H196       -5.3609  -23.9651  -47.8873 H         1 UNK         0.0600 
    197 H197       -6.1365  -23.4938  -45.5806 H         1 UNK         0.0600 
    198 H198       -5.7206  -22.0016  -46.4081 H         1 UNK         0.0600 
    199 H199       -4.6255  -22.6811  -45.2042 H         1 UNK         0.0600 
    200 H200       -2.3439  -24.2298  -46.0756 H         1 UNK         0.3000 
    201 H201       -2.6882  -26.7979  -44.9373 H         1 UNK         0.0600 
    202 H202       -0.8623  -25.2213  -44.3248 H         1 UNK         0.0600 
    203 H203       -0.1375  -25.4210  -45.9226 H         1 UNK         0.0600 
    204 H204       -0.1978  -26.7763  -44.8023 H         1 UNK         0.0600 
    205 H205       -2.0546  -25.9019  -48.2950 H         1 UNK         0.3000 
    206 H206       -1.2307  -28.6239  -49.0923 H         1 UNK         0.0600 
    207 H207       -0.0577  -26.6531  -50.0698 H         1 UNK         0.0600 
    208 H208       -0.8937  -27.5920  -51.2971 H         1 UNK         0.0600 
    209 H209       -1.5759  -26.0703  -50.7444 H         1 UNK         0.0600 
    210 H210       -3.4789  -29.0238  -47.9602 H         1 UNK         0.3000 
    211 H211       -5.5121  -29.9015  -48.0694 H         1 UNK         0.0600 
    212 H212       -4.8918  -30.3672  -51.0330 H         1 UNK         0.0600 
    213 H213       -6.0798  -31.2348  -50.0696 H         1 UNK         0.0600 
    214 H214       -4.3712  -31.4015  -49.7036 H         1 UNK         0.0600 
    215 H215       -5.6800  -27.2169  -47.9851 H         1 UNK         0.3000 
    216 H216       -7.0890  -25.5432  -48.0683 H         1 UNK         0.0600 
    217 H217       -9.4810  -25.9491  -48.3543 H         1 UNK         0.0600 
    218 H218       -8.7724  -27.2891  -47.4707 H         1 UNK         0.0600 
    219 H219       -9.1826  -27.4730  -49.1761 H         1 UNK         0.0600 
    220 H220       -5.3466  -25.8995  -50.3740 H         1 UNK         0.3000 
    221 H221       -6.7057  -24.9491  -52.7381 H         1 UNK         0.0600 
    222 H222       -3.7431  -24.9161  -51.9353 H         1 UNK         0.0600 
    223 H223       -4.5518  -26.1797  -52.8587 H         1 UNK         0.0600 
    224 H224       -4.3622  -24.5758  -53.5460 H         1 UNK         0.0600 
    225 H225       -6.5986  -22.8458  -53.6592 H         1 UNK         0.3000 
    226 H226       -6.5717  -20.6077  -51.7450 H         1 UNK         0.0600 
    227 H227       -8.3834  -20.7841  -53.4324 H         1 UNK         0.0600 
    228 H228       -7.4330  -19.3321  -53.7000 H         1 UNK         0.0600 
    229 H229       -7.2049  -20.7312  -54.7429 H         1 UNK         0.0600 
    230 H230       -4.4638  -22.0113  -54.1450 H         1 UNK         0.3000 
    231 H231       -2.4942  -21.5535  -55.0441 H         1 UNK         0.0600 
    232 H232       -1.7896  -21.5037  -52.6366 H         1 UNK         0.0600 
    233 H233       -2.0067  -19.7521  -52.6183 H         1 UNK         0.0600 
    234 H234       -0.7755  -20.4799  -53.6378 H         1 UNK         0.0600 
    235 H235       -4.7838  -19.7062  -55.6187 H         1 UNK         0.3000 
    236 H236       -5.3872  -17.9689  -56.8191 H         1 UNK         0.0600 
    237 H237       -3.9273  -16.9913  -58.5241 H         1 UNK         0.0600 
    238 H238       -2.4882  -17.6231  -57.7409 H         1 UNK         0.0600 
    239 H239       -3.6538  -18.7241  -58.4756 H         1 UNK         0.0600 
    240 H240       -4.2170  -17.6526  -53.9842 H         1 UNK         0.3000 
    241 H241       -3.4616  -14.8308  -53.8833 H         1 UNK         0.0600 
    242 H242       -6.4319  -13.3095  -52.6178 H         1 UNK         0.3800 
    243 H243       -4.7047  -13.1486  -52.7539 H         1 UNK         0.3800 
    244 H244       -3.3783  -15.2247  -51.4027 H         1 UNK         0.0800 
    245 H245       -3.9359  -16.8647  -51.6437 H         1 UNK         0.0800 
    246 H246       -1.7722  -17.6805  -50.2507 H         1 UNK         0.0800 
    247 H247       -1.2525  -16.0165  -50.0831 H         1 UNK         0.0800 
@<TRIPOS>BOND
     1    1    2 1    
     2    1  127 1    
     3    1  128 1    
     4    1  129 1    
     5    2    3 2    
     6    2    4 am   BACKBONE|DICT|INTERRES
     7    4    5 1    
     8    4  130 1    
     9    5    6 1    
    10    5   65 1    
    11    5  131 1    
    12    6    7 1    
    13    6  132 1    
    14    6  133 1    
    15    7    8 1    
    16    8    9 1    
    17    8  134 1    
    18    8  135 1    
    19    9   10 ar   
    20    9   14 ar   
    21   10   11 ar   
    22   10  136 1    
    23   11   12 ar   
    24   11  126 1    
    25   12   13 ar   
    26   12  137 1    
    27   13   14 ar   
    28   13   15 1    
    29   14  138 1    
    30   15   16 1    
    31   15  139 1    
    32   15  140 1    
    33   16   17 1    
    34   17   18 1    
    35   17  141 1    
    36   17  142 1    
    37   18   19 1    
    38   18   67 1    
    39   18  143 1    
    40   19   20 am   BACKBONE|DICT|INTERRES
    41   19  144 1    
    42   20   21 2    
    43   20   22 1    
    44   22   23 1    
    45   22   24 1    
    46   22  145 1    
    47   23  146 1    
    48   23  147 1    
    49   23  148 1    
    50   24   25 am   BACKBONE|DICT|INTERRES
    51   24  149 1    
    52   25   26 2    
    53   25   27 1    
    54   27   28 1    
    55   27   29 1    
    56   27  150 1    
    57   28  151 1    
    58   28  152 1    
    59   28  153 1    
    60   29   30 am   BACKBONE|DICT|INTERRES
    61   29  154 1    
    62   30   31 2    
    63   30   32 1    
    64   32   33 1    
    65   32   34 1    
    66   32  155 1    
    67   33  156 1    
    68   33  157 1    
    69   33  158 1    
    70   34   35 am   BACKBONE|DICT|INTERRES
    71   34  159 1    
    72   35   36 2    
    73   35   37 1    
    74   37   38 1    
    75   37   39 1    
    76   37  160 1    
    77   38  161 1    
    78   38  162 1    
    79   38  163 1    
    80   39   40 am   BACKBONE|DICT|INTERRES
    81   39  164 1    
    82   40   41 2    
    83   40   42 1    
    84   42   43 1    
    85   42   44 1    
    86   42  165 1    
    87   43  166 1    
    88   43  167 1    
    89   43  168 1    
    90   44   45 am   BACKBONE|DICT|INTERRES
    91   44  169 1    
    92   45   46 2    
    93   45   47 1    
    94   47   48 1    
    95   47   49 1    
    96   47  170 1    
    97   48  171 1    
    98   48  172 1    
    99   48  173 1    
   100   49   50 am   BACKBONE|DICT|INTERRES
   101   49  174 1    
   102   50   51 2    
   103   50   52 1    
   104   52   53 1    
   105   52   54 1    
   106   52  175 1    
   107   53  176 1    
   108   53  177 1    
   109   53  178 1    
   110   54   55 am   BACKBONE|DICT|INTERRES
   111   54  179 1    
   112   55   56 2    
   113   55   57 1    
   114   57   58 1    
   115   57   59 1    
   116   57  180 1    
   117   58  181 1    
   118   58  182 1    
   119   58  183 1    
   120   59   60 am   BACKBONE|DICT|INTERRES
   121   59  184 1    
   122   60   61 2    
   123   60   62 1    
   124   62   63 1    
   125   62   64 1    
   126   62  185 1    
   127   63  186 1    
   128   63  187 1    
   129   63  188 1    
   130   64   65 am   BACKBONE|DICT|INTERRES
   131   64  189 1    
   132   65   66 2    
   133   67   68 2    
   134   67   69 am   BACKBONE|DICT|INTERRES
   135   69   70 1    
   136   69  190 1    
   137   70   71 1    
   138   70   72 1    
   139   70  191 1    
   140   71  192 1    
   141   71  193 1    
   142   71  194 1    
   143   72   73 2    
   144   72   74 am   BACKBONE|DICT|INTERRES
   145   74   75 1    
   146   74  195 1    
   147   75   76 1    
   148   75   77 1    
   149   75  196 1    
   150   76  197 1    
   151   76  198 1    
   152   76  199 1    
   153   77   78 2    
   154   77   79 am   BACKBONE|DICT|INTERRES
   155   79   80 1    
   156   79  200 1    
   157   80   81 1    
   158   80   82 1    
   159   80  201 1    
   160   81  202 1    
   161   81  203 1    
   162   81  204 1    
   163   82   83 2    
   164   82   84 am   BACKBONE|DICT|INTERRES
   165   84   85 1    
   166   84  205 1    
   167   85   86 1    
   168   85   87 1    
   169   85  206 1    
   170   86  207 1    
   171   86  208 1    
   172   86  209 1    
   173   87   88 2    
   174   87   89 am   BACKBONE|DICT|INTERRES
   175   89   90 1    
   176   89  210 1    
   177   90   91 1    
   178   90   92 1    
   179   90  211 1    
   180   91  212 1    
   181   91  213 1    
   182   91  214 1    
   183   92   93 2    
   184   92   94 am   BACKBONE|DICT|INTERRES
   185   94   95 1    
   186   94  215 1    
   187   95   96 1    
   188   95   97 1    
   189   95  216 1    
   190   96  217 1    
   191   96  218 1    
   192   96  219 1    
   193   97   98 2    
   194   97   99 am   BACKBONE|DICT|INTERRES
   195   99  100 1    
   196   99  220 1    
   197  100  101 1    
   198  100  102 1    
   199  100  221 1    
   200  101  222 1    
   201  101  223 1    
   202  101  224 1    
   203  102  103 2    
   204  102  104 am   BACKBONE|DICT|INTERRES
   205  104  105 1    
   206  104  225 1    
   207  105  106 1    
   208  105  107 1    
   209  105  226 1    
   210  106  227 1    
   211  106  228 1    
   212  106  229 1    
   213  107  108 2    
   214  107  109 am   BACKBONE|DICT|INTERRES
   215  109  110 1    
   216  109  230 1    
   217  110  111 1    
   218  110  112 1    
   219  110  231 1    
   220  111  232 1    
   221  111  233 1    
   222  111  234 1    
   223  112  113 2    
   224  112  114 am   BACKBONE|DICT|INTERRES
   225  114  115 1    
   226  114  235 1    
   227  115  116 1    
   228  115  117 1    
   229  115  236 1    
   230  116  237 1    
   231  116  238 1    
   232  116  239 1    
   233  117  118 2    
   234  117  119 am   BACKBONE|DICT|INTERRES
   235  119  120 1    
   236  119  240 1    
   237  120  121 1    
   238  120  124 1    
   239  120  241 1    
   240  121  122 am   BACKBONE|DICT|INTERRES
   241  121  123 2    
   242  122  242 1    
   243  122  243 1    
   244  124  125 1    
   245  124  244 1    
   246  124  245 1    
   247  125  126 1    
   248  126  246 1    
   249  126  247 1    
@<TRIPOS>SUBSTRUCTURE
     1 UNK         1 GROUP             0       ****    0 ROOT    
