@<TRIPOS>MOLECULE
3R540
247   249    1
SMALL
USER_CHARGES


@<TRIPOS>ATOM
      1 CA          1.9759  -13.0320  -52.0570 C.3       0 UNK        -0.1800 
      2 C           1.4368  -12.8562  -50.6445 C.2       0 UNK         0.5000 
      3 O           2.0088  -12.0948  -49.8629 O.2       0 UNK        -0.5000 
      4 N           0.3447  -13.5535  -50.3048 N.am      1 UNK        -0.5000 
      5 CA         -0.3097  -13.5225  -48.9895 C.3       1 UNK         0.1400 
      6 C6         -1.1637  -14.7910  -48.7247 C.3       23 UNK        -0.0398 
      7 S7         -0.3191  -16.4105  -48.5874 S.3       23 UNK        -0.2404 
      8 C8          1.4802  -16.1165  -48.4941 C.3       23 UNK        -0.0205 
      9 C9          2.2273  -17.1906  -49.2647 C.ar      23 UNK        -0.0193 
     10 C10         2.6735  -16.9421  -50.5670 C.ar      23 UNK        -0.1150 
     11 C11         3.3349  -17.9352  -51.2980 C.ar      23 UNK        -0.0193 
     12 C12         3.5649  -19.1778  -50.6971 C.ar      23 UNK        -0.1150 
     13 C13         3.1367  -19.4334  -49.3900 C.ar      23 UNK        -0.0193 
     14 C14         2.4657  -18.4358  -48.6796 C.ar      23 UNK        -0.1150 
     15 C15         3.4225  -20.7788  -48.7398 C.3       23 UNK        -0.0205 
     16 S16         2.3299  -22.0855  -49.3745 S.3       23 UNK        -0.2404 
     17 C17         0.7378  -21.6955  -48.5719 C.3       23 UNK        -0.0398 
     18 CA          0.1894  -22.9203  -47.8026 C.3       11 UNK         0.1400 
     19 N           1.0148  -23.2562  -46.6383 N.am      11 UNK        -0.5000 
     20 C           1.0207  -24.4591  -46.0504 C.2       10 UNK         0.5000 
     21 O           0.3075  -25.3954  -46.4084 O.2       10 UNK        -0.5000 
     22 CA          1.9458  -24.6292  -44.8319 C.3       10 UNK         0.1400 
     23 CB          3.3747  -24.9600  -45.2871 C.3       10 UNK        -0.1800 
     24 N           1.9853  -23.4684  -43.9383 N.am      10 UNK        -0.5000 
     25 C           0.9348  -22.8850  -43.3488 C.2       9 UNK         0.5000 
     26 O          -0.2310  -23.2093  -43.5739 O.2       9 UNK        -0.5000 
     27 CA          1.2136  -21.7322  -42.3643 C.3       9 UNK         0.1400 
     28 CB          1.4300  -22.2687  -40.9377 C.3       9 UNK        -0.1800 
     29 N           2.2904  -20.8126  -42.7615 N.am      9 UNK        -0.5000 
     30 C           3.6096  -21.0378  -42.8766 C.2       8 UNK         0.5000 
     31 O           4.1323  -22.1331  -42.6688 O.2       8 UNK        -0.5000 
     32 CA          4.4986  -19.8669  -43.3483 C.3       8 UNK         0.1400 
     33 CB          5.0875  -20.1726  -44.7353 C.3       8 UNK        -0.1800 
     34 N           3.7862  -18.5906  -43.4234 N.am      8 UNK        -0.5000 
     35 C           3.5122  -17.7901  -42.3839 C.2       7 UNK         0.5000 
     36 O           3.9003  -18.0007  -41.2348 O.2       7 UNK        -0.5000 
     37 CA          2.6185  -16.5673  -42.6806 C.3       7 UNK         0.1400 
     38 CB          3.4772  -15.3261  -42.9661 C.3       7 UNK        -0.1800 
     39 N           1.7005  -16.7848  -43.8054 N.am      7 UNK        -0.5000 
     40 C           0.7057  -17.6813  -43.8081 C.2       6 UNK         0.5000 
     41 O           0.4284  -18.3985  -42.8459 O.2       6 UNK        -0.5000 
     42 CA         -0.0780  -17.8451  -45.1175 C.3       6 UNK         0.1400 
     43 CB         -0.0591  -19.3086  -45.5888 C.3       6 UNK        -0.1800 
     44 N          -1.4583  -17.4048  -44.9466 N.am      6 UNK        -0.5000 
     45 C          -1.8366  -16.1223  -44.9444 C.2       5 UNK         0.5000 
     46 O          -1.0640  -15.1739  -45.1164 O.2       5 UNK        -0.5000 
     47 CA         -3.3277  -15.8514  -44.7098 C.3       5 UNK         0.1400 
     48 CB         -3.6550  -15.8229  -43.2066 C.3       5 UNK        -0.1800 
     49 N          -3.6457  -14.5669  -45.3169 N.am      5 UNK        -0.5000 
     50 C          -4.8518  -14.1425  -45.7067 C.2       4 UNK         0.5000 
     51 O          -5.8832  -14.7999  -45.5576 O.2       4 UNK        -0.5000 
     52 CA         -4.9063  -12.7677  -46.4088 C.3       4 UNK         0.1400 
     53 CB         -6.2304  -12.0147  -46.1607 C.3       4 UNK        -0.1800 
     54 N          -3.7404  -11.9189  -46.1274 N.am      4 UNK        -0.5000 
     55 C          -3.4003  -11.3467  -44.9600 C.2       3 UNK         0.5000 
     56 O          -4.0809  -11.4269  -43.9371 O.2       3 UNK        -0.5000 
     57 CA         -2.0580  -10.5825  -44.9012 C.3       3 UNK         0.1400 
     58 CB         -1.0835  -11.2897  -43.9440 C.3       3 UNK        -0.1800 
     59 N          -1.4006  -10.4439  -46.2019 N.am      3 UNK        -0.5000 
     60 C          -1.7650   -9.6008  -47.1779 C.2       2 UNK         0.5000 
     61 O          -2.6570   -8.7609  -47.0573 O.2       2 UNK        -0.5000 
     62 CA         -1.0329   -9.7502  -48.5291 C.3       2 UNK         0.1400 
     63 CB          0.0794   -8.6989  -48.6589 C.3       2 UNK        -0.1800 
     64 N          -0.4556  -11.0823  -48.7485 N.am      2 UNK        -0.5000 
     65 C          -1.1415  -12.2311  -48.8202 C.2       1 UNK         0.5000 
     66 O          -2.3692  -12.2868  -48.7293 O.2       1 UNK        -0.5000 
     67 C          -1.3045  -22.7519  -47.4475 C.2       11 UNK         0.5000 
     68 O          -2.1539  -22.9539  -48.3177 O.2       11 UNK        -0.5000 
     69 N          -1.6076  -22.4168  -46.1842 N.am      12 UNK        -0.5000 
     70 CA         -2.9714  -22.3974  -45.6542 C.3       12 UNK         0.1400 
     71 CB         -3.0693  -21.4318  -44.4636 C.3       12 UNK        -0.1800 
     72 C          -3.4288  -23.8134  -45.2677 C.2       12 UNK         0.5000 
     73 O          -4.5657  -24.1831  -45.5592 O.2       12 UNK        -0.5000 
     74 N          -2.5211  -24.5955  -44.6642 N.am      13 UNK        -0.5000 
     75 CA         -2.7301  -25.9973  -44.2916 C.3       13 UNK         0.1400 
     76 CB         -1.5208  -26.4977  -43.4883 C.3       13 UNK        -0.1800 
     77 C          -3.0042  -26.9165  -45.4985 C.2       13 UNK         0.5000 
     78 O          -3.7691  -27.8735  -45.3696 O.2       13 UNK        -0.5000 
     79 N          -2.4286  -26.5822  -46.6621 N.am      14 UNK        -0.5000 
     80 CA         -2.6591  -27.2084  -47.9673 C.3       14 UNK         0.1400 
     81 CB         -1.5047  -26.8129  -48.9066 C.3       14 UNK        -0.1800 
     82 C          -4.0444  -26.8615  -48.5642 C.2       14 UNK         0.5000 
     83 O          -4.1293  -26.3775  -49.6951 O.2       14 UNK        -0.5000 
     84 N          -5.1077  -27.0819  -47.7756 N.am      15 UNK        -0.5000 
     85 CA         -6.5306  -26.8626  -48.0773 C.3       15 UNK         0.1400 
     86 CB         -7.0117  -27.9058  -49.1067 C.3       15 UNK        -0.1800 
     87 C          -6.8757  -25.4184  -48.5093 C.2       15 UNK         0.5000 
     88 O          -7.8683  -25.2080  -49.2080 O.2       15 UNK        -0.5000 
     89 N          -6.0229  -24.4591  -48.1204 N.am      16 UNK        -0.5000 
     90 CA         -5.9806  -23.0560  -48.5411 C.3       16 UNK         0.1400 
     91 CB         -7.1927  -22.2827  -47.9861 C.3       16 UNK        -0.1800 
     92 C          -5.7891  -22.8425  -50.0600 C.2       16 UNK         0.5000 
     93 O          -5.9810  -21.7240  -50.5363 O.2       16 UNK        -0.5000 
     94 N          -5.3973  -23.8890  -50.8021 N.am      17 UNK        -0.5000 
     95 CA         -5.2392  -23.8520  -52.2552 C.3       17 UNK         0.1400 
     96 CB         -5.1595  -25.2850  -52.8025 C.3       17 UNK        -0.1800 
     97 C          -4.0091  -23.0324  -52.6669 C.2       17 UNK         0.5000 
     98 O          -4.1083  -22.1657  -53.5356 O.2       17 UNK        -0.5000 
     99 N          -2.8805  -23.2816  -51.9918 N.am      18 UNK        -0.5000 
    100 CA        -1.6385  -22.5389  -52.1914 C.3       18 UNK         0.1400 
    101 CB        -0.4711  -23.3271  -51.5895 C.3       18 UNK        -0.1800 
    102 C         -1.7164  -21.1048  -51.6350 C.2       18 UNK         0.5000 
    103 O         -1.1013  -20.2058  -52.2071 O.2       18 UNK        -0.5000 
    104 N         -2.5017  -20.9012  -50.5655 N.am      19 UNK        -0.5000 
    105 CA        -2.8192  -19.5851  -50.0014 C.3       19 UNK         0.1400 
    106 CB        -3.4883  -19.7488  -48.6286 C.3       19 UNK        -0.1800 
    107 C         -3.6919  -18.7195  -50.9345 C.2       19 UNK         0.5000 
    108 O         -3.5920  -17.4941  -50.8873 O.2       19 UNK        -0.5000 
    109 N         -4.5214  -19.3622  -51.7678 N.am      20 UNK        -0.5000 
    110 CA        -5.3103  -18.7076  -52.8092 C.3       20 UNK         0.1400 
    111 CB        -6.5379  -19.5691  -53.1441 C.3       20 UNK        -0.1800 
    112 C         -4.4723  -18.4305  -54.0704 C.2       20 UNK         0.5000 
    113 O         -4.5916  -17.3497  -54.6488 O.2       20 UNK        -0.5000 
    114 N         -3.6462  -19.4060  -54.4783 N.am      21 UNK        -0.5000 
    115 CA        -2.7909  -19.3303  -55.6671 C.3       21 UNK         0.1400 
    116 CB        -2.2385  -20.7282  -55.9828 C.3       21 UNK        -0.1800 
    117 C         -1.6374  -18.3166  -55.5358 C.2       21 UNK         0.5000 
    118 O         -1.2703  -17.6817  -56.5254 O.2       21 UNK        -0.5000 
    119 N         -1.0952  -18.1842  -54.3235 N.am      22 UNK        -0.5000 
    120 CA        -0.0371  -17.2406  -53.9520 C.3       22 UNK         0.1400 
    121 C         -0.3156  -16.6858  -52.5364 C.2       22 UNK         0.5000 
    122 N         -0.4570  -17.5506  -51.5463 N.am      22 UNK        -0.7600 
    123 O         -0.4115  -15.4786  -52.3334 O.2       22 UNK        -0.5000 
    124 C124        1.3679  -17.8912  -54.0686 C.3       23 UNK        -0.0398 
    125 S125        2.7406  -16.7160  -53.7930 S.3       23 UNK        -0.2404 
    126 C126        3.8608  -17.6724  -52.7096 C.3       23 UNK        -0.0205 
    127 H127        2.2512  -12.0653  -52.4784 H         1 UNK         0.0600 
    128 H128        1.2397  -13.4873  -52.7185 H         1 UNK         0.0600 
    129 H129        2.8629  -13.6653  -52.0445 H         1 UNK         0.0600 
    130 H130       -0.0654  -14.1852  -50.9910 H         1 UNK         0.3000 
    131 H131        0.4545  -13.4782  -48.2115 H         1 UNK         0.0600 
    132 H132       -1.9229  -14.8919  -49.5030 H         1 UNK         0.0800 
    133 H133       -1.7182  -14.6734  -47.7925 H         1 UNK         0.0800 
    134 H134        1.7928  -16.1195  -47.4500 H         1 UNK         0.0800 
    135 H135        1.7753  -15.1481  -48.8838 H         1 UNK         0.0800 
    136 H136        2.4911  -15.9768  -51.0168 H         1 UNK         0.1150 
    137 H137        4.0882  -19.9506  -51.2425 H         1 UNK         0.1150 
    138 H138        2.1263  -18.6248  -47.6721 H         1 UNK         0.1150 
    139 H139        4.4574  -21.0593  -48.9405 H         1 UNK         0.0800 
    140 H140        3.3296  -20.7187  -47.6552 H         1 UNK         0.0800 
    141 H141        0.0502  -21.3800  -49.3555 H         1 UNK         0.0800 
    142 H142        0.8476  -20.8384  -47.9094 H         1 UNK         0.0800 
    143 H143        0.2335  -23.7772  -48.4775 H         1 UNK         0.0600 
    144 H144        1.6378  -22.5437  -46.2901 H         1 UNK         0.3000 
    145 H145        1.5706  -25.4727  -44.2501 H         1 UNK         0.0600 
    146 H146        4.0180  -25.1824  -44.4355 H         1 UNK         0.0600 
    147 H147        3.3857  -25.8345  -45.9391 H         1 UNK         0.0600 
    148 H148        3.8234  -24.1324  -45.8383 H         1 UNK         0.0600 
    149 H149        2.9046  -23.1410  -43.6531 H         1 UNK         0.3000 
    150 H150        0.3072  -21.1250  -42.3454 H         1 UNK         0.0600 
    151 H151        0.5729  -22.8591  -40.6112 H         1 UNK         0.0600 
    152 H152        1.5526  -21.4528  -40.2254 H         1 UNK         0.0600 
    153 H153        2.3097  -22.9092  -40.8697 H         1 UNK         0.0600 
    154 H154        1.9679  -19.8693  -42.9389 H         1 UNK         0.3000 
    155 H155        5.3223  -19.7734  -42.6376 H         1 UNK         0.0600 
    156 H156        4.3063  -20.2856  -45.4869 H         1 UNK         0.0600 
    157 H157        5.6668  -21.0968  -44.7225 H         1 UNK         0.0600 
    158 H158        5.7574  -19.3776  -45.0638 H         1 UNK         0.0600 
    159 H159        3.4442  -18.3193  -44.3328 H         1 UNK         0.3000 
    160 H160        2.0197  -16.3726  -41.7883 H         1 UNK         0.0600 
    161 H161        4.0854  -15.4539  -43.8625 H         1 UNK         0.0600 
    162 H162        4.1547  -15.1208  -42.1362 H         1 UNK         0.0600 
    163 H163        2.8568  -14.4403  -43.1037 H         1 UNK         0.0600 
    164 H164        1.8411  -16.2033  -44.6189 H         1 UNK         0.3000 
    165 H165        0.3957  -17.2401  -45.8903 H         1 UNK         0.0600 
    166 H166       -0.6056  -19.4254  -46.5249 H         1 UNK         0.0600 
    167 H167        0.9626  -19.6498  -45.7570 H         1 UNK         0.0600 
    168 H168       -0.5046  -19.9769  -44.8521 H         1 UNK         0.0600 
    169 H169       -2.1395  -18.1228  -44.7518 H         1 UNK         0.3000 
    170 H170       -3.9077  -16.6354  -45.2014 H         1 UNK         0.0600 
    171 H171       -3.4003  -16.7707  -42.7309 H         1 UNK         0.0600 
    172 H172       -3.1014  -15.0362  -42.6920 H         1 UNK         0.0600 
    173 H173       -4.7175  -15.6499  -43.0352 H         1 UNK         0.0600 
    174 H174       -2.8351  -13.9876  -45.4928 H         1 UNK         0.3000 
    175 H175       -4.8565  -12.9842  -47.4768 H         1 UNK         0.0600 
    176 H176       -6.4116  -11.8467  -45.0990 H         1 UNK         0.0600 
    177 H177       -6.2330  -11.0461  -46.6606 H         1 UNK         0.0600 
    178 H178       -7.0786  -12.5803  -46.5479 H         1 UNK         0.0600 
    179 H179       -3.1150  -11.8003  -46.9174 H         1 UNK         0.3000 
    180 H180       -2.2662   -9.5857  -44.5071 H         1 UNK         0.0600 
    181 H181       -0.1486  -10.7365  -43.8519 H         1 UNK         0.0600 
    182 H182       -0.8456  -12.2988  -44.2841 H         1 UNK         0.0600 
    183 H183       -1.5074  -11.3739  -42.9425 H         1 UNK         0.0600 
    184 H184       -0.6426  -11.0827  -46.3912 H         1 UNK         0.3000 
    185 H185       -1.7669   -9.5733  -49.3178 H         1 UNK         0.0600 
    186 H186        0.5490   -8.7409  -49.6419 H         1 UNK         0.0600 
    187 H187       -0.3176   -7.6907  -48.5322 H         1 UNK         0.0600 
    188 H188        0.8577   -8.8430  -47.9085 H         1 UNK         0.0600 
    189 H189        0.5483  -11.1300  -48.8953 H         1 UNK         0.3000 
    190 H190       -0.8616  -22.3459  -45.5055 H         1 UNK         0.3000 
    191 H191       -3.6494  -22.0271  -46.4236 H         1 UNK         0.0600 
    192 H192       -4.0742  -21.4402  -44.0393 H         1 UNK         0.0600 
    193 H193       -2.8616  -20.4083  -44.7730 H         1 UNK         0.0600 
    194 H194       -2.3759  -21.6914  -43.6641 H         1 UNK         0.0600 
    195 H195       -1.6255  -24.1886  -44.4093 H         1 UNK         0.3000 
    196 H196       -3.6081  -26.0359  -43.6437 H         1 UNK         0.0600 
    197 H197       -0.6147  -26.5112  -44.0930 H         1 UNK         0.0600 
    198 H198       -1.3346  -25.8677  -42.6182 H         1 UNK         0.0600 
    199 H199       -1.6873  -27.5131  -43.1266 H         1 UNK         0.0600 
    200 H200       -1.7579  -25.8230  -46.6482 H         1 UNK         0.3000 
    201 H201       -2.6293  -28.2919  -47.8384 H         1 UNK         0.0600 
    202 H202       -1.4742  -25.7352  -49.0721 H         1 UNK         0.0600 
    203 H203       -1.6056  -27.2939  -49.8803 H         1 UNK         0.0600 
    204 H204       -0.5410  -27.1150  -48.4961 H         1 UNK         0.0600 
    205 H205       -4.9087  -27.4508  -46.8494 H         1 UNK         0.3000 
    206 H206       -7.0712  -27.0371  -47.1462 H         1 UNK         0.0600 
    207 H207       -6.7748  -28.9189  -48.7817 H         1 UNK         0.0600 
    208 H208       -8.0926  -27.8566  -49.2432 H         1 UNK         0.0600 
    209 H209       -6.5504  -27.7501  -50.0826 H         1 UNK         0.0600 
    210 H210       -5.2811  -24.7306  -47.4854 H         1 UNK         0.3000 
    211 H211       -5.0865  -22.6406  -48.0795 H         1 UNK         0.0600 
    212 H212       -7.0931  -21.2120  -48.1684 H         1 UNK         0.0600 
    213 H213       -7.2851  -22.4187  -46.9085 H         1 UNK         0.0600 
    214 H214       -8.1254  -22.6073  -48.4480 H         1 UNK         0.0600 
    215 H215       -5.1925  -24.7707  -50.3425 H         1 UNK         0.3000 
    216 H216       -6.1216  -23.3733  -52.6854 H         1 UNK         0.0600 
    217 H217       -4.2968  -25.8233  -52.4081 H         1 UNK         0.0600 
    218 H218       -5.0766  -25.2827  -53.8900 H         1 UNK         0.0600 
    219 H219       -6.0530  -25.8541  -52.5446 H         1 UNK         0.0600 
    220 H220       -2.8873  -23.9928  -51.2741 H         1 UNK         0.3000 
    221 H221       -1.4573  -22.4578  -53.2645 H         1 UNK         0.0600 
    222 H222       -0.3240  -24.2706  -52.1152 H         1 UNK         0.0600 
    223 H223       -0.6468  -23.5583  -50.5418 H         1 UNK         0.0600 
    224 H224        0.4613  -22.7664  -51.6628 H         1 UNK         0.0600 
    225 H225       -2.9233  -21.7035  -50.1176 H         1 UNK         0.3000 
    226 H226       -1.8799  -19.0552  -49.8397 H         1 UNK         0.0600 
    227 H227       -4.4076  -20.3298  -48.6922 H         1 UNK         0.0600 
    228 H228       -2.8206  -20.2392  -47.9224 H         1 UNK         0.0600 
    229 H229       -3.7433  -18.7776  -48.2022 H         1 UNK         0.0600 
    230 H230       -4.6097  -20.3675  -51.6933 H         1 UNK         0.3000 
    231 H231       -5.6722  -17.7493  -52.4301 H         1 UNK         0.0600 
    232 H232       -6.2552  -20.5526  -53.5197 H         1 UNK         0.0600 
    233 H233       -7.1538  -19.0908  -53.9066 H         1 UNK         0.0600 
    234 H234       -7.1648  -19.7171  -52.2646 H         1 UNK         0.0600 
    235 H235       -3.6621  -20.2942  -53.9867 H         1 UNK         0.3000 
    236 H236       -3.4136  -19.0153  -56.5070 H         1 UNK         0.0600 
    237 H237       -3.0434  -21.4498  -56.1242 H         1 UNK         0.0600 
    238 H238       -1.6471  -20.7162  -56.8992 H         1 UNK         0.0600 
    239 H239       -1.5952  -21.0937  -55.1827 H         1 UNK         0.0600 
    240 H240       -1.4446  -18.7607  -53.5656 H         1 UNK         0.3000 
    241 H241       -0.0742  -16.3882  -54.6334 H         1 UNK         0.0600 
    242 H242       -0.6006  -17.1948  -50.6129 H         1 UNK         0.3800 
    243 H243       -0.4319  -18.5514  -51.7139 H         1 UNK         0.3800 
    244 H244        1.4945  -18.3125  -55.0665 H         1 UNK         0.0800 
    245 H245        1.4544  -18.7308  -53.3766 H         1 UNK         0.0800 
    246 H246        4.0999  -18.6127  -53.2090 H         1 UNK         0.0800 
    247 H247        4.8006  -17.1262  -52.6224 H         1 UNK         0.0800 
@<TRIPOS>BOND
     1    1    2 1    
     2    1  127 1    
     3    1  128 1    
     4    1  129 1    
     5    2    3 2    
     6    2    4 am   BACKBONE|DICT|INTERRES
     7    4    5 1    
     8    4  130 1    
     9    5    6 1    
    10    5   65 1    
    11    5  131 1    
    12    6    7 1    
    13    6  132 1    
    14    6  133 1    
    15    7    8 1    
    16    8    9 1    
    17    8  134 1    
    18    8  135 1    
    19    9   10 ar   
    20    9   14 ar   
    21   10   11 ar   
    22   10  136 1    
    23   11   12 ar   
    24   11  126 1    
    25   12   13 ar   
    26   12  137 1    
    27   13   14 ar   
    28   13   15 1    
    29   14  138 1    
    30   15   16 1    
    31   15  139 1    
    32   15  140 1    
    33   16   17 1    
    34   17   18 1    
    35   17  141 1    
    36   17  142 1    
    37   18   19 1    
    38   18   67 1    
    39   18  143 1    
    40   19   20 am   BACKBONE|DICT|INTERRES
    41   19  144 1    
    42   20   21 2    
    43   20   22 1    
    44   22   23 1    
    45   22   24 1    
    46   22  145 1    
    47   23  146 1    
    48   23  147 1    
    49   23  148 1    
    50   24   25 am   BACKBONE|DICT|INTERRES
    51   24  149 1    
    52   25   26 2    
    53   25   27 1    
    54   27   28 1    
    55   27   29 1    
    56   27  150 1    
    57   28  151 1    
    58   28  152 1    
    59   28  153 1    
    60   29   30 am   BACKBONE|DICT|INTERRES
    61   29  154 1    
    62   30   31 2    
    63   30   32 1    
    64   32   33 1    
    65   32   34 1    
    66   32  155 1    
    67   33  156 1    
    68   33  157 1    
    69   33  158 1    
    70   34   35 am   BACKBONE|DICT|INTERRES
    71   34  159 1    
    72   35   36 2    
    73   35   37 1    
    74   37   38 1    
    75   37   39 1    
    76   37  160 1    
    77   38  161 1    
    78   38  162 1    
    79   38  163 1    
    80   39   40 am   BACKBONE|DICT|INTERRES
    81   39  164 1    
    82   40   41 2    
    83   40   42 1    
    84   42   43 1    
    85   42   44 1    
    86   42  165 1    
    87   43  166 1    
    88   43  167 1    
    89   43  168 1    
    90   44   45 am   BACKBONE|DICT|INTERRES
    91   44  169 1    
    92   45   46 2    
    93   45   47 1    
    94   47   48 1    
    95   47   49 1    
    96   47  170 1    
    97   48  171 1    
    98   48  172 1    
    99   48  173 1    
   100   49   50 am   BACKBONE|DICT|INTERRES
   101   49  174 1    
   102   50   51 2    
   103   50   52 1    
   104   52   53 1    
   105   52   54 1    
   106   52  175 1    
   107   53  176 1    
   108   53  177 1    
   109   53  178 1    
   110   54   55 am   BACKBONE|DICT|INTERRES
   111   54  179 1    
   112   55   56 2    
   113   55   57 1    
   114   57   58 1    
   115   57   59 1    
   116   57  180 1    
   117   58  181 1    
   118   58  182 1    
   119   58  183 1    
   120   59   60 am   BACKBONE|DICT|INTERRES
   121   59  184 1    
   122   60   61 2    
   123   60   62 1    
   124   62   63 1    
   125   62   64 1    
   126   62  185 1    
   127   63  186 1    
   128   63  187 1    
   129   63  188 1    
   130   64   65 am   BACKBONE|DICT|INTERRES
   131   64  189 1    
   132   65   66 2    
   133   67   68 2    
   134   67   69 am   BACKBONE|DICT|INTERRES
   135   69   70 1    
   136   69  190 1    
   137   70   71 1    
   138   70   72 1    
   139   70  191 1    
   140   71  192 1    
   141   71  193 1    
   142   71  194 1    
   143   72   73 2    
   144   72   74 am   BACKBONE|DICT|INTERRES
   145   74   75 1    
   146   74  195 1    
   147   75   76 1    
   148   75   77 1    
   149   75  196 1    
   150   76  197 1    
   151   76  198 1    
   152   76  199 1    
   153   77   78 2    
   154   77   79 am   BACKBONE|DICT|INTERRES
   155   79   80 1    
   156   79  200 1    
   157   80   81 1    
   158   80   82 1    
   159   80  201 1    
   160   81  202 1    
   161   81  203 1    
   162   81  204 1    
   163   82   83 2    
   164   82   84 am   BACKBONE|DICT|INTERRES
   165   84   85 1    
   166   84  205 1    
   167   85   86 1    
   168   85   87 1    
   169   85  206 1    
   170   86  207 1    
   171   86  208 1    
   172   86  209 1    
   173   87   88 2    
   174   87   89 am   BACKBONE|DICT|INTERRES
   175   89   90 1    
   176   89  210 1    
   177   90   91 1    
   178   90   92 1    
   179   90  211 1    
   180   91  212 1    
   181   91  213 1    
   182   91  214 1    
   183   92   93 2    
   184   92   94 am   BACKBONE|DICT|INTERRES
   185   94   95 1    
   186   94  215 1    
   187   95   96 1    
   188   95   97 1    
   189   95  216 1    
   190   96  217 1    
   191   96  218 1    
   192   96  219 1    
   193   97   98 2    
   194   97   99 am   BACKBONE|DICT|INTERRES
   195   99  100 1    
   196   99  220 1    
   197  100  101 1    
   198  100  102 1    
   199  100  221 1    
   200  101  222 1    
   201  101  223 1    
   202  101  224 1    
   203  102  103 2    
   204  102  104 am   BACKBONE|DICT|INTERRES
   205  104  105 1    
   206  104  225 1    
   207  105  106 1    
   208  105  107 1    
   209  105  226 1    
   210  106  227 1    
   211  106  228 1    
   212  106  229 1    
   213  107  108 2    
   214  107  109 am   BACKBONE|DICT|INTERRES
   215  109  110 1    
   216  109  230 1    
   217  110  111 1    
   218  110  112 1    
   219  110  231 1    
   220  111  232 1    
   221  111  233 1    
   222  111  234 1    
   223  112  113 2    
   224  112  114 am   BACKBONE|DICT|INTERRES
   225  114  115 1    
   226  114  235 1    
   227  115  116 1    
   228  115  117 1    
   229  115  236 1    
   230  116  237 1    
   231  116  238 1    
   232  116  239 1    
   233  117  118 2    
   234  117  119 am   BACKBONE|DICT|INTERRES
   235  119  120 1    
   236  119  240 1    
   237  120  121 1    
   238  120  124 1    
   239  120  241 1    
   240  121  122 am   BACKBONE|DICT|INTERRES
   241  121  123 2    
   242  122  242 1    
   243  122  243 1    
   244  124  125 1    
   245  124  244 1    
   246  124  245 1    
   247  125  126 1    
   248  126  246 1    
   249  126  247 1    
@<TRIPOS>SUBSTRUCTURE
     1 UNK         1 GROUP             0       ****    0 ROOT    
