@<TRIPOS>MOLECULE
3R540
247   249    1
SMALL
USER_CHARGES


@<TRIPOS>ATOM
      1 CA         -2.2056  -11.2766  -45.5881 C.3       0 UNK        -0.1800 
      2 C          -1.1949  -11.9492  -46.5053 C.2       0 UNK         0.5000 
      3 O          -0.2107  -11.3211  -46.8979 O.2       0 UNK        -0.5000 
      4 N          -1.4291  -13.2228  -46.8455 N.am      1 UNK        -0.5000 
      5 CA         -0.5377  -14.0686  -47.6475 C.3       1 UNK         0.1400 
      6 C6         -1.1927  -15.4265  -48.0023 C.3       23 UNK        -0.0398 
      7 S7         -2.7346  -15.2256  -48.9627 S.3       23 UNK        -0.2404 
      8 C8         -2.2985  -15.9654  -50.5688 C.3       23 UNK        -0.0205 
      9 C9         -2.2152  -17.4820  -50.4867 C.ar      23 UNK        -0.0193 
     10 C10        -3.3838  -18.2507  -50.4769 C.ar      23 UNK        -0.1150 
     11 C11        -3.3153  -19.6444  -50.3955 C.ar      23 UNK        -0.0193 
     12 C12        -2.0667  -20.2628  -50.3052 C.ar      23 UNK        -0.1150 
     13 C13        -0.8910  -19.5094  -50.3177 C.ar      23 UNK        -0.0193 
     14 C14        -0.9720  -18.1182  -50.4243 C.ar      23 UNK        -0.1150 
     15 C15         0.4584  -20.2113  -50.2390 C.3       23 UNK        -0.0205 
     16 S16         1.5454  -19.5684  -48.9212 S.3       23 UNK        -0.2404 
     17 C17         0.5121  -19.6966  -47.4219 C.3       23 UNK        -0.0398 
     18 CA          0.4048  -21.1463  -46.8722 C.3       11 UNK         0.1400 
     19 N           0.6864  -21.2404  -45.4368 N.am      11 UNK        -0.5000 
     20 C           0.8021  -22.3895  -44.7543 C.2       10 UNK         0.5000 
     21 O           0.7340  -23.5038  -45.2740 O.2       10 UNK        -0.5000 
     22 CA          0.9653  -22.2778  -43.2270 C.3       10 UNK         0.1400 
     23 CB          2.4196  -21.9637  -42.8461 C.3       10 UNK        -0.1800 
     24 N           0.0698  -21.2794  -42.6404 N.am      10 UNK        -0.5000 
     25 C          -1.2684  -21.3695  -42.6536 C.2       9 UNK         0.5000 
     26 O          -1.8836  -22.3309  -43.1150 O.2       9 UNK        -0.5000 
     27 CA         -2.0540  -20.1651  -42.1042 C.3       9 UNK         0.1400 
     28 CB         -2.1038  -20.1977  -40.5696 C.3       9 UNK        -0.1800 
     29 N          -1.5108  -18.8829  -42.5531 N.am      9 UNK        -0.5000 
     30 C          -1.4478  -18.4882  -43.8331 C.2       8 UNK         0.5000 
     31 O          -1.8805  -19.1471  -44.7773 O.2       8 UNK        -0.5000 
     32 CA         -0.7303  -17.1594  -44.1150 C.3       8 UNK         0.1400 
     33 CB         -1.6514  -15.9668  -43.8108 C.3       8 UNK        -0.1800 
     34 N           0.5225  -17.0314  -43.3708 N.am      8 UNK        -0.5000 
     35 C           1.5739  -17.8538  -43.4971 C.2       7 UNK         0.5000 
     36 O           1.6121  -18.8035  -44.2767 O.2       7 UNK        -0.5000 
     37 CA          2.7558  -17.6265  -42.5417 C.3       7 UNK         0.1400 
     38 CB          3.6732  -16.5010  -43.0413 C.3       7 UNK        -0.1800 
     39 N           2.2980  -17.3404  -41.1834 N.am      7 UNK        -0.5000 
     40 C           1.7001  -18.2399  -40.3884 C.2       6 UNK         0.5000 
     41 O           1.5198  -19.4176  -40.6999 O.2       6 UNK        -0.5000 
     42 CA          1.1795  -17.7215  -39.0358 C.3       6 UNK         0.1400 
     43 CB          2.3048  -17.7059  -37.9906 C.3       6 UNK        -0.1800 
     44 N           0.5949  -16.3836  -39.1413 N.am      6 UNK        -0.5000 
     45 C          -0.5364  -16.1055  -39.8045 C.2       5 UNK         0.5000 
     46 O          -1.2299  -16.9575  -40.3591 O.2       5 UNK        -0.5000 
     47 CA         -0.9329  -14.6205  -39.9013 C.3       5 UNK         0.1400 
     48 CB         -1.7452  -14.1964  -38.6688 C.3       5 UNK        -0.1800 
     49 N           0.2161  -13.7232  -40.0611 N.am      5 UNK        -0.5000 
     50 C           1.0374  -13.7283  -41.1192 C.2       4 UNK         0.5000 
     51 O           0.9385  -14.5235  -42.0541 O.2       4 UNK        -0.5000 
     52 CA          2.1942  -12.7164  -41.1005 C.3       4 UNK         0.1400 
     53 CB          3.4801  -13.3764  -40.5802 C.3       4 UNK        -0.1800 
     54 N           2.4463  -12.1604  -42.4286 N.am      4 UNK        -0.5000 
     55 C           1.6667  -11.2607  -43.0372 C.2       3 UNK         0.5000 
     56 O           0.6350  -10.8070  -42.5395 O.2       3 UNK        -0.5000 
     57 CA          2.1238  -10.7468  -44.4150 C.3       3 UNK         0.1400 
     58 CB          3.3653   -9.8415  -44.2948 C.3       3 UNK        -0.1800 
     59 N           2.3119  -11.7835  -45.4351 N.am      3 UNK        -0.5000 
     60 C           3.2257  -12.7640  -45.5035 C.2       2 UNK         0.5000 
     61 O           4.0688  -12.9761  -44.6297 O.2       2 UNK        -0.5000 
     62 CA          3.2107  -13.6230  -46.7922 C.3       2 UNK         0.1400 
     63 CB          3.8319  -15.0233  -46.6013 C.3       2 UNK        -0.1800 
     64 N           1.8855  -13.7063  -47.4242 N.am      2 UNK        -0.5000 
     65 C           0.7928  -14.2749  -46.8950 C.2       1 UNK         0.5000 
     66 O           0.7896  -14.8934  -45.8333 O.2       1 UNK        -0.5000 
     67 C          -0.9600  -21.7723  -47.2166 C.2       11 UNK         0.5000 
     68 O          -1.0355  -22.5811  -48.1380 O.2       11 UNK        -0.5000 
     69 N          -2.0013  -21.4267  -46.4464 N.am      12 UNK        -0.5000 
     70 CA         -3.3596  -21.9467  -46.6009 C.3       12 UNK         0.1400 
     71 CB         -4.3122  -21.1977  -45.6581 C.3       12 UNK        -0.1800 
     72 C          -3.4621  -23.4678  -46.3929 C.2       12 UNK         0.5000 
     73 O          -4.2027  -24.1262  -47.1235 O.2       12 UNK        -0.5000 
     74 N          -2.7010  -23.9994  -45.4263 N.am      13 UNK        -0.5000 
     75 CA         -2.5804  -25.4335  -45.1661 C.3       13 UNK         0.1400 
     76 CB         -1.8621  -25.6523  -43.8257 C.3       13 UNK        -0.1800 
     77 C          -1.8607  -26.1844  -46.3028 C.2       13 UNK         0.5000 
     78 O          -2.2791  -27.2864  -46.6600 O.2       13 UNK        -0.5000 
     79 N          -0.8003  -25.5769  -46.8526 N.am      14 UNK        -0.5000 
     80 CA         -0.0233  -26.1204  -47.9670 C.3       14 UNK         0.1400 
     81 CB          1.3291  -25.3937  -48.0374 C.3       14 UNK        -0.1800 
     82 C          -0.7486  -26.0187  -49.3220 C.2       14 UNK         0.5000 
     83 O          -0.5617  -26.8889  -50.1735 O.2       14 UNK        -0.5000 
     84 N          -1.5131  -24.9349  -49.5159 N.am      15 UNK        -0.5000 
     85 CA         -2.1939  -24.4670  -50.7312 C.3       15 UNK         0.1400 
     86 CB         -3.2038  -25.4979  -51.2669 C.3       15 UNK        -0.1800 
     87 C          -1.2223  -23.9949  -51.8313 C.2       15 UNK         0.5000 
     88 O          -1.4400  -22.9364  -52.4197 O.2       15 UNK        -0.5000 
     89 N          -0.1641  -24.7797  -52.0826 N.am      16 UNK        -0.5000 
     90 CA          1.0073  -24.4944  -52.9231 C.3       16 UNK         0.1400 
     91 CB          1.8320  -23.3552  -52.2883 C.3       16 UNK        -0.1800 
     92 C           0.7036  -24.2152  -54.4125 C.2       16 UNK         0.5000 
     93 O           1.5831  -23.7288  -55.1253 O.2       16 UNK        -0.5000 
     94 N          -0.5295  -24.5124  -54.8516 N.am      17 UNK        -0.5000 
     95 CA         -1.1185  -24.1636  -56.1494 C.3       17 UNK         0.1400 
     96 CB         -0.4582  -24.9715  -57.2865 C.3       17 UNK        -0.1800 
     97 C          -1.1256  -22.6387  -56.4083 C.2       17 UNK         0.5000 
     98 O          -0.9037  -22.2034  -57.5405 O.2       17 UNK        -0.5000 
     99 N          -1.3548  -21.8542  -55.3438 N.am      18 UNK        -0.5000 
    100 CA        -1.3830  -20.3922  -55.3656 C.3       18 UNK         0.1400 
    101 CB        -1.4892  -19.8787  -53.9211 C.3       18 UNK        -0.1800 
    102 C         -2.5291  -19.8219  -56.2232 C.2       18 UNK         0.5000 
    103 O         -3.5696  -20.4654  -56.3863 O.2       18 UNK        -0.5000 
    104 N         -2.3339  -18.5884  -56.7109 N.am      19 UNK        -0.5000 
    105 CA        -3.2704  -17.8414  -57.5620 C.3       19 UNK         0.1400 
    106 CB        -2.5907  -16.5427  -58.0229 C.3       19 UNK        -0.1800 
    107 C         -4.6329  -17.5331  -56.9051 C.2       19 UNK         0.5000 
    108 O         -5.5951  -17.2346  -57.6131 O.2       19 UNK        -0.5000 
    109 N         -4.6972  -17.6381  -55.5714 N.am      20 UNK        -0.5000 
    110 CA        -5.9149  -17.5593  -54.7660 C.3       20 UNK         0.1400 
    111 CB        -5.5058  -17.4255  -53.2907 C.3       20 UNK        -0.1800 
    112 C         -6.8599  -18.7676  -54.9448 C.2       20 UNK         0.5000 
    113 O         -7.9995  -18.7003  -54.4831 O.2       20 UNK        -0.5000 
    114 N         -6.3729  -19.8601  -55.5569 N.am      21 UNK        -0.5000 
    115 CA        -7.0227  -21.1563  -55.8088 C.3       21 UNK         0.1400 
    116 CB        -8.3266  -21.0007  -56.6144 C.3       21 UNK        -0.1800 
    117 C         -7.2365  -22.0114  -54.5437 C.2       21 UNK         0.5000 
    118 O         -7.0974  -23.2330  -54.6134 O.2       21 UNK        -0.5000 
    119 N         -7.5218  -21.3565  -53.4127 N.am      22 UNK        -0.5000 
    120 CA        -7.5348  -21.9046  -52.0457 C.3       22 UNK         0.1400 
    121 C         -8.7234  -22.8618  -51.7276 C.2       22 UNK         0.5000 
    122 N         -9.7613  -22.9252  -52.5525 N.am      22 UNK        -0.7600 
    123 O         -8.7249  -23.5352  -50.7006 O.2       22 UNK        -0.5000 
    124 C124       -6.1618  -22.4965  -51.6109 C.3       23 UNK        -0.0398 
    125 S125       -4.7450  -21.3986  -51.9705 S.3       23 UNK        -0.2404 
    126 C126       -4.5790  -20.4911  -50.4059 C.3       23 UNK        -0.0205 
    127 H127       -2.6256  -10.3958  -46.0737 H         1 UNK         0.0600 
    128 H128       -1.7185  -10.9600  -44.6655 H         1 UNK         0.0600 
    129 H129       -3.0255  -11.9463  -45.3275 H         1 UNK         0.0600 
    130 H130       -2.2565  -13.6826  -46.4950 H         1 UNK         0.3000 
    131 H131       -0.3313  -13.5414  -48.5815 H         1 UNK         0.0600 
    132 H132       -0.4912  -16.0473  -48.5602 H         1 UNK         0.0800 
    133 H133       -1.4349  -15.9865  -47.0979 H         1 UNK         0.0800 
    134 H134       -1.3595  -15.5406  -50.9272 H         1 UNK         0.0800 
    135 H135       -3.0572  -15.6871  -51.3017 H         1 UNK         0.0800 
    136 H136       -4.3453  -17.7604  -50.5322 H         1 UNK         0.1150 
    137 H137       -2.0134  -21.3395  -50.2451 H         1 UNK         0.1150 
    138 H138       -0.0641  -17.5325  -50.4452 H         1 UNK         0.1150 
    139 H139        0.3293  -21.2853  -50.0964 H         1 UNK         0.0800 
    140 H140        0.9656  -20.0936  -51.1972 H         1 UNK         0.0800 
    141 H141       -0.4620  -19.2357  -47.5985 H         1 UNK         0.0800 
    142 H142        0.9883  -19.0465  -46.6907 H         1 UNK         0.0800 
    143 H143        1.1642  -21.7618  -47.3596 H         1 UNK         0.0600 
    144 H144        0.8094  -20.3628  -44.9373 H         1 UNK         0.3000 
    145 H145        0.7075  -23.2477  -42.7965 H         1 UNK         0.0600 
    146 H146        2.5487  -21.9509  -41.7637 H         1 UNK         0.0600 
    147 H147        3.0985  -22.7176  -43.2465 H         1 UNK         0.0600 
    148 H148        2.7404  -20.9961  -43.2311 H         1 UNK         0.0600 
    149 H149        0.5047  -20.4698  -42.2116 H         1 UNK         0.3000 
    150 H150       -3.0772  -20.2394  -42.4778 H         1 UNK         0.0600 
    151 H151       -2.5196  -21.1405  -40.2120 H         1 UNK         0.0600 
    152 H152       -2.7315  -19.3964  -40.1793 H         1 UNK         0.0600 
    153 H153       -1.1117  -20.0878  -40.1310 H         1 UNK         0.0600 
    154 H154       -1.1749  -18.2526  -41.8307 H         1 UNK         0.3000 
    155 H155       -0.4813  -17.1404  -45.1771 H         1 UNK         0.0600 
    156 H156       -2.5506  -16.0046  -44.4265 H         1 UNK         0.0600 
    157 H157       -1.1558  -15.0180  -44.0162 H         1 UNK         0.0600 
    158 H158       -1.9678  -15.9560  -42.7683 H         1 UNK         0.0600 
    159 H159        0.6080  -16.2217  -42.7616 H         1 UNK         0.3000 
    160 H160        3.3436  -18.5464  -42.5101 H         1 UNK         0.0600 
    161 H161        3.1320  -15.5660  -43.1905 H         1 UNK         0.0600 
    162 H162        4.1248  -16.7725  -43.9955 H         1 UNK         0.0600 
    163 H163        4.4887  -16.3141  -42.3429 H         1 UNK         0.0600 
    164 H164        2.3545  -16.3815  -40.8765 H         1 UNK         0.3000 
    165 H165        0.4027  -18.4080  -38.6921 H         1 UNK         0.0600 
    166 H166        1.9288  -17.4096  -37.0112 H         1 UNK         0.0600 
    167 H167        2.7484  -18.6965  -37.8812 H         1 UNK         0.0600 
    168 H168        3.1040  -17.0168  -38.2666 H         1 UNK         0.0600 
    169 H169        1.1012  -15.6248  -38.7097 H         1 UNK         0.3000 
    170 H170       -1.5684  -14.5066  -40.7819 H         1 UNK         0.0600 
    171 H171       -2.6183  -14.8371  -38.5379 H         1 UNK         0.0600 
    172 H172       -1.1536  -14.2567  -37.7545 H         1 UNK         0.0600 
    173 H173       -2.1074  -13.1730  -38.7682 H         1 UNK         0.0600 
    174 H174        0.3651  -13.0475  -39.3255 H         1 UNK         0.3000 
    175 H175        1.9334  -11.8962  -40.4283 H         1 UNK         0.0600 
    176 H176        3.8187  -14.1752  -41.2394 H         1 UNK         0.0600 
    177 H177        4.2881  -12.6493  -40.4978 H         1 UNK         0.0600 
    178 H178        3.3293  -13.8071  -39.5895 H         1 UNK         0.0600 
    179 H179        3.2277  -12.5380  -42.9568 H         1 UNK         0.3000 
    180 H180        1.3122  -10.1223  -44.7922 H         1 UNK         0.0600 
    181 H181        4.2372  -10.3847  -43.9298 H         1 UNK         0.0600 
    182 H182        3.1809   -9.0207  -43.6006 H         1 UNK         0.0600 
    183 H183        3.6246   -9.4002  -45.2571 H         1 UNK         0.0600 
    184 H184        1.6248  -11.7419  -46.1815 H         1 UNK         0.3000 
    185 H185        3.8440  -13.0881  -47.5011 H         1 UNK         0.0600 
    186 H186        4.8599  -14.9528  -46.2442 H         1 UNK         0.0600 
    187 H187        3.2764  -15.6191  -45.8784 H         1 UNK         0.0600 
    188 H188        3.8534  -15.5751  -47.5409 H         1 UNK         0.0600 
    189 H189        1.7876  -13.1922  -48.2890 H         1 UNK         0.3000 
    190 H190       -1.8688  -20.7199  -45.7255 H         1 UNK         0.3000 
    191 H191       -3.6667  -21.7396  -47.6247 H         1 UNK         0.0600 
    192 H192       -4.0303  -21.3310  -44.6134 H         1 UNK         0.0600 
    193 H193       -5.3365  -21.5549  -45.7715 H         1 UNK         0.0600 
    194 H194       -4.3153  -20.1283  -45.8702 H         1 UNK         0.0600 
    195 H195       -2.1702  -23.3780  -44.8241 H         1 UNK         0.3000 
    196 H196       -3.5877  -25.8463  -45.0806 H         1 UNK         0.0600 
    197 H197       -1.7759  -26.7153  -43.5974 H         1 UNK         0.0600 
    198 H198       -2.4089  -25.1863  -43.0057 H         1 UNK         0.0600 
    199 H199       -0.8550  -25.2348  -43.8344 H         1 UNK         0.0600 
    200 H200       -0.4896  -24.6905  -46.4687 H         1 UNK         0.3000 
    201 H201        0.1695  -27.1772  -47.7712 H         1 UNK         0.0600 
    202 H202        1.8899  -25.5145  -47.1104 H         1 UNK         0.0600 
    203 H203        1.2031  -24.3246  -48.2137 H         1 UNK         0.0600 
    204 H204        1.9457  -25.7895  -48.8455 H         1 UNK         0.0600 
    205 H205       -1.4861  -24.2326  -48.7789 H         1 UNK         0.3000 
    206 H206       -2.7645  -23.5903  -50.4215 H         1 UNK         0.0600 
    207 H207       -3.9138  -25.7889  -50.4926 H         1 UNK         0.0600 
    208 H208       -3.7785  -25.0794  -52.0942 H         1 UNK         0.0600 
    209 H209       -2.7164  -26.4013  -51.6336 H         1 UNK         0.0600 
    210 H210       -0.1250  -25.6518  -51.5613 H         1 UNK         0.3000 
    211 H211        1.6183  -25.3977  -52.9044 H         1 UNK         0.0600 
    212 H212        1.3074  -22.4010  -52.3467 H         1 UNK         0.0600 
    213 H213        2.7906  -23.2324  -52.7934 H         1 UNK         0.0600 
    214 H214        2.0441  -23.5574  -51.2382 H         1 UNK         0.0600 
    215 H215       -1.1688  -24.8998  -54.1729 H         1 UNK         0.3000 
    216 H216       -2.1661  -24.4636  -56.0994 H         1 UNK         0.0600 
    217 H217       -0.9835  -24.8186  -58.2300 H         1 UNK         0.0600 
    218 H218       -0.4797  -26.0404  -57.0745 H         1 UNK         0.0600 
    219 H219        0.5811  -24.6808  -57.4412 H         1 UNK         0.0600 
    220 H220       -1.5111  -22.2881  -54.4402 H         1 UNK         0.3000 
    221 H221       -0.4353  -20.0511  -55.7870 H         1 UNK         0.0600 
    222 H222       -2.4176  -20.2007  -53.4487 H         1 UNK         0.0600 
    223 H223       -0.6643  -20.2465  -53.3107 H         1 UNK         0.0600 
    224 H224       -1.4612  -18.7894  -53.8795 H         1 UNK         0.0600 
    225 H225       -1.4590  -18.1248  -56.5114 H         1 UNK         0.3000 
    226 H226       -3.4726  -18.4533  -58.4433 H         1 UNK         0.0600 
    227 H227       -2.3396  -15.8993  -57.1787 H         1 UNK         0.0600 
    228 H228       -1.6729  -16.7504  -58.5733 H         1 UNK         0.0600 
    229 H229       -3.2425  -15.9731  -58.6869 H         1 UNK         0.0600 
    230 H230       -3.8507  -17.8819  -55.0798 H         1 UNK         0.3000 
    231 H231       -6.4654  -16.6629  -55.0584 H         1 UNK         0.0600 
    232 H232       -4.8783  -16.5488  -53.1298 H         1 UNK         0.0600 
    233 H233       -4.9527  -18.3025  -52.9519 H         1 UNK         0.0600 
    234 H234       -6.3799  -17.3206  -52.6466 H         1 UNK         0.0600 
    235 H235       -5.3982  -19.8353  -55.8415 H         1 UNK         0.3000 
    236 H236       -6.3194  -21.7078  -56.4348 H         1 UNK         0.0600 
    237 H237       -8.7155  -21.9755  -56.9109 H         1 UNK         0.0600 
    238 H238       -9.1081  -20.5030  -56.0402 H         1 UNK         0.0600 
    239 H239       -8.1605  -20.4260  -57.5256 H         1 UNK         0.0600 
    240 H240       -7.6764  -20.3571  -53.4916 H         1 UNK         0.3000 
    241 H241       -7.7140  -21.0392  -51.4072 H         1 UNK         0.0600 
    242 H242       -9.7752  -22.3743  -53.3960 H         1 UNK         0.3800 
    243 H243      -10.5328  -23.5374  -52.3375 H         1 UNK         0.3800 
    244 H244       -6.1649  -22.7331  -50.5458 H         1 UNK         0.0800 
    245 H245       -5.9831  -23.4430  -52.1231 H         1 UNK         0.0800 
    246 H246       -4.5478  -21.2017  -49.5823 H         1 UNK         0.0800 
    247 H247       -5.4635  -19.8710  -50.2528 H         1 UNK         0.0800 
@<TRIPOS>BOND
     1    1    2 1    
     2    1  127 1    
     3    1  128 1    
     4    1  129 1    
     5    2    3 2    
     6    2    4 am   BACKBONE|DICT|INTERRES
     7    4    5 1    
     8    4  130 1    
     9    5    6 1    
    10    5   65 1    
    11    5  131 1    
    12    6    7 1    
    13    6  132 1    
    14    6  133 1    
    15    7    8 1    
    16    8    9 1    
    17    8  134 1    
    18    8  135 1    
    19    9   10 ar   
    20    9   14 ar   
    21   10   11 ar   
    22   10  136 1    
    23   11   12 ar   
    24   11  126 1    
    25   12   13 ar   
    26   12  137 1    
    27   13   14 ar   
    28   13   15 1    
    29   14  138 1    
    30   15   16 1    
    31   15  139 1    
    32   15  140 1    
    33   16   17 1    
    34   17   18 1    
    35   17  141 1    
    36   17  142 1    
    37   18   19 1    
    38   18   67 1    
    39   18  143 1    
    40   19   20 am   BACKBONE|DICT|INTERRES
    41   19  144 1    
    42   20   21 2    
    43   20   22 1    
    44   22   23 1    
    45   22   24 1    
    46   22  145 1    
    47   23  146 1    
    48   23  147 1    
    49   23  148 1    
    50   24   25 am   BACKBONE|DICT|INTERRES
    51   24  149 1    
    52   25   26 2    
    53   25   27 1    
    54   27   28 1    
    55   27   29 1    
    56   27  150 1    
    57   28  151 1    
    58   28  152 1    
    59   28  153 1    
    60   29   30 am   BACKBONE|DICT|INTERRES
    61   29  154 1    
    62   30   31 2    
    63   30   32 1    
    64   32   33 1    
    65   32   34 1    
    66   32  155 1    
    67   33  156 1    
    68   33  157 1    
    69   33  158 1    
    70   34   35 am   BACKBONE|DICT|INTERRES
    71   34  159 1    
    72   35   36 2    
    73   35   37 1    
    74   37   38 1    
    75   37   39 1    
    76   37  160 1    
    77   38  161 1    
    78   38  162 1    
    79   38  163 1    
    80   39   40 am   BACKBONE|DICT|INTERRES
    81   39  164 1    
    82   40   41 2    
    83   40   42 1    
    84   42   43 1    
    85   42   44 1    
    86   42  165 1    
    87   43  166 1    
    88   43  167 1    
    89   43  168 1    
    90   44   45 am   BACKBONE|DICT|INTERRES
    91   44  169 1    
    92   45   46 2    
    93   45   47 1    
    94   47   48 1    
    95   47   49 1    
    96   47  170 1    
    97   48  171 1    
    98   48  172 1    
    99   48  173 1    
   100   49   50 am   BACKBONE|DICT|INTERRES
   101   49  174 1    
   102   50   51 2    
   103   50   52 1    
   104   52   53 1    
   105   52   54 1    
   106   52  175 1    
   107   53  176 1    
   108   53  177 1    
   109   53  178 1    
   110   54   55 am   BACKBONE|DICT|INTERRES
   111   54  179 1    
   112   55   56 2    
   113   55   57 1    
   114   57   58 1    
   115   57   59 1    
   116   57  180 1    
   117   58  181 1    
   118   58  182 1    
   119   58  183 1    
   120   59   60 am   BACKBONE|DICT|INTERRES
   121   59  184 1    
   122   60   61 2    
   123   60   62 1    
   124   62   63 1    
   125   62   64 1    
   126   62  185 1    
   127   63  186 1    
   128   63  187 1    
   129   63  188 1    
   130   64   65 am   BACKBONE|DICT|INTERRES
   131   64  189 1    
   132   65   66 2    
   133   67   68 2    
   134   67   69 am   BACKBONE|DICT|INTERRES
   135   69   70 1    
   136   69  190 1    
   137   70   71 1    
   138   70   72 1    
   139   70  191 1    
   140   71  192 1    
   141   71  193 1    
   142   71  194 1    
   143   72   73 2    
   144   72   74 am   BACKBONE|DICT|INTERRES
   145   74   75 1    
   146   74  195 1    
   147   75   76 1    
   148   75   77 1    
   149   75  196 1    
   150   76  197 1    
   151   76  198 1    
   152   76  199 1    
   153   77   78 2    
   154   77   79 am   BACKBONE|DICT|INTERRES
   155   79   80 1    
   156   79  200 1    
   157   80   81 1    
   158   80   82 1    
   159   80  201 1    
   160   81  202 1    
   161   81  203 1    
   162   81  204 1    
   163   82   83 2    
   164   82   84 am   BACKBONE|DICT|INTERRES
   165   84   85 1    
   166   84  205 1    
   167   85   86 1    
   168   85   87 1    
   169   85  206 1    
   170   86  207 1    
   171   86  208 1    
   172   86  209 1    
   173   87   88 2    
   174   87   89 am   BACKBONE|DICT|INTERRES
   175   89   90 1    
   176   89  210 1    
   177   90   91 1    
   178   90   92 1    
   179   90  211 1    
   180   91  212 1    
   181   91  213 1    
   182   91  214 1    
   183   92   93 2    
   184   92   94 am   BACKBONE|DICT|INTERRES
   185   94   95 1    
   186   94  215 1    
   187   95   96 1    
   188   95   97 1    
   189   95  216 1    
   190   96  217 1    
   191   96  218 1    
   192   96  219 1    
   193   97   98 2    
   194   97   99 am   BACKBONE|DICT|INTERRES
   195   99  100 1    
   196   99  220 1    
   197  100  101 1    
   198  100  102 1    
   199  100  221 1    
   200  101  222 1    
   201  101  223 1    
   202  101  224 1    
   203  102  103 2    
   204  102  104 am   BACKBONE|DICT|INTERRES
   205  104  105 1    
   206  104  225 1    
   207  105  106 1    
   208  105  107 1    
   209  105  226 1    
   210  106  227 1    
   211  106  228 1    
   212  106  229 1    
   213  107  108 2    
   214  107  109 am   BACKBONE|DICT|INTERRES
   215  109  110 1    
   216  109  230 1    
   217  110  111 1    
   218  110  112 1    
   219  110  231 1    
   220  111  232 1    
   221  111  233 1    
   222  111  234 1    
   223  112  113 2    
   224  112  114 am   BACKBONE|DICT|INTERRES
   225  114  115 1    
   226  114  235 1    
   227  115  116 1    
   228  115  117 1    
   229  115  236 1    
   230  116  237 1    
   231  116  238 1    
   232  116  239 1    
   233  117  118 2    
   234  117  119 am   BACKBONE|DICT|INTERRES
   235  119  120 1    
   236  119  240 1    
   237  120  121 1    
   238  120  124 1    
   239  120  241 1    
   240  121  122 am   BACKBONE|DICT|INTERRES
   241  121  123 2    
   242  122  242 1    
   243  122  243 1    
   244  124  125 1    
   245  124  244 1    
   246  124  245 1    
   247  125  126 1    
   248  126  246 1    
   249  126  247 1    
@<TRIPOS>SUBSTRUCTURE
     1 UNK         1 GROUP             0       ****    0 ROOT    
