@<TRIPOS>MOLECULE
3R540
247   249    1
SMALL
USER_CHARGES


@<TRIPOS>ATOM
      1 CA          6.8147  -15.3389  -48.8362 C.3       0 UNK        -0.1800 
      2 C           5.3150  -15.1508  -48.6598 C.2       0 UNK         0.5000 
      3 O           4.7342  -14.2553  -49.2734 O.2       0 UNK        -0.5000 
      4 N           4.6903  -15.9811  -47.8131 N.am      1 UNK        -0.5000 
      5 CA          3.2630  -15.9971  -47.4617 C.3       1 UNK         0.1400 
      6 C6          2.3238  -16.1753  -48.6826 C.3       23 UNK        -0.0398 
      7 S7          0.7029  -16.8849  -48.2368 S.3       23 UNK        -0.2404 
      8 C8         -0.3938  -15.4372  -48.3705 C.3       23 UNK        -0.0205 
      9 C9         -1.7595  -15.8607  -48.8815 C.ar      23 UNK        -0.0193 
     10 C10        -2.0010  -15.9161  -50.2576 C.ar      23 UNK        -0.1150 
     11 C11        -3.2343  -16.3558  -50.7447 C.ar      23 UNK        -0.0193 
     12 C12        -4.2291  -16.7368  -49.8411 C.ar      23 UNK        -0.1150 
     13 C13        -4.0009  -16.6929  -48.4631 C.ar      23 UNK        -0.0193 
     14 C14        -2.7693  -16.2302  -47.9881 C.ar      23 UNK        -0.1150 
     15 C15        -5.0949  -17.1596  -47.5080 C.3       23 UNK        -0.0205 
     16 S16        -4.5376  -18.3619  -46.2506 S.3       23 UNK        -0.2404 
     17 C17        -3.5515  -19.5716  -47.2020 C.3       23 UNK        -0.0398 
     18 CA         -2.0489  -19.5509  -46.7854 C.3       11 UNK         0.1400 
     19 N          -1.8365  -19.8171  -45.3591 N.am      11 UNK        -0.5000 
     20 C          -2.1921  -20.9174  -44.6819 C.2       10 UNK         0.5000 
     21 O          -2.7863  -21.8761  -45.1779 O.2       10 UNK        -0.5000 
     22 CA         -1.8277  -20.9486  -43.1859 C.3       10 UNK         0.1400 
     23 CB         -0.4157  -21.5209  -42.9884 C.3       10 UNK        -0.1800 
     24 N          -1.9147  -19.6326  -42.5477 N.am      10 UNK        -0.5000 
     25 C          -3.0618  -18.9829  -42.3004 C.2       9 UNK         0.5000 
     26 O          -4.1762  -19.4516  -42.5347 O.2       9 UNK        -0.5000 
     27 CA         -2.9513  -17.5779  -41.6791 C.3       9 UNK         0.1400 
     28 CB         -2.8114  -17.6694  -40.1519 C.3       9 UNK        -0.1800 
     29 N          -1.8329  -16.8109  -42.2259 N.am      9 UNK        -0.5000 
     30 C          -1.8152  -16.2587  -43.4472 C.2       8 UNK         0.5000 
     31 O          -2.7807  -16.2529  -44.2081 O.2       8 UNK        -0.5000 
     32 CA         -0.4934  -15.6173  -43.9084 C.3       8 UNK         0.1400 
     33 CB         -0.4384  -14.1329  -43.5188 C.3       8 UNK        -0.1800 
     34 N           0.6846  -16.3024  -43.3803 N.am      8 UNK        -0.5000 
     35 C           1.0482  -17.5485  -43.7108 C.2       7 UNK         0.5000 
     36 O           0.4252  -18.2556  -44.5016 O.2       7 UNK        -0.5000 
     37 CA          2.2759  -18.1251  -42.9844 C.3       7 UNK         0.1400 
     38 CB          3.5876  -17.6714  -43.6424 C.3       7 UNK        -0.1800 
     39 N           2.2868  -17.7666  -41.5664 N.am      7 UNK        -0.5000 
     40 C           1.4157  -18.2384  -40.6635 C.2       6 UNK         0.5000 
     41 O           0.5335  -19.0549  -40.9262 O.2       6 UNK        -0.5000 
     42 CA          1.5223  -17.6650  -39.2395 C.3       6 UNK         0.1400 
     43 CB          2.6229  -18.3835  -38.4448 C.3       6 UNK        -0.1800 
     44 N           1.7817  -16.2245  -39.2377 N.am      6 UNK        -0.5000 
     45 C           0.9123  -15.2998  -39.6694 C.2       5 UNK         0.5000 
     46 O          -0.2166  -15.5628  -40.0804 O.2       5 UNK        -0.5000 
     47 CA          1.4044  -13.8410  -39.6839 C.3       5 UNK         0.1400 
     48 CB          1.1608  -13.1748  -38.3216 C.3       5 UNK        -0.1800 
     49 N           2.8199  -13.7137  -40.0429 N.am      5 UNK        -0.5000 
     50 C           3.3318  -14.0563  -41.2317 C.2       4 UNK         0.5000 
     51 O           2.6695  -14.5469  -42.1475 O.2       4 UNK        -0.5000 
     52 CA          4.8408  -13.8660  -41.4086 C.3       4 UNK         0.1400 
     53 CB          5.6019  -15.1402  -41.0031 C.3       4 UNK        -0.1800 
     54 N           5.1224  -13.5452  -42.8040 N.am      4 UNK        -0.5000 
     55 C           6.1415  -12.7831  -43.2188 C.2       3 UNK         0.5000 
     56 O           6.9782  -12.2977  -42.4556 O.2       3 UNK        -0.5000 
     57 CA          6.2720  -12.5110  -44.7314 C.3       3 UNK         0.1400 
     58 CB          7.3687  -13.3984  -45.3417 C.3       3 UNK        -0.1800 
     59 N           5.0421  -12.7059  -45.4989 N.am      3 UNK        -0.5000 
     60 C           3.9312  -11.9601  -45.4211 C.2       2 UNK         0.5000 
     61 O           3.8014  -11.0120  -44.6462 O.2       2 UNK        -0.5000 
     62 CA          2.7784  -12.3195  -46.3850 C.3       2 UNK         0.1400 
     63 CB          2.5578  -11.1978  -47.4119 C.3       2 UNK        -0.1800 
     64 N           2.9988  -13.5748  -47.1095 N.am      2 UNK        -0.5000 
     65 C           2.8773  -14.7955  -46.5759 C.2       1 UNK         0.5000 
     66 O           2.5418  -14.9847  -45.4114 O.2       1 UNK        -0.5000 
     67 C          -1.1421  -20.4496  -47.6609 C.2       11 UNK         0.5000 
     68 O          -0.2104  -21.0783  -47.1493 O.2       11 UNK        -0.5000 
     69 N          -1.3895  -20.4760  -48.9779 N.am      12 UNK        -0.5000 
     70 CA         -0.6646  -21.3008  -49.9439 C.3       12 UNK         0.1400 
     71 CB         -0.9540  -20.7841  -51.3629 C.3       12 UNK        -0.1800 
     72 C          -1.0355  -22.7868  -49.7821 C.2       12 UNK         0.5000 
     73 O          -1.9510  -23.2713  -50.4512 O.2       12 UNK        -0.5000 
     74 N          -0.3453  -23.4777  -48.8661 N.am      13 UNK        -0.5000 
     75 CA         -0.5685  -24.8787  -48.4938 C.3       13 UNK         0.1400 
     76 CB          0.4153  -25.2684  -47.3814 C.3       13 UNK        -0.1800 
     77 C          -0.4705  -25.8617  -49.6758 C.2       13 UNK         0.5000 
     78 O          -1.2546  -26.8081  -49.7450 O.2       13 UNK        -0.5000 
     79 N           0.4400  -25.5763  -50.6175 N.am      14 UNK        -0.5000 
     80 CA          0.6214  -26.3131  -51.8724 C.3       14 UNK         0.1400 
     81 CB          1.9076  -25.8202  -52.5529 C.3       14 UNK        -0.1800 
     82 C          -0.5758  -26.1997  -52.8405 C.2       14 UNK         0.5000 
     83 O          -0.7382  -27.0625  -53.7034 O.2       14 UNK        -0.5000 
     84 N          -1.3986  -25.1578  -52.6660 N.am      15 UNK        -0.5000 
     85 CA         -2.6394  -24.9083  -53.3964 C.3       15 UNK         0.1400 
     86 CB         -2.6373  -23.4459  -53.8747 C.3       15 UNK        -0.1800 
     87 C          -3.8708  -25.2333  -52.5259 C.2       15 UNK         0.5000 
     88 O          -4.9397  -24.6670  -52.7566 O.2       15 UNK        -0.5000 
     89 N          -3.6994  -26.1246  -51.5356 N.am      16 UNK        -0.5000 
     90 CA         -4.7044  -26.5988  -50.5784 C.3       16 UNK         0.1400 
     91 CB         -5.8072  -27.4047  -51.2969 C.3       16 UNK        -0.1800 
     92 C          -5.2530  -25.4582  -49.6988 C.2       16 UNK         0.5000 
     93 O          -6.4659  -25.2709  -49.6052 O.2       16 UNK        -0.5000 
     94 N          -4.3281  -24.6923  -49.1015 N.am      17 UNK        -0.5000 
     95 CA         -4.5640  -23.4722  -48.3172 C.3       17 UNK         0.1400 
     96 CB         -5.3471  -23.7736  -47.0232 C.3       17 UNK        -0.1800 
     97 C          -5.2031  -22.3663  -49.1812 C.2       17 UNK         0.5000 
     98 O          -6.1640  -21.7173  -48.7681 O.2       17 UNK        -0.5000 
     99 N          -4.6445  -22.2074  -50.3882 N.am      18 UNK        -0.5000 
    100 CA        -5.0274  -21.2863  -51.4592 C.3       18 UNK         0.1400 
    101 CB        -4.8844  -19.8205  -51.0105 C.3       18 UNK        -0.1800 
    102 C         -6.3922  -21.5559  -52.1234 C.2       18 UNK         0.5000 
    103 O         -6.8057  -20.7530  -52.9620 O.2       18 UNK        -0.5000 
    104 N         -7.0479  -22.6800  -51.7994 N.am      19 UNK        -0.5000 
    105 CA        -8.3308  -23.0949  -52.3738 C.3       19 UNK         0.1400 
    106 CB        -8.8316  -24.3588  -51.6625 C.3       19 UNK        -0.1800 
    107 C         -8.2780  -23.3167  -53.8971 C.2       19 UNK         0.5000 
    108 O         -9.2460  -22.9973  -54.5886 O.2       19 UNK        -0.5000 
    109 N         -7.1346  -23.7943  -54.4071 N.am      20 UNK        -0.5000 
    110 CA        -6.8421  -23.9379  -55.8345 C.3       20 UNK         0.1400 
    111 CB        -5.8254  -25.0779  -56.0242 C.3       20 UNK        -0.1800 
    112 C         -6.3709  -22.6036  -56.4567 C.2       20 UNK         0.5000 
    113 O         -5.3207  -22.5582  -57.1005 O.2       20 UNK        -0.5000 
    114 N         -7.1452  -21.5315  -56.2272 N.am      21 UNK        -0.5000 
    115 CA        -6.9690  -20.1610  -56.7307 C.3       21 UNK         0.1400 
    116 CB        -7.3140  -20.1090  -58.2331 C.3       21 UNK        -0.1800 
    117 C         -5.5852  -19.5454  -56.4192 C.2       21 UNK         0.5000 
    118 O         -5.0457  -18.7897  -57.2296 O.2       21 UNK        -0.5000 
    119 N         -5.0272  -19.9022  -55.2557 N.am      22 UNK        -0.5000 
    120 CA        -3.6562  -19.5848  -54.8200 C.3       22 UNK         0.1400 
    121 C         -2.5189  -20.2344  -55.6737 C.2       22 UNK         0.5000 
    122 N         -2.7961  -21.2140  -56.5269 N.am      22 UNK        -0.7600 
    123 O         -1.3545  -19.8674  -55.5457 O.2       22 UNK        -0.5000 
    124 C124       -3.4410  -18.0621  -54.5663 C.3       23 UNK        -0.0398 
    125 S125       -2.5158  -17.7562  -53.0202 S.3       23 UNK        -0.2404 
    126 C126       -3.4934  -16.4310  -52.2425 C.3       23 UNK        -0.0205 
    127 H127        7.2103  -16.1016  -48.1651 H         1 UNK         0.0600 
    128 H128        7.3368  -14.4041  -48.6327 H         1 UNK         0.0600 
    129 H129        7.0362  -15.6373  -49.8608 H         1 UNK         0.0600 
    130 H130        5.2439  -16.6803  -47.3372 H         1 UNK         0.3000 
    131 H131        3.1494  -16.8853  -46.8383 H         1 UNK         0.0600 
    132 H132        2.7777  -16.8760  -49.3844 H         1 UNK         0.0800 
    133 H133        2.2049  -15.2471  -49.2426 H         1 UNK         0.0800 
    134 H134        0.0263  -14.6913  -49.0462 H         1 UNK         0.0800 
    135 H135       -0.4792  -14.9547  -47.3958 H         1 UNK         0.0800 
    136 H136       -1.2211  -15.6383  -50.9529 H         1 UNK         0.1150 
    137 H137       -5.1837  -17.0799  -50.2139 H         1 UNK         0.1150 
    138 H138       -2.5856  -16.1937  -46.9232 H         1 UNK         0.1150 
    139 H139       -5.5094  -16.2891  -46.9985 H         1 UNK         0.0800 
    140 H140       -5.9188  -17.6120  -48.0621 H         1 UNK         0.0800 
    141 H141       -3.6765  -19.3609  -48.2625 H         1 UNK         0.0800 
    142 H142       -3.9863  -20.5586  -47.0467 H         1 UNK         0.0800 
    143 H143       -1.6729  -18.5402  -46.9410 H         1 UNK         0.0600 
    144 H144       -1.2481  -19.1404  -44.8823 H         1 UNK         0.3000 
    145 H145       -2.5347  -21.6145  -42.6868 H         1 UNK         0.0600 
    146 H146       -0.1736  -21.6191  -41.9301 H         1 UNK         0.0600 
    147 H147       -0.3301  -22.5117  -43.4362 H         1 UNK         0.0600 
    148 H148        0.3423  -20.8867  -43.4489 H         1 UNK         0.0600 
    149 H149       -1.0395  -19.2083  -42.2612 H         1 UNK         0.3000 
    150 H150       -3.8768  -17.0422  -41.9007 H         1 UNK         0.0600 
    151 H151       -3.6407  -18.2277  -39.7160 H         1 UNK         0.0600 
    152 H152       -2.8113  -16.6787  -39.6970 H         1 UNK         0.0600 
    153 H153       -1.8879  -18.1706  -39.8604 H         1 UNK         0.0600 
    154 H154       -1.0248  -16.6892  -41.6260 H         1 UNK         0.3000 
    155 H155       -0.4536  -15.6846  -44.9975 H         1 UNK         0.0600 
    156 H156       -0.4749  -14.0009  -42.4375 H         1 UNK         0.0600 
    157 H157       -1.2788  -13.5857  -43.9471 H         1 UNK         0.0600 
    158 H158        0.4766  -13.6648  -43.8828 H         1 UNK         0.0600 
    159 H159        1.3049  -15.7536  -42.7920 H         1 UNK         0.3000 
    160 H160        2.2237  -19.2134  -43.0583 H         1 UNK         0.0600 
    161 H161        4.4499  -18.1367  -43.1650 H         1 UNK         0.0600 
    162 H162        3.7171  -16.5906  -43.5868 H         1 UNK         0.0600 
    163 H163        3.6094  -17.9513  -44.6957 H         1 UNK         0.0600 
    164 H164        2.9439  -17.0566  -41.2821 H         1 UNK         0.3000 
    165 H165        0.5683  -17.8401  -38.7374 H         1 UNK         0.0600 
    166 H166        2.6538  -18.0360  -37.4120 H         1 UNK         0.0600 
    167 H167        2.4455  -19.4595  -38.4192 H         1 UNK         0.0600 
    168 H168        3.6089  -18.2235  -38.8829 H         1 UNK         0.0600 
    169 H169        2.6873  -15.9208  -38.9122 H         1 UNK         0.3000 
    170 H170        0.8202  -13.3039  -40.4338 H         1 UNK         0.0600 
    171 H171        0.1091  -13.2386  -38.0390 H         1 UNK         0.0600 
    172 H172        1.7427  -13.6488  -37.5302 H         1 UNK         0.0600 
    173 H173        1.4252  -12.1175  -38.3466 H         1 UNK         0.0600 
    174 H174        3.4299  -13.3272  -39.3368 H         1 UNK         0.3000 
    175 H175        5.1553  -13.0373  -40.7703 H         1 UNK         0.0600 
    176 H176        5.3273  -15.9893  -41.6297 H         1 UNK         0.0600 
    177 H177        6.6794  -14.9989  -41.0879 H         1 UNK         0.0600 
    178 H178        5.3919  -15.4118  -39.9679 H         1 UNK         0.0600 
    179 H179        4.4319  -13.8749  -43.4677 H         1 UNK         0.3000 
    180 H180        6.5736  -11.4679  -44.8459 H         1 UNK         0.0600 
    181 H181        7.1047  -14.4557  -45.2918 H         1 UNK         0.0600 
    182 H182        8.3152  -13.2712  -44.8145 H         1 UNK         0.0600 
    183 H183        7.5459  -13.1442  -46.3868 H         1 UNK         0.0600 
    184 H184        5.0446  -13.4627  -46.1652 H         1 UNK         0.3000 
    185 H185        1.8714  -12.4176  -45.7848 H         1 UNK         0.0600 
    186 H186        1.7076  -11.4171  -48.0580 H         1 UNK         0.0600 
    187 H187        2.3519  -10.2474  -46.9179 H         1 UNK         0.0600 
    188 H188        3.4341  -11.0564  -48.0459 H         1 UNK         0.0600 
    189 H189        3.3748  -13.5059  -48.0506 H         1 UNK         0.3000 
    190 H190       -2.1335  -19.9089  -49.3537 H         1 UNK         0.3000 
    191 H191        0.4076  -21.1943  -49.7659 H         1 UNK         0.0600 
    192 H192       -0.4393  -21.3868  -52.1123 H         1 UNK         0.0600 
    193 H193       -0.6106  -19.7564  -51.4833 H         1 UNK         0.0600 
    194 H194       -2.0167  -20.8081  -51.5990 H         1 UNK         0.0600 
    195 H195        0.3179  -22.9646  -48.2987 H         1 UNK         0.3000 
    196 H196       -1.5787  -24.9520  -48.0878 H         1 UNK         0.0600 
    197 H197        0.2592  -26.3004  -47.0644 H         1 UNK         0.0600 
    198 H198        0.2855  -24.6365  -46.5023 H         1 UNK         0.0600 
    199 H199        1.4515  -25.1780  -47.7099 H         1 UNK         0.0600 
    200 H200        1.0337  -24.7721  -50.4766 H         1 UNK         0.3000 
    201 H201        0.7448  -27.3701  -51.6277 H         1 UNK         0.0600 
    202 H202        1.8483  -24.7607  -52.8052 H         1 UNK         0.0600 
    203 H203        2.0956  -26.3677  -53.4775 H         1 UNK         0.0600 
    204 H204        2.7756  -25.9654  -51.9095 H         1 UNK         0.0600 
    205 H205       -1.2226  -24.5224  -51.8964 H         1 UNK         0.3000 
    206 H206       -2.7002  -25.5501  -54.2772 H         1 UNK         0.0600 
    207 H207       -1.8009  -23.2588  -54.5479 H         1 UNK         0.0600 
    208 H208       -3.5488  -23.1954  -54.4180 H         1 UNK         0.0600 
    209 H209       -2.5486  -22.7524  -53.0407 H         1 UNK         0.0600 
    210 H210       -2.7691  -26.4982  -51.3971 H         1 UNK         0.3000 
    211 H211       -4.1887  -27.2826  -49.9025 H         1 UNK         0.0600 
    212 H212       -5.3823  -28.2388  -51.8549 H         1 UNK         0.0600 
    213 H213       -6.3731  -26.7904  -51.9969 H         1 UNK         0.0600 
    214 H214       -6.5162  -27.8214  -50.5807 H         1 UNK         0.0600 
    215 H215       -3.3610  -24.8910  -49.3143 H         1 UNK         0.3000 
    216 H216       -3.5829  -23.0990  -48.0199 H         1 UNK         0.0600 
    217 H217       -5.3999  -22.8878  -46.3890 H         1 UNK         0.0600 
    218 H218       -4.8607  -24.5573  -46.4427 H         1 UNK         0.0600 
    219 H219       -6.3703  -24.0901  -47.2268 H         1 UNK         0.0600 
    220 H220       -3.8428  -22.7949  -50.5981 H         1 UNK         0.3000 
    221 H221       -4.2984  -21.4601  -52.2469 H         1 UNK         0.0600 
    222 H222       -5.5844  -19.5687  -50.2139 H         1 UNK         0.0600 
    223 H223       -3.8772  -19.6119  -50.6546 H         1 UNK         0.0600 
    224 H224       -5.0761  -19.1350  -51.8364 H         1 UNK         0.0600 
    225 H225       -6.6209  -23.3162  -51.1395 H         1 UNK         0.3000 
    226 H226       -9.0472  -22.2931  -52.1841 H         1 UNK         0.0600 
    227 H227       -9.8106  -24.6580  -52.0389 H         1 UNK         0.0600 
    228 H228       -8.1519  -25.1976  -51.8125 H         1 UNK         0.0600 
    229 H229       -8.9311  -24.1953  -50.5893 H         1 UNK         0.0600 
    230 H230       -6.3780  -24.0257  -53.7658 H         1 UNK         0.3000 
    231 H231       -7.7562  -24.2275  -56.3567 H         1 UNK         0.0600 
    232 H232       -6.1829  -26.0045  -55.5749 H         1 UNK         0.0600 
    233 H233       -4.8623  -24.8390  -55.5752 H         1 UNK         0.0600 
    234 H234       -5.6530  -25.2753  -57.0829 H         1 UNK         0.0600 
    235 H235       -7.9690  -21.6828  -55.6559 H         1 UNK         0.3000 
    236 H236       -7.6974  -19.5454  -56.2012 H         1 UNK         0.0600 
    237 H237       -8.3053  -20.5199  -58.4245 H         1 UNK         0.0600 
    238 H238       -7.3142  -19.0828  -58.6025 H         1 UNK         0.0600 
    239 H239       -6.5963  -20.6731  -58.8299 H         1 UNK         0.0600 
    240 H240       -5.5780  -20.4746  -54.6263 H         1 UNK         0.3000 
    241 H241       -3.5726  -20.0942  -53.8627 H         1 UNK         0.0600 
    242 H242       -3.7437  -21.5540  -56.6650 H         1 UNK         0.3800 
    243 H243       -2.0463  -21.6197  -57.0625 H         1 UNK         0.3800 
    244 H244       -2.9229  -17.5842  -55.3995 H         1 UNK         0.0800 
    245 H245       -4.4030  -17.5537  -54.4986 H         1 UNK         0.0800 
    246 H246       -3.2436  -15.4766  -52.7079 H         1 UNK         0.0800 
    247 H247       -4.5557  -16.5973  -52.4266 H         1 UNK         0.0800 
@<TRIPOS>BOND
     1    1    2 1    
     2    1  127 1    
     3    1  128 1    
     4    1  129 1    
     5    2    3 2    
     6    2    4 am   BACKBONE|DICT|INTERRES
     7    4    5 1    
     8    4  130 1    
     9    5    6 1    
    10    5   65 1    
    11    5  131 1    
    12    6    7 1    
    13    6  132 1    
    14    6  133 1    
    15    7    8 1    
    16    8    9 1    
    17    8  134 1    
    18    8  135 1    
    19    9   10 ar   
    20    9   14 ar   
    21   10   11 ar   
    22   10  136 1    
    23   11   12 ar   
    24   11  126 1    
    25   12   13 ar   
    26   12  137 1    
    27   13   14 ar   
    28   13   15 1    
    29   14  138 1    
    30   15   16 1    
    31   15  139 1    
    32   15  140 1    
    33   16   17 1    
    34   17   18 1    
    35   17  141 1    
    36   17  142 1    
    37   18   19 1    
    38   18   67 1    
    39   18  143 1    
    40   19   20 am   BACKBONE|DICT|INTERRES
    41   19  144 1    
    42   20   21 2    
    43   20   22 1    
    44   22   23 1    
    45   22   24 1    
    46   22  145 1    
    47   23  146 1    
    48   23  147 1    
    49   23  148 1    
    50   24   25 am   BACKBONE|DICT|INTERRES
    51   24  149 1    
    52   25   26 2    
    53   25   27 1    
    54   27   28 1    
    55   27   29 1    
    56   27  150 1    
    57   28  151 1    
    58   28  152 1    
    59   28  153 1    
    60   29   30 am   BACKBONE|DICT|INTERRES
    61   29  154 1    
    62   30   31 2    
    63   30   32 1    
    64   32   33 1    
    65   32   34 1    
    66   32  155 1    
    67   33  156 1    
    68   33  157 1    
    69   33  158 1    
    70   34   35 am   BACKBONE|DICT|INTERRES
    71   34  159 1    
    72   35   36 2    
    73   35   37 1    
    74   37   38 1    
    75   37   39 1    
    76   37  160 1    
    77   38  161 1    
    78   38  162 1    
    79   38  163 1    
    80   39   40 am   BACKBONE|DICT|INTERRES
    81   39  164 1    
    82   40   41 2    
    83   40   42 1    
    84   42   43 1    
    85   42   44 1    
    86   42  165 1    
    87   43  166 1    
    88   43  167 1    
    89   43  168 1    
    90   44   45 am   BACKBONE|DICT|INTERRES
    91   44  169 1    
    92   45   46 2    
    93   45   47 1    
    94   47   48 1    
    95   47   49 1    
    96   47  170 1    
    97   48  171 1    
    98   48  172 1    
    99   48  173 1    
   100   49   50 am   BACKBONE|DICT|INTERRES
   101   49  174 1    
   102   50   51 2    
   103   50   52 1    
   104   52   53 1    
   105   52   54 1    
   106   52  175 1    
   107   53  176 1    
   108   53  177 1    
   109   53  178 1    
   110   54   55 am   BACKBONE|DICT|INTERRES
   111   54  179 1    
   112   55   56 2    
   113   55   57 1    
   114   57   58 1    
   115   57   59 1    
   116   57  180 1    
   117   58  181 1    
   118   58  182 1    
   119   58  183 1    
   120   59   60 am   BACKBONE|DICT|INTERRES
   121   59  184 1    
   122   60   61 2    
   123   60   62 1    
   124   62   63 1    
   125   62   64 1    
   126   62  185 1    
   127   63  186 1    
   128   63  187 1    
   129   63  188 1    
   130   64   65 am   BACKBONE|DICT|INTERRES
   131   64  189 1    
   132   65   66 2    
   133   67   68 2    
   134   67   69 am   BACKBONE|DICT|INTERRES
   135   69   70 1    
   136   69  190 1    
   137   70   71 1    
   138   70   72 1    
   139   70  191 1    
   140   71  192 1    
   141   71  193 1    
   142   71  194 1    
   143   72   73 2    
   144   72   74 am   BACKBONE|DICT|INTERRES
   145   74   75 1    
   146   74  195 1    
   147   75   76 1    
   148   75   77 1    
   149   75  196 1    
   150   76  197 1    
   151   76  198 1    
   152   76  199 1    
   153   77   78 2    
   154   77   79 am   BACKBONE|DICT|INTERRES
   155   79   80 1    
   156   79  200 1    
   157   80   81 1    
   158   80   82 1    
   159   80  201 1    
   160   81  202 1    
   161   81  203 1    
   162   81  204 1    
   163   82   83 2    
   164   82   84 am   BACKBONE|DICT|INTERRES
   165   84   85 1    
   166   84  205 1    
   167   85   86 1    
   168   85   87 1    
   169   85  206 1    
   170   86  207 1    
   171   86  208 1    
   172   86  209 1    
   173   87   88 2    
   174   87   89 am   BACKBONE|DICT|INTERRES
   175   89   90 1    
   176   89  210 1    
   177   90   91 1    
   178   90   92 1    
   179   90  211 1    
   180   91  212 1    
   181   91  213 1    
   182   91  214 1    
   183   92   93 2    
   184   92   94 am   BACKBONE|DICT|INTERRES
   185   94   95 1    
   186   94  215 1    
   187   95   96 1    
   188   95   97 1    
   189   95  216 1    
   190   96  217 1    
   191   96  218 1    
   192   96  219 1    
   193   97   98 2    
   194   97   99 am   BACKBONE|DICT|INTERRES
   195   99  100 1    
   196   99  220 1    
   197  100  101 1    
   198  100  102 1    
   199  100  221 1    
   200  101  222 1    
   201  101  223 1    
   202  101  224 1    
   203  102  103 2    
   204  102  104 am   BACKBONE|DICT|INTERRES
   205  104  105 1    
   206  104  225 1    
   207  105  106 1    
   208  105  107 1    
   209  105  226 1    
   210  106  227 1    
   211  106  228 1    
   212  106  229 1    
   213  107  108 2    
   214  107  109 am   BACKBONE|DICT|INTERRES
   215  109  110 1    
   216  109  230 1    
   217  110  111 1    
   218  110  112 1    
   219  110  231 1    
   220  111  232 1    
   221  111  233 1    
   222  111  234 1    
   223  112  113 2    
   224  112  114 am   BACKBONE|DICT|INTERRES
   225  114  115 1    
   226  114  235 1    
   227  115  116 1    
   228  115  117 1    
   229  115  236 1    
   230  116  237 1    
   231  116  238 1    
   232  116  239 1    
   233  117  118 2    
   234  117  119 am   BACKBONE|DICT|INTERRES
   235  119  120 1    
   236  119  240 1    
   237  120  121 1    
   238  120  124 1    
   239  120  241 1    
   240  121  122 am   BACKBONE|DICT|INTERRES
   241  121  123 2    
   242  122  242 1    
   243  122  243 1    
   244  124  125 1    
   245  124  244 1    
   246  124  245 1    
   247  125  126 1    
   248  126  246 1    
   249  126  247 1    
@<TRIPOS>SUBSTRUCTURE
     1 UNK         1 GROUP             0       ****    0 ROOT    
