@<TRIPOS>MOLECULE
3R540
247   249    1
SMALL
USER_CHARGES


@<TRIPOS>ATOM
      1 CA          3.6559  -15.2979  -49.8062 C.3       0 UNK        -0.1800 
      2 C           3.1508  -13.8689  -49.6663 C.2       0 UNK         0.5000 
      3 O           3.9197  -12.9253  -49.8437 O.2       0 UNK        -0.5000 
      4 N           1.8615  -13.7104  -49.3406 N.am      1 UNK        -0.5000 
      5 CA          1.1350  -12.4361  -49.2150 C.3       1 UNK         0.1400 
      6 C6          1.2131  -11.5418  -50.4915 C.3       23 UNK        -0.0398 
      7 S7         -0.4120  -10.8532  -50.9677 S.3       23 UNK        -0.2404 
      8 C8         -0.9665  -12.0350  -52.2455 C.3       23 UNK        -0.0205 
      9 C9         -0.9355  -13.4710  -51.7423 C.ar      23 UNK        -0.0193 
     10 C10        -0.0013  -14.3783  -52.2529 C.ar      23 UNK        -0.1150 
     11 C11         0.0956  -15.6694  -51.7260 C.ar      23 UNK        -0.0193 
     12 C12        -0.7490  -16.0453  -50.6801 C.ar      23 UNK        -0.1150 
     13 C13        -1.7131  -15.1611  -50.1883 C.ar      23 UNK        -0.0193 
     14 C14        -1.8081  -13.8776  -50.7291 C.ar      23 UNK        -0.1150 
     15 C15        -2.6304  -15.5837  -49.0534 C.3       23 UNK        -0.0205 
     16 S16        -4.3398  -15.9252  -49.5919 S.3       23 UNK        -0.2404 
     17 C17        -4.1614  -17.0765  -51.0087 C.3       23 UNK        -0.0398 
     18 CA         -3.9600  -18.5708  -50.6528 C.3       11 UNK         0.1400 
     19 N          -2.7011  -18.8016  -49.9444 N.am      11 UNK        -0.5000 
     20 C          -2.0809  -19.9834  -49.8414 C.2       10 UNK         0.5000 
     21 O          -2.4865  -21.0108  -50.3780 O.2       10 UNK        -0.5000 
     22 CA         -0.8196  -20.0395  -48.9591 C.3       10 UNK         0.1400 
     23 CB          0.4518  -19.9363  -49.8114 C.3       10 UNK        -0.1800 
     24 N          -0.7851  -19.0165  -47.9111 N.am      10 UNK        -0.5000 
     25 C          -1.6424  -18.9310  -46.8858 C.2       9 UNK         0.5000 
     26 O          -2.6106  -19.6836  -46.7627 O.2       9 UNK        -0.5000 
     27 CA         -1.3826  -17.8128  -45.8482 C.3       9 UNK         0.1400 
     28 CB         -2.2006  -18.0079  -44.5603 C.3       9 UNK        -0.1800 
     29 N           0.0324  -17.6708  -45.4915 N.am      9 UNK        -0.5000 
     30 C           0.9905  -17.1017  -46.2365 C.2       8 UNK         0.5000 
     31 O           0.7742  -16.6098  -47.3462 O.2       8 UNK        -0.5000 
     32 CA          2.4197  -17.0987  -45.6604 C.3       8 UNK         0.1400 
     33 CB          3.1406  -15.7726  -45.9452 C.3       8 UNK        -0.1800 
     34 N           2.4290  -17.3181  -44.2142 N.am      8 UNK        -0.5000 
     35 C           2.8314  -18.4324  -43.5892 C.2       7 UNK         0.5000 
     36 O           3.1589  -19.4626  -44.1796 O.2       7 UNK        -0.5000 
     37 CA          2.8666  -18.3743  -42.0443 C.3       7 UNK         0.1400 
     38 CB          3.7787  -19.4492  -41.4177 C.3       7 UNK        -0.1800 
     39 N           3.1995  -17.0388  -41.5328 N.am      7 UNK        -0.5000 
     40 C           4.3220  -16.3344  -41.7551 C.2       6 UNK         0.5000 
     41 O           5.3056  -16.7849  -42.3437 O.2       6 UNK        -0.5000 
     42 CA          4.3429  -14.8673  -41.2799 C.3       6 UNK         0.1400 
     43 CB          4.6450  -13.9309  -42.4585 C.3       6 UNK        -0.1800 
     44 N           3.0617  -14.4591  -40.7041 N.am      6 UNK        -0.5000 
     45 C           2.8135  -14.2973  -39.3983 C.2       5 UNK         0.5000 
     46 O           3.6642  -14.4203  -38.5166 O.2       5 UNK        -0.5000 
     47 CA          1.3582  -13.9660  -39.0064 C.3       5 UNK         0.1400 
     48 CB          1.1702  -12.4464  -38.8821 C.3       5 UNK        -0.1800 
     49 N           0.3638  -14.4910  -39.9467 N.am      5 UNK        -0.5000 
     50 C           0.1634  -15.7889  -40.2149 C.2       4 UNK         0.5000 
     51 O           0.7758  -16.7028  -39.6638 O.2       4 UNK        -0.5000 
     52 CA         -0.8408  -16.1271  -41.3313 C.3       4 UNK         0.1400 
     53 CB         -2.2184  -16.4512  -40.7349 C.3       4 UNK        -0.1800 
     54 N          -0.9914  -15.0783  -42.3447 N.am      4 UNK        -0.5000 
     55 C          -0.0233  -14.6224  -43.1517 C.2       3 UNK         0.5000 
     56 O           1.1459  -15.0142  -43.0949 O.2       3 UNK        -0.5000 
     57 CA         -0.4687  -13.5957  -44.2137 C.3       3 UNK         0.1400 
     58 CB         -1.3358  -12.4660  -43.6156 C.3       3 UNK        -0.1800 
     59 N           0.6312  -13.0376  -45.0067 N.am      3 UNK        -0.5000 
     60 C           1.6197  -12.2214  -44.6065 C.2       2 UNK         0.5000 
     61 O           1.7719  -11.8432  -43.4443 O.2       2 UNK        -0.5000 
     62 CA          2.5919  -11.7186  -45.6993 C.3       2 UNK         0.1400 
     63 CB          4.0552  -12.0613  -45.3779 C.3       2 UNK        -0.1800 
     64 N           2.2710  -12.2401  -47.0318 N.am      2 UNK        -0.5000 
     65 C           1.4381  -11.6635  -47.9090 C.2       1 UNK         0.5000 
     66 O           0.8778  -10.5882  -47.6942 O.2       1 UNK        -0.5000 
     67 C          -5.1643  -19.1783  -49.9000 C.2       11 UNK         0.5000 
     68 O          -6.0617  -19.7337  -50.5346 O.2       11 UNK        -0.5000 
     69 N          -5.1393  -19.1140  -48.5602 N.am      12 UNK        -0.5000 
     70 CA         -6.1291  -19.7469  -47.6895 C.3       12 UNK         0.1400 
     71 CB         -6.0339  -19.1568  -46.2749 C.3       12 UNK        -0.1800 
     72 C          -5.9471  -21.2723  -47.6663 C.2       12 UNK         0.5000 
     73 O          -6.9355  -22.0043  -47.7005 O.2       12 UNK        -0.5000 
     74 N          -4.6847  -21.7242  -47.6719 N.am      13 UNK        -0.5000 
     75 CA         -4.3203  -23.1317  -47.8186 C.3       13 UNK         0.1400 
     76 CB         -2.8174  -23.3067  -47.5779 C.3       13 UNK        -0.1800 
     77 C          -4.7387  -23.7046  -49.1857 C.2       13 UNK         0.5000 
     78 O          -5.2407  -24.8246  -49.2333 O.2       13 UNK        -0.5000 
     79 N          -4.5862  -22.9205  -50.2628 N.am      14 UNK        -0.5000 
     80 CA         -5.0625  -23.2583  -51.6052 C.3       14 UNK         0.1400 
     81 CB         -4.5464  -22.2367  -52.6301 C.3       14 UNK        -0.1800 
     82 C          -6.5931  -23.3812  -51.6823 C.2       14 UNK         0.5000 
     83 O          -7.0881  -24.3351  -52.2822 O.2       14 UNK        -0.5000 
     84 N          -7.3146  -22.4566  -51.0321 N.am      15 UNK        -0.5000 
     85 CA         -8.7751  -22.4886  -50.9029 C.3       15 UNK         0.1400 
     86 CB         -9.2646  -21.1759  -50.2733 C.3       15 UNK        -0.1800 
     87 C          -9.2829  -23.7074  -50.1044 C.2       15 UNK         0.5000 
     88 O         -10.3354  -24.2554  -50.4331 O.2       15 UNK        -0.5000 
     89 N          -8.5044  -24.1336  -49.1011 N.am      16 UNK        -0.5000 
     90 CA         -8.7286  -25.3449  -48.3091 C.3       16 UNK         0.1400 
     91 CB         -7.9941  -25.1931  -46.9667 C.3       16 UNK        -0.1800 
     92 C          -8.2898  -26.6443  -49.0213 C.2       16 UNK         0.5000 
     93 O          -8.5436  -27.7260  -48.4895 O.2       16 UNK        -0.5000 
     94 N          -7.6336  -26.5241  -50.1865 N.am      17 UNK        -0.5000 
     95 CA         -7.0322  -27.5919  -50.9949 C.3       17 UNK         0.1400 
     96 CB         -8.1138  -28.5382  -51.5566 C.3       17 UNK        -0.1800 
     97 C          -5.8894  -28.3323  -50.2642 C.2       17 UNK         0.5000 
     98 O          -5.7351  -29.5457  -50.4186 O.2       17 UNK        -0.5000 
     99 N          -5.1129  -27.5782  -49.4787 N.am      18 UNK        -0.5000 
    100 CA        -3.9592  -28.0285  -48.7104 C.3       18 UNK         0.1400 
    101 CB        -4.1249  -27.5385  -47.2564 C.3       18 UNK        -0.1800 
    102 C         -2.6656  -27.5404  -49.3961 C.2       18 UNK         0.5000 
    103 O         -2.5052  -27.7380  -50.6029 O.2       18 UNK        -0.5000 
    104 N         -1.7519  -26.9363  -48.6243 N.am      19 UNK        -0.5000 
    105 CA        -0.4379  -26.4494  -49.0488 C.3       19 UNK         0.1400 
    106 CB         0.4349  -26.2518  -47.7966 C.3       19 UNK        -0.1800 
    107 C         -0.5230  -25.1693  -49.9065 C.2       19 UNK         0.5000 
    108 O         -0.1677  -24.0835  -49.4438 O.2       19 UNK        -0.5000 
    109 N         -0.9915  -25.3207  -51.1498 N.am      20 UNK        -0.5000 
    110 CA        -1.1406  -24.2787  -52.1688 C.3       20 UNK         0.1400 
    111 CB        -2.0479  -24.8348  -53.2828 C.3       20 UNK        -0.1800 
    112 C          0.2150  -23.7840  -52.7274 C.2       20 UNK         0.5000 
    113 O          0.4571  -23.8740  -53.9328 O.2       20 UNK        -0.5000 
    114 N          1.0864  -23.2821  -51.8432 N.am      21 UNK        -0.5000 
    115 CA         2.4910  -22.9440  -52.1035 C.3       21 UNK         0.1400 
    116 CB         3.1650  -22.5544  -50.7792 C.3       21 UNK        -0.1800 
    117 C          2.7378  -21.8662  -53.1804 C.2       21 UNK         0.5000 
    118 O          3.8417  -21.8155  -53.7250 O.2       21 UNK        -0.5000 
    119 N          1.7225  -21.0496  -53.4849 N.am      22 UNK        -0.5000 
    120 CA         1.7145  -20.0925  -54.6028 C.3       22 UNK         0.1400 
    121 C          0.5764  -20.3597  -55.6324 C.2       22 UNK         0.5000 
    122 N         -0.0678  -21.5220  -55.6237 N.am      22 UNK        -0.7600 
    123 O          0.2880  -19.5156  -56.4767 O.2       22 UNK        -0.5000 
    124 C124        1.8016  -18.6209  -54.1180 C.3       23 UNK        -0.0398 
    125 S125        0.3582  -18.0216  -53.1726 S.3       23 UNK        -0.2404 
    126 C126        1.1308  -16.6465  -52.2628 C.3       23 UNK        -0.0205 
    127 H127        2.9076  -16.0243  -49.4874 H         1 UNK         0.0600 
    128 H128        4.5495  -15.4433  -49.1994 H         1 UNK         0.0600 
    129 H129        3.9113  -15.5040  -50.8455 H         1 UNK         0.0600 
    130 H130        1.2930  -14.5355  -49.1992 H         1 UNK         0.3000 
    131 H131        0.1006  -12.7542  -49.0884 H         1 UNK         0.0600 
    132 H132        1.9207  -10.7213  -50.3606 H         1 UNK         0.0800 
    133 H133        1.5958  -12.1072  -51.3416 H         1 UNK         0.0800 
    134 H134       -1.9825  -11.7811  -52.5504 H         1 UNK         0.0800 
    135 H135       -0.3412  -11.9209  -53.1324 H         1 UNK         0.0800 
    136 H136        0.6700  -14.0699  -53.0419 H         1 UNK         0.1150 
    137 H137       -0.6537  -17.0323  -50.2580 H         1 UNK         0.1150 
    138 H138       -2.5358  -13.1816  -50.3357 H         1 UNK         0.1150 
    139 H139       -2.2276  -16.4562  -48.5447 H         1 UNK         0.0800 
    140 H140       -2.6555  -14.7919  -48.3032 H         1 UNK         0.0800 
    141 H141       -3.3491  -16.7394  -51.6526 H         1 UNK         0.0800 
    142 H142       -5.0587  -16.9726  -51.6212 H         1 UNK         0.0800 
    143 H143       -3.8912  -19.1074  -51.6017 H         1 UNK         0.0600 
    144 H144       -2.3053  -18.0079  -49.4686 H         1 UNK         0.3000 
    145 H145       -0.8099  -21.0135  -48.4675 H         1 UNK         0.0600 
    146 H146        1.3420  -20.0938  -49.2029 H         1 UNK         0.0600 
    147 H147        0.4547  -20.6896  -50.5995 H         1 UNK         0.0600 
    148 H148        0.5454  -18.9631  -50.2893 H         1 UNK         0.0600 
    149 H149       -0.0342  -18.3355  -47.9504 H         1 UNK         0.3000 
    150 H150       -1.7119  -16.8764  -46.3006 H         1 UNK         0.0600 
    151 H151       -3.2692  -18.0506  -44.7730 H         1 UNK         0.0600 
    152 H152       -2.0495  -17.1795  -43.8709 H         1 UNK         0.0600 
    153 H153       -1.9291  -18.9302  -44.0456 H         1 UNK         0.0600 
    154 H154        0.3144  -18.0833  -44.6151 H         1 UNK         0.3000 
    155 H155        2.9660  -17.8947  -46.1698 H         1 UNK         0.0600 
    156 H156        4.1605  -15.7902  -45.5604 H         1 UNK         0.0600 
    157 H157        2.6235  -14.9365  -45.4787 H         1 UNK         0.0600 
    158 H158        3.2013  -15.5734  -47.0135 H         1 UNK         0.0600 
    159 H159        2.1315  -16.5218  -43.6547 H         1 UNK         0.3000 
    160 H160        1.8474  -18.5781  -41.7133 H         1 UNK         0.0600 
    161 H161        4.8100  -19.3569  -41.7589 H         1 UNK         0.0600 
    162 H162        3.4377  -20.4517  -41.6787 H         1 UNK         0.0600 
    163 H163        3.7773  -19.3807  -40.3299 H         1 UNK         0.0600 
    164 H164        2.4694  -16.5931  -40.9919 H         1 UNK         0.3000 
    165 H165        5.1458  -14.7705  -40.5466 H         1 UNK         0.0600 
    166 H166        3.8869  -14.0293  -43.2355 H         1 UNK         0.0600 
    167 H167        4.6660  -12.8887  -42.1400 H         1 UNK         0.0600 
    168 H168        5.6129  -14.1539  -42.9089 H         1 UNK         0.0600 
    169 H169        2.3012  -14.3471  -41.3649 H         1 UNK         0.3000 
    170 H170        1.1685  -14.4184  -38.0308 H         1 UNK         0.0600 
    171 H171        1.8797  -12.0215  -38.1708 H         1 UNK         0.0600 
    172 H172        1.3225  -11.9435  -39.8383 H         1 UNK         0.0600 
    173 H173        0.1694  -12.1996  -38.5274 H         1 UNK         0.0600 
    174 H174       -0.1774  -13.8101  -40.4588 H         1 UNK         0.3000 
    175 H175       -0.4698  -17.0210  -41.8370 H         1 UNK         0.0600 
    176 H176       -2.6566  -15.5834  -40.2403 H         1 UNK         0.0600 
    177 H177       -2.9146  -16.7873  -41.5034 H         1 UNK         0.0600 
    178 H178       -2.1462  -17.2491  -39.9945 H         1 UNK         0.0600 
    179 H179       -1.9226  -14.7033  -42.4528 H         1 UNK         0.3000 
    180 H180       -1.0870  -14.1483  -44.9227 H         1 UNK         0.0600 
    181 H181       -0.8286  -11.9534  -42.7975 H         1 UNK         0.0600 
    182 H182       -2.2805  -12.8470  -43.2270 H         1 UNK         0.0600 
    183 H183       -1.5842  -11.7204  -44.3712 H         1 UNK         0.0600 
    184 H184        0.6301  -13.2972  -45.9812 H         1 UNK         0.3000 
    185 H185        2.5086  -10.6299  -45.7090 H         1 UNK         0.0600 
    186 H186        4.7297  -11.6035  -46.1016 H         1 UNK         0.0600 
    187 H187        4.3403  -11.6872  -44.3941 H         1 UNK         0.0600 
    188 H188        4.2368  -13.1349  -45.3925 H         1 UNK         0.0600 
    189 H189        2.7047  -13.1122  -47.2964 H         1 UNK         0.3000 
    190 H190       -4.3463  -18.6869  -48.1049 H         1 UNK         0.3000 
    191 H191       -7.1250  -19.5298  -48.0816 H         1 UNK         0.0600 
    192 H192       -6.1570  -18.0737  -46.2892 H         1 UNK         0.0600 
    193 H193       -6.8152  -19.5650  -45.6327 H         1 UNK         0.0600 
    194 H194       -5.0768  -19.3808  -45.8043 H         1 UNK         0.0600 
    195 H195       -3.9280  -21.0548  -47.5842 H         1 UNK         0.3000 
    196 H196       -4.8508  -23.6924  -47.0464 H         1 UNK         0.0600 
    197 H197       -2.5444  -24.3615  -47.5749 H         1 UNK         0.0600 
    198 H198       -2.5154  -22.8883  -46.6177 H         1 UNK         0.0600 
    199 H199       -2.2321  -22.8204  -48.3558 H         1 UNK         0.0600 
    200 H200       -4.0717  -22.0500  -50.1694 H         1 UNK         0.3000 
    201 H201       -4.6519  -24.2356  -51.8569 H         1 UNK         0.0600 
    202 H202       -3.4593  -22.1738  -52.6219 H         1 UNK         0.0600 
    203 H203       -4.9378  -21.2384  -52.4385 H         1 UNK         0.0600 
    204 H204       -4.8458  -22.5161  -53.6409 H         1 UNK         0.0600 
    205 H205       -6.8341  -21.6734  -50.6027 H         1 UNK         0.3000 
    206 H206       -9.1943  -22.5572  -51.9089 H         1 UNK         0.0600 
    207 H207       -8.9502  -20.3143  -50.8626 H         1 UNK         0.0600 
    208 H208      -10.3536  -21.1530  -50.2179 H         1 UNK         0.0600 
    209 H209       -8.8829  -21.0455  -49.2610 H         1 UNK         0.0600 
    210 H210       -7.6910  -23.5799  -48.8554 H         1 UNK         0.3000 
    211 H211       -9.7971  -25.4327  -48.1023 H         1 UNK         0.0600 
    212 H212       -6.9144  -25.1346  -47.1038 H         1 UNK         0.0600 
    213 H213       -8.1947  -26.0412  -46.3110 H         1 UNK         0.0600 
    214 H214       -8.3139  -24.2935  -46.4405 H         1 UNK         0.0600 
    215 H215       -7.4711  -25.5874  -50.5342 H         1 UNK         0.3000 
    216 H216       -6.5648  -27.0936  -51.8452 H         1 UNK         0.0600 
    217 H217       -8.8951  -27.9801  -52.0727 H         1 UNK         0.0600 
    218 H218       -8.5855  -29.1293  -50.7713 H         1 UNK         0.0600 
    219 H219       -7.6855  -29.2361  -52.2768 H         1 UNK         0.0600 
    220 H220       -5.2900  -26.5746  -49.4425 H         1 UNK         0.3000 
    221 H221       -3.9165  -29.1191  -48.6943 H         1 UNK         0.0600 
    222 H222       -4.1326  -26.4498  -47.1902 H         1 UNK         0.0600 
    223 H223       -5.0643  -27.8960  -46.8339 H         1 UNK         0.0600 
    224 H224       -3.3272  -27.9134  -46.6141 H         1 UNK         0.0600 
    225 H225       -1.9729  -26.8059  -47.6484 H         1 UNK         0.3000 
    226 H226        0.0344  -27.2206  -49.6610 H         1 UNK         0.0600 
    227 H227        0.5563  -27.1862  -47.2485 H         1 UNK         0.0600 
    228 H228        1.4328  -25.9037  -48.0667 H         1 UNK         0.0600 
    229 H229        0.0041  -25.5165  -47.1156 H         1 UNK         0.0600 
    230 H230       -1.3143  -26.2468  -51.4079 H         1 UNK         0.3000 
    231 H231       -1.6403  -23.4243  -51.7083 H         1 UNK         0.0600 
    232 H232       -2.3170  -24.0548  -53.9960 H         1 UNK         0.0600 
    233 H233       -2.9712  -25.2481  -52.8815 H         1 UNK         0.0600 
    234 H234       -1.5562  -25.6339  -53.8392 H         1 UNK         0.0600 
    235 H235        0.7948  -23.2849  -50.8690 H         1 UNK         0.3000 
    236 H236        2.9699  -23.8568  -52.4633 H         1 UNK         0.0600 
    237 H237        3.0545  -23.3403  -50.0316 H         1 UNK         0.0600 
    238 H238        4.2340  -22.3886  -50.9191 H         1 UNK         0.0600 
    239 H239        2.7452  -21.6377  -50.3682 H         1 UNK         0.0600 
    240 H240        0.8474  -21.1572  -52.9945 H         1 UNK         0.3000 
    241 H241        2.6126  -20.2553  -55.2008 H         1 UNK         0.0600 
    242 H242        0.2050  -22.2758  -55.0006 H         1 UNK         0.3800 
    243 H243       -0.7924  -21.6826  -56.3050 H         1 UNK         0.3800 
    244 H244        1.9481  -17.9542  -54.9694 H         1 UNK         0.0800 
    245 H245        2.6942  -18.5074  -53.5012 H         1 UNK         0.0800 
    246 H246        1.7197  -17.0486  -51.4380 H         1 UNK         0.0800 
    247 H247        1.8316  -16.1268  -52.9182 H         1 UNK         0.0800 
@<TRIPOS>BOND
     1    1    2 1    
     2    1  127 1    
     3    1  128 1    
     4    1  129 1    
     5    2    3 2    
     6    2    4 am   BACKBONE|DICT|INTERRES
     7    4    5 1    
     8    4  130 1    
     9    5    6 1    
    10    5   65 1    
    11    5  131 1    
    12    6    7 1    
    13    6  132 1    
    14    6  133 1    
    15    7    8 1    
    16    8    9 1    
    17    8  134 1    
    18    8  135 1    
    19    9   10 ar   
    20    9   14 ar   
    21   10   11 ar   
    22   10  136 1    
    23   11   12 ar   
    24   11  126 1    
    25   12   13 ar   
    26   12  137 1    
    27   13   14 ar   
    28   13   15 1    
    29   14  138 1    
    30   15   16 1    
    31   15  139 1    
    32   15  140 1    
    33   16   17 1    
    34   17   18 1    
    35   17  141 1    
    36   17  142 1    
    37   18   19 1    
    38   18   67 1    
    39   18  143 1    
    40   19   20 am   BACKBONE|DICT|INTERRES
    41   19  144 1    
    42   20   21 2    
    43   20   22 1    
    44   22   23 1    
    45   22   24 1    
    46   22  145 1    
    47   23  146 1    
    48   23  147 1    
    49   23  148 1    
    50   24   25 am   BACKBONE|DICT|INTERRES
    51   24  149 1    
    52   25   26 2    
    53   25   27 1    
    54   27   28 1    
    55   27   29 1    
    56   27  150 1    
    57   28  151 1    
    58   28  152 1    
    59   28  153 1    
    60   29   30 am   BACKBONE|DICT|INTERRES
    61   29  154 1    
    62   30   31 2    
    63   30   32 1    
    64   32   33 1    
    65   32   34 1    
    66   32  155 1    
    67   33  156 1    
    68   33  157 1    
    69   33  158 1    
    70   34   35 am   BACKBONE|DICT|INTERRES
    71   34  159 1    
    72   35   36 2    
    73   35   37 1    
    74   37   38 1    
    75   37   39 1    
    76   37  160 1    
    77   38  161 1    
    78   38  162 1    
    79   38  163 1    
    80   39   40 am   BACKBONE|DICT|INTERRES
    81   39  164 1    
    82   40   41 2    
    83   40   42 1    
    84   42   43 1    
    85   42   44 1    
    86   42  165 1    
    87   43  166 1    
    88   43  167 1    
    89   43  168 1    
    90   44   45 am   BACKBONE|DICT|INTERRES
    91   44  169 1    
    92   45   46 2    
    93   45   47 1    
    94   47   48 1    
    95   47   49 1    
    96   47  170 1    
    97   48  171 1    
    98   48  172 1    
    99   48  173 1    
   100   49   50 am   BACKBONE|DICT|INTERRES
   101   49  174 1    
   102   50   51 2    
   103   50   52 1    
   104   52   53 1    
   105   52   54 1    
   106   52  175 1    
   107   53  176 1    
   108   53  177 1    
   109   53  178 1    
   110   54   55 am   BACKBONE|DICT|INTERRES
   111   54  179 1    
   112   55   56 2    
   113   55   57 1    
   114   57   58 1    
   115   57   59 1    
   116   57  180 1    
   117   58  181 1    
   118   58  182 1    
   119   58  183 1    
   120   59   60 am   BACKBONE|DICT|INTERRES
   121   59  184 1    
   122   60   61 2    
   123   60   62 1    
   124   62   63 1    
   125   62   64 1    
   126   62  185 1    
   127   63  186 1    
   128   63  187 1    
   129   63  188 1    
   130   64   65 am   BACKBONE|DICT|INTERRES
   131   64  189 1    
   132   65   66 2    
   133   67   68 2    
   134   67   69 am   BACKBONE|DICT|INTERRES
   135   69   70 1    
   136   69  190 1    
   137   70   71 1    
   138   70   72 1    
   139   70  191 1    
   140   71  192 1    
   141   71  193 1    
   142   71  194 1    
   143   72   73 2    
   144   72   74 am   BACKBONE|DICT|INTERRES
   145   74   75 1    
   146   74  195 1    
   147   75   76 1    
   148   75   77 1    
   149   75  196 1    
   150   76  197 1    
   151   76  198 1    
   152   76  199 1    
   153   77   78 2    
   154   77   79 am   BACKBONE|DICT|INTERRES
   155   79   80 1    
   156   79  200 1    
   157   80   81 1    
   158   80   82 1    
   159   80  201 1    
   160   81  202 1    
   161   81  203 1    
   162   81  204 1    
   163   82   83 2    
   164   82   84 am   BACKBONE|DICT|INTERRES
   165   84   85 1    
   166   84  205 1    
   167   85   86 1    
   168   85   87 1    
   169   85  206 1    
   170   86  207 1    
   171   86  208 1    
   172   86  209 1    
   173   87   88 2    
   174   87   89 am   BACKBONE|DICT|INTERRES
   175   89   90 1    
   176   89  210 1    
   177   90   91 1    
   178   90   92 1    
   179   90  211 1    
   180   91  212 1    
   181   91  213 1    
   182   91  214 1    
   183   92   93 2    
   184   92   94 am   BACKBONE|DICT|INTERRES
   185   94   95 1    
   186   94  215 1    
   187   95   96 1    
   188   95   97 1    
   189   95  216 1    
   190   96  217 1    
   191   96  218 1    
   192   96  219 1    
   193   97   98 2    
   194   97   99 am   BACKBONE|DICT|INTERRES
   195   99  100 1    
   196   99  220 1    
   197  100  101 1    
   198  100  102 1    
   199  100  221 1    
   200  101  222 1    
   201  101  223 1    
   202  101  224 1    
   203  102  103 2    
   204  102  104 am   BACKBONE|DICT|INTERRES
   205  104  105 1    
   206  104  225 1    
   207  105  106 1    
   208  105  107 1    
   209  105  226 1    
   210  106  227 1    
   211  106  228 1    
   212  106  229 1    
   213  107  108 2    
   214  107  109 am   BACKBONE|DICT|INTERRES
   215  109  110 1    
   216  109  230 1    
   217  110  111 1    
   218  110  112 1    
   219  110  231 1    
   220  111  232 1    
   221  111  233 1    
   222  111  234 1    
   223  112  113 2    
   224  112  114 am   BACKBONE|DICT|INTERRES
   225  114  115 1    
   226  114  235 1    
   227  115  116 1    
   228  115  117 1    
   229  115  236 1    
   230  116  237 1    
   231  116  238 1    
   232  116  239 1    
   233  117  118 2    
   234  117  119 am   BACKBONE|DICT|INTERRES
   235  119  120 1    
   236  119  240 1    
   237  120  121 1    
   238  120  124 1    
   239  120  241 1    
   240  121  122 am   BACKBONE|DICT|INTERRES
   241  121  123 2    
   242  122  242 1    
   243  122  243 1    
   244  124  125 1    
   245  124  244 1    
   246  124  245 1    
   247  125  126 1    
   248  126  246 1    
   249  126  247 1    
@<TRIPOS>SUBSTRUCTURE
     1 UNK         1 GROUP             0       ****    0 ROOT    
