@<TRIPOS>MOLECULE
3R540
247   249    1
SMALL
USER_CHARGES


@<TRIPOS>ATOM
      1 CA          0.3878  -13.9629  -45.8692 C.3       0 UNK        -0.1800 
      2 C           1.4257  -13.2798  -46.7460 C.2       0 UNK         0.5000 
      3 O           1.2680  -12.1029  -47.0718 O.2       0 UNK        -0.5000 
      4 N           2.4742  -14.0171  -47.1298 N.am      1 UNK        -0.5000 
      5 CA          3.5776  -13.5325  -47.9655 C.3       1 UNK         0.1400 
      6 C6          3.7857  -14.4033  -49.2298 C.3       23 UNK        -0.0398 
      7 S7          2.3893  -14.2398  -50.3950 S.3       23 UNK        -0.2404 
      8 C8          1.4204  -15.7316  -50.0221 C.3       23 UNK        -0.0205 
      9 C9          1.7845  -16.8868  -50.9425 C.ar      23 UNK        -0.0193 
     10 C10         1.1108  -17.0376  -52.1588 C.ar      23 UNK        -0.1150 
     11 C11         1.4323  -18.0829  -53.0282 C.ar      23 UNK        -0.0193 
     12 C12         2.4515  -18.9703  -52.6762 C.ar      23 UNK        -0.1150 
     13 C13         3.1014  -18.8633  -51.4440 C.ar      23 UNK        -0.0193 
     14 C14         2.7751  -17.8088  -50.5850 C.ar      23 UNK        -0.1150 
     15 C15         4.1559  -19.8940  -51.0596 C.3       23 UNK        -0.0205 
     16 S16         3.6035  -21.0654  -49.7687 S.3       23 UNK        -0.2404 
     17 C17         1.9794  -21.6723  -50.3681 C.3       23 UNK        -0.0398 
     18 CA          0.8556  -21.5058  -49.3107 C.3       11 UNK         0.1400 
     19 N           0.7931  -20.1413  -48.7883 N.am      11 UNK        -0.5000 
     20 C           0.8766  -19.8321  -47.4904 C.2       10 UNK         0.5000 
     21 O           0.8544  -20.6658  -46.5806 O.2       10 UNK        -0.5000 
     22 CA          1.0511  -18.3438  -47.1582 C.3       10 UNK         0.1400 
     23 CB         -0.2465  -17.5546  -47.3748 C.3       10 UNK        -0.1800 
     24 N           1.4795  -18.2129  -45.7713 N.am      10 UNK        -0.5000 
     25 C           2.4815  -17.4429  -45.3385 C.2       9 UNK         0.5000 
     26 O           3.0613  -16.6156  -46.0493 O.2       9 UNK        -0.5000 
     27 CA          2.9062  -17.5906  -43.8639 C.3       9 UNK         0.1400 
     28 CB          2.9164  -16.2238  -43.1701 C.3       9 UNK        -0.1800 
     29 N           2.0658  -18.4957  -43.0775 N.am      9 UNK        -0.5000 
     30 C           2.2296  -19.8224  -42.9852 C.2       8 UNK         0.5000 
     31 O           3.0650  -20.4484  -43.6378 O.2       8 UNK        -0.5000 
     32 CA          1.3266  -20.5787  -41.9932 C.3       8 UNK         0.1400 
     33 CB          2.0016  -20.6580  -40.6145 C.3       8 UNK        -0.1800 
     34 N           0.0188  -19.9376  -41.8425 N.am      8 UNK        -0.5000 
     35 C          -1.1621  -20.5320  -42.0666 C.2       7 UNK         0.5000 
     36 O          -1.2870  -21.7213  -42.3625 O.2       7 UNK        -0.5000 
     37 CA         -2.4278  -19.6522  -41.9479 C.3       7 UNK         0.1400 
     38 CB         -3.0550  -19.8004  -40.5535 C.3       7 UNK        -0.1800 
     39 N          -2.1876  -18.2303  -42.2102 N.am      7 UNK        -0.5000 
     40 C          -1.7340  -17.7382  -43.3704 C.2       6 UNK         0.5000 
     41 O          -1.5557  -18.4283  -44.3710 O.2       6 UNK        -0.5000 
     42 CA         -1.3653  -16.2431  -43.4232 C.3       6 UNK         0.1400 
     43 CB         -2.4722  -15.4458  -44.1295 C.3       6 UNK        -0.1800 
     44 N          -1.0549  -15.5981  -42.1400 N.am      6 UNK        -0.5000 
     45 C          -0.1569  -15.9993  -41.2301 C.2       5 UNK         0.5000 
     46 O           0.4414  -17.0757  -41.2974 O.2       5 UNK        -0.5000 
     47 CA          0.1352  -15.0193  -40.0736 C.3       5 UNK         0.1400 
     48 CB          1.0672  -15.6320  -39.0121 C.3       5 UNK        -0.1800 
     49 N           0.7334  -13.7682  -40.5485 N.am      5 UNK        -0.5000 
     50 C           0.0848  -12.7655  -41.1582 C.2       4 UNK         0.5000 
     51 O          -1.1229  -12.7933  -41.4039 O.2       4 UNK        -0.5000 
     52 CA          0.9079  -11.5195  -41.5527 C.3       4 UNK         0.1400 
     53 CB          0.6491  -10.3741  -40.5610 C.3       4 UNK        -0.1800 
     54 N           2.3546  -11.7533  -41.6367 N.am      4 UNK        -0.5000 
     55 C           2.9487  -12.4565  -42.6086 C.2       3 UNK         0.5000 
     56 O           2.3306  -12.9914  -43.5317 O.2       3 UNK        -0.5000 
     57 CA          4.4781  -12.6071  -42.5285 C.3       3 UNK         0.1400 
     58 CB          4.8824  -13.3930  -41.2621 C.3       3 UNK        -0.1800 
     59 N           4.9090  -13.3100  -43.7334 N.am      3 UNK        -0.5000 
     60 C           6.1533  -13.5969  -44.1290 C.2       2 UNK         0.5000 
     61 O           7.1663  -13.2120  -43.5435 O.2       2 UNK        -0.5000 
     62 CA          6.2923  -14.4771  -45.3887 C.3       2 UNK         0.1400 
     63 CB          6.5706  -15.9377  -44.9988 C.3       2 UNK        -0.1800 
     64 N           5.1098  -14.4346  -46.2564 N.am      2 UNK        -0.5000 
     65 C           4.8708  -13.4491  -47.1351 C.2       1 UNK         0.5000 
     66 O           5.6240  -12.4869  -47.2943 O.2       1 UNK        -0.5000 
     67 C          -0.5187  -21.8896  -49.8880 C.2       11 UNK         0.5000 
     68 O          -1.0075  -21.2060  -50.7899 O.2       11 UNK        -0.5000 
     69 N          -1.0988  -22.9800  -49.3630 N.am      12 UNK        -0.5000 
     70 CA         -2.3236  -23.6587  -49.8054 C.3       12 UNK         0.1400 
     71 CB         -2.0130  -24.5520  -51.0205 C.3       12 UNK        -0.1800 
     72 C          -3.5193  -22.7060  -50.0158 C.2       12 UNK         0.5000 
     73 O          -4.0750  -22.2256  -49.0275 O.2       12 UNK        -0.5000 
     74 N          -3.9044  -22.4358  -51.2724 N.am      13 UNK        -0.5000 
     75 CA         -5.0148  -21.5437  -51.6261 C.3       13 UNK         0.1400 
     76 CB         -5.1796  -21.5018  -53.1500 C.3       13 UNK        -0.1800 
     77 C          -4.8660  -20.1110  -51.0791 C.2       13 UNK         0.5000 
     78 O          -5.8694  -19.4991  -50.7126 O.2       13 UNK        -0.5000 
     79 N          -3.6234  -19.6166  -50.9796 N.am      14 UNK        -0.5000 
     80 CA         -3.3115  -18.3073  -50.4034 C.3       14 UNK         0.1400 
     81 CB         -1.9103  -17.8759  -50.8524 C.3       14 UNK        -0.1800 
     82 C          -3.4466  -18.2740  -48.8669 C.2       14 UNK         0.5000 
     83 O          -3.6178  -17.1934  -48.3035 O.2       14 UNK        -0.5000 
     84 N          -3.4116  -19.4492  -48.2219 N.am      15 UNK        -0.5000 
     85 CA         -3.7067  -19.6419  -46.7994 C.3       15 UNK         0.1400 
     86 CB         -2.8268  -20.7797  -46.2539 C.3       15 UNK        -0.1800 
     87 C          -5.2025  -19.9328  -46.5505 C.2       15 UNK         0.5000 
     88 O          -5.5746  -20.2414  -45.4178 O.2       15 UNK        -0.5000 
     89 N          -6.0282  -19.8378  -47.6050 N.am      16 UNK        -0.5000 
     90 CA         -7.4706  -20.0880  -47.6451 C.3       16 UNK         0.1400 
     91 CB         -8.2365  -19.1250  -46.7123 C.3       16 UNK        -0.1800 
     92 C          -7.8445  -21.5701  -47.4365 C.2       16 UNK         0.5000 
     93 O          -8.9280  -21.8614  -46.9245 O.2       16 UNK        -0.5000 
     94 N          -6.9638  -22.4878  -47.8640 N.am      17 UNK        -0.5000 
     95 CA         -7.2565  -23.9201  -47.9519 C.3       17 UNK         0.1400 
     96 CB         -5.9381  -24.6990  -48.0970 C.3       17 UNK        -0.1800 
     97 C          -8.2038  -24.2348  -49.1295 C.2       17 UNK         0.5000 
     98 O          -8.4536  -23.3780  -49.9806 O.2       17 UNK        -0.5000 
     99 N          -8.6831  -25.4841  -49.1787 N.am      18 UNK        -0.5000 
    100 CA        -9.5822  -26.0068  -50.2155 C.3       18 UNK         0.1400 
    101 CB       -10.1978  -27.3209  -49.7061 C.3       18 UNK        -0.1800 
    102 C         -8.9211  -26.2146  -51.5980 C.2       18 UNK         0.5000 
    103 O         -9.6220  -26.5492  -52.5549 O.2       18 UNK        -0.5000 
    104 N         -7.5951  -26.0395  -51.6797 N.am      19 UNK        -0.5000 
    105 CA        -6.7888  -26.1221  -52.8971 C.3       19 UNK         0.1400 
    106 CB        -5.3130  -25.9537  -52.5095 C.3       19 UNK        -0.1800 
    107 C         -7.1782  -25.0677  -53.9527 C.2       19 UNK         0.5000 
    108 O         -7.6139  -23.9688  -53.6029 O.2       19 UNK        -0.5000 
    109 N         -6.9785  -25.4170  -55.2286 N.am      20 UNK        -0.5000 
    110 CA        -7.2762  -24.5598  -56.3791 C.3       20 UNK         0.1400 
    111 CB        -7.5898  -25.4581  -57.5869 C.3       20 UNK        -0.1800 
    112 C         -6.1390  -23.5768  -56.7254 C.2       20 UNK         0.5000 
    113 O         -6.3641  -22.6539  -57.5099 O.2       20 UNK        -0.5000 
    114 N         -4.9424  -23.7917  -56.1665 N.am      21 UNK        -0.5000 
    115 CA        -3.7355  -23.0088  -56.4141 C.3       21 UNK         0.1400 
    116 CB        -3.0445  -23.5219  -57.6923 C.3       21 UNK        -0.1800 
    117 C         -2.8050  -23.1006  -55.1956 C.2       21 UNK         0.5000 
    118 O         -3.0827  -23.8583  -54.2615 O.2       21 UNK        -0.5000 
    119 N         -1.7185  -22.3207  -55.2236 N.am      22 UNK        -0.5000 
    120 CA        -0.6971  -22.2696  -54.1638 C.3       22 UNK         0.1400 
    121 C          0.1847  -23.5494  -54.0257 C.2       22 UNK         0.5000 
    122 N          0.1445  -24.4962  -54.9551 N.am      22 UNK        -0.7600 
    123 O          0.9202  -23.6846  -53.0524 O.2       22 UNK        -0.5000 
    124 C124        0.2076  -21.0206  -54.2862 C.3       23 UNK        -0.0398 
    125 S125       -0.6920  -19.4349  -54.2291 S.3       23 UNK        -0.2404 
    126 C126        0.6886  -18.2460  -54.3484 C.3       23 UNK        -0.0205 
    127 H127        0.7777  -14.8890  -45.4519 H         1 UNK         0.0600 
    128 H128       -0.5077  -14.1876  -46.4473 H         1 UNK         0.0600 
    129 H129        0.1050  -13.3148  -45.0400 H         1 UNK         0.0600 
    130 H130        2.5575  -14.9752  -46.8010 H         1 UNK         0.3000 
    131 H131        3.3721  -12.5144  -48.3041 H         1 UNK         0.0600 
    132 H132        4.6847  -14.0913  -49.7648 H         1 UNK         0.0800 
    133 H133        3.9393  -15.4507  -48.9654 H         1 UNK         0.0800 
    134 H134        0.3620  -15.4921  -50.1315 H         1 UNK         0.0800 
    135 H135        1.5582  -16.0053  -48.9779 H         1 UNK         0.0800 
    136 H136        0.3344  -16.3363  -52.4308 H         1 UNK         0.1150 
    137 H137        2.7271  -19.7643  -53.3548 H         1 UNK         0.1150 
    138 H138        3.2946  -17.7106  -49.6426 H         1 UNK         0.1150 
    139 H139        4.4686  -20.4653  -51.9350 H         1 UNK         0.0800 
    140 H140        5.0482  -19.3767  -50.7045 H         1 UNK         0.0800 
    141 H141        2.0902  -22.7255  -50.6315 H         1 UNK         0.0800 
    142 H142        1.7116  -21.1668  -51.2931 H         1 UNK         0.0800 
    143 H143        1.0871  -22.2028  -48.5023 H         1 UNK         0.0600 
    144 H144        0.7813  -19.4116  -49.4859 H         1 UNK         0.3000 
    145 H145        1.8288  -17.9567  -47.8159 H         1 UNK         0.0600 
    146 H146       -0.5039  -17.5178  -48.4307 H         1 UNK         0.0600 
    147 H147       -0.1513  -16.5266  -47.0318 H         1 UNK         0.0600 
    148 H148       -1.0868  -18.0059  -46.8498 H         1 UNK         0.0600 
    149 H149        1.0798  -18.8971  -45.1416 H         1 UNK         0.3000 
    150 H150        3.9286  -17.9742  -43.8632 H         1 UNK         0.0600 
    151 H151        3.6497  -15.5701  -43.6327 H         1 UNK         0.0600 
    152 H152        3.1772  -16.3115  -42.1155 H         1 UNK         0.0600 
    153 H153        1.9494  -15.7260  -43.2419 H         1 UNK         0.0600 
    154 H154        1.3912  -18.0400  -42.4683 H         1 UNK         0.3000 
    155 H155        1.2140  -21.5946  -42.3780 H         1 UNK         0.0600 
    156 H156        2.1390  -19.6675  -40.1774 H         1 UNK         0.0600 
    157 H157        2.9840  -21.1275  -40.6846 H         1 UNK         0.0600 
    158 H158        1.4063  -21.2511  -39.9198 H         1 UNK         0.0600 
    159 H159        0.0233  -18.9532  -41.5933 H         1 UNK         0.3000 
    160 H160       -3.1465  -20.0103  -42.6886 H         1 UNK         0.0600 
    161 H161       -2.3885  -19.4320  -39.7722 H         1 UNK         0.0600 
    162 H162       -3.2739  -20.8463  -40.3329 H         1 UNK         0.0600 
    163 H163       -3.9945  -19.2512  -40.4823 H         1 UNK         0.0600 
    164 H164       -2.2965  -17.5968  -41.4318 H         1 UNK         0.3000 
    165 H165       -0.4612  -16.1795  -44.0290 H         1 UNK         0.0600 
    166 H166       -2.1820  -14.4043  -44.2706 H         1 UNK         0.0600 
    167 H167       -2.6842  -15.8599  -45.1171 H         1 UNK         0.0600 
    168 H168       -3.4020  -15.4602  -43.5592 H         1 UNK         0.0600 
    169 H169       -1.4535  -14.6744  -42.0002 H         1 UNK         0.3000 
    170 H170       -0.8178  -14.7927  -39.5903 H         1 UNK         0.0600 
    171 H171        0.6492  -16.5565  -38.6108 H         1 UNK         0.0600 
    172 H172        2.0495  -15.8678  -39.4249 H         1 UNK         0.0600 
    173 H173        1.2107  -14.9510  -38.1726 H         1 UNK         0.0600 
    174 H174        1.7279  -13.6681  -40.4099 H         1 UNK         0.3000 
    175 H175        0.5564  -11.2010  -42.5366 H         1 UNK         0.0600 
    176 H176        0.9938  -10.6254  -39.5571 H         1 UNK         0.0600 
    177 H177        1.1558   -9.4601  -40.8721 H         1 UNK         0.0600 
    178 H178       -0.4160  -10.1460  -40.4948 H         1 UNK         0.0600 
    179 H179        2.9208  -11.3391  -40.9097 H         1 UNK         0.3000 
    180 H180        4.9287  -11.6130  -42.5159 H         1 UNK         0.0600 
    181 H181        4.4523  -14.3948  -41.2562 H         1 UNK         0.0600 
    182 H182        4.5484  -12.8872  -40.3556 H         1 UNK         0.0600 
    183 H183        5.9642  -13.4965  -41.1797 H         1 UNK         0.0600 
    184 H184        4.1288  -13.6146  -44.3044 H         1 UNK         0.3000 
    185 H185        7.1570  -14.1131  -45.9482 H         1 UNK         0.0600 
    186 H186        7.4728  -16.0138  -44.3901 H         1 UNK         0.0600 
    187 H187        5.7514  -16.3675  -44.4235 H         1 UNK         0.0600 
    188 H188        6.7217  -16.5596  -45.8815 H         1 UNK         0.0600 
    189 H189        4.4557  -15.2070  -46.1784 H         1 UNK         0.3000 
    190 H190       -0.6328  -23.4264  -48.5857 H         1 UNK         0.3000 
    191 H191       -2.6152  -24.3194  -48.9875 H         1 UNK         0.0600 
    192 H192       -2.8843  -25.1324  -51.3199 H         1 UNK         0.0600 
    193 H193       -1.2205  -25.2639  -50.7901 H         1 UNK         0.0600 
    194 H194       -1.6884  -23.9719  -51.8799 H         1 UNK         0.0600 
    195 H195       -3.4064  -22.8649  -52.0411 H         1 UNK         0.3000 
    196 H196       -5.9245  -21.9693  -51.1963 H         1 UNK         0.0600 
    197 H197       -4.3021  -21.0746  -53.6366 H         1 UNK         0.0600 
    198 H198       -5.3437  -22.4994  -53.5540 H         1 UNK         0.0600 
    199 H199       -6.0409  -20.8955  -53.4338 H         1 UNK         0.0600 
    200 H200       -2.8333  -20.1976  -51.2417 H         1 UNK         0.3000 
    201 H201       -4.0227  -17.5811  -50.8031 H         1 UNK         0.0600 
    202 H202       -1.8494  -17.8200  -51.9388 H         1 UNK         0.0600 
    203 H203       -1.1415  -18.5681  -50.5110 H         1 UNK         0.0600 
    204 H204       -1.6651  -16.8864  -50.4663 H         1 UNK         0.0600 
    205 H205       -3.3245  -20.3011  -48.7641 H         1 UNK         0.3000 
    206 H206       -3.4608  -18.7314  -46.2496 H         1 UNK         0.0600 
    207 H207       -1.7732  -20.5813  -46.4389 H         1 UNK         0.0600 
    208 H208       -2.9450  -20.8812  -45.1745 H         1 UNK         0.0600 
    209 H209       -3.0720  -21.7427  -46.7015 H         1 UNK         0.0600 
    210 H210       -5.6189  -19.5956  -48.4983 H         1 UNK         0.3000 
    211 H211       -7.7782  -19.8542  -48.6652 H         1 UNK         0.0600 
    212 H212       -9.3120  -19.1924  -46.8806 H         1 UNK         0.0600 
    213 H213       -7.9467  -18.0893  -46.8901 H         1 UNK         0.0600 
    214 H214       -8.0586  -19.3486  -45.6603 H         1 UNK         0.0600 
    215 H215       -6.0872  -22.1806  -48.2690 H         1 UNK         0.3000 
    216 H216       -7.7421  -24.2309  -47.0244 H         1 UNK         0.0600 
    217 H217       -5.5055  -24.5756  -49.0894 H         1 UNK         0.0600 
    218 H218       -6.0949  -25.7673  -47.9445 H         1 UNK         0.0600 
    219 H219       -5.1997  -24.3745  -47.3631 H         1 UNK         0.0600 
    220 H220       -8.4222  -26.1351  -48.4517 H         1 UNK         0.3000 
    221 H221      -10.3908  -25.2865  -50.3563 H         1 UNK         0.0600 
    222 H222      -10.7314  -27.1697  -48.7675 H         1 UNK         0.0600 
    223 H223       -9.4359  -28.0839  -49.5418 H         1 UNK         0.0600 
    224 H224      -10.9156  -27.7231  -50.4222 H         1 UNK         0.0600 
    225 H225       -7.1155  -25.7423  -50.8450 H         1 UNK         0.3000 
    226 H226       -6.9318  -27.1169  -53.3239 H         1 UNK         0.0600 
    227 H227       -5.1286  -24.9668  -52.0836 H         1 UNK         0.0600 
    228 H228       -5.0048  -26.7012  -51.7782 H         1 UNK         0.0600 
    229 H229       -4.6612  -26.0620  -53.3773 H         1 UNK         0.0600 
    230 H230       -6.6081  -26.3333  -55.4376 H         1 UNK         0.3000 
    231 H231       -8.1662  -23.9648  -56.1620 H         1 UNK         0.0600 
    232 H232       -6.7348  -26.0776  -57.8611 H         1 UNK         0.0600 
    233 H233       -7.8560  -24.8616  -58.4605 H         1 UNK         0.0600 
    234 H234       -8.4318  -26.1189  -57.3791 H         1 UNK         0.0600 
    235 H235       -4.8365  -24.5182  -55.4709 H         1 UNK         0.3000 
    236 H236       -4.0056  -21.9581  -56.5406 H         1 UNK         0.0600 
    237 H237       -3.7040  -23.4426  -58.5567 H         1 UNK         0.0600 
    238 H238       -2.1482  -22.9447  -57.9219 H         1 UNK         0.0600 
    239 H239       -2.7487  -24.5673  -57.5948 H         1 UNK         0.0600 
    240 H240       -1.5627  -21.7141  -56.0153 H         1 UNK         0.3000 
    241 H241       -1.2359  -22.1758  -53.2210 H         1 UNK         0.0600 
    242 H242        0.7181  -25.3178  -54.8477 H         1 UNK         0.3800 
    243 H243       -0.4567  -24.4060  -55.7573 H         1 UNK         0.3800 
    244 H244        0.7957  -21.0609  -55.2046 H         1 UNK         0.0800 
    245 H245        0.9155  -21.0219  -53.4612 H         1 UNK         0.0800 
    246 H246        1.3791  -18.5579  -55.1335 H         1 UNK         0.0800 
    247 H247        0.2883  -17.2822  -54.6664 H         1 UNK         0.0800 
@<TRIPOS>BOND
     1    1    2 1    
     2    1  127 1    
     3    1  128 1    
     4    1  129 1    
     5    2    3 2    
     6    2    4 am   BACKBONE|DICT|INTERRES
     7    4    5 1    
     8    4  130 1    
     9    5    6 1    
    10    5   65 1    
    11    5  131 1    
    12    6    7 1    
    13    6  132 1    
    14    6  133 1    
    15    7    8 1    
    16    8    9 1    
    17    8  134 1    
    18    8  135 1    
    19    9   10 ar   
    20    9   14 ar   
    21   10   11 ar   
    22   10  136 1    
    23   11   12 ar   
    24   11  126 1    
    25   12   13 ar   
    26   12  137 1    
    27   13   14 ar   
    28   13   15 1    
    29   14  138 1    
    30   15   16 1    
    31   15  139 1    
    32   15  140 1    
    33   16   17 1    
    34   17   18 1    
    35   17  141 1    
    36   17  142 1    
    37   18   19 1    
    38   18   67 1    
    39   18  143 1    
    40   19   20 am   BACKBONE|DICT|INTERRES
    41   19  144 1    
    42   20   21 2    
    43   20   22 1    
    44   22   23 1    
    45   22   24 1    
    46   22  145 1    
    47   23  146 1    
    48   23  147 1    
    49   23  148 1    
    50   24   25 am   BACKBONE|DICT|INTERRES
    51   24  149 1    
    52   25   26 2    
    53   25   27 1    
    54   27   28 1    
    55   27   29 1    
    56   27  150 1    
    57   28  151 1    
    58   28  152 1    
    59   28  153 1    
    60   29   30 am   BACKBONE|DICT|INTERRES
    61   29  154 1    
    62   30   31 2    
    63   30   32 1    
    64   32   33 1    
    65   32   34 1    
    66   32  155 1    
    67   33  156 1    
    68   33  157 1    
    69   33  158 1    
    70   34   35 am   BACKBONE|DICT|INTERRES
    71   34  159 1    
    72   35   36 2    
    73   35   37 1    
    74   37   38 1    
    75   37   39 1    
    76   37  160 1    
    77   38  161 1    
    78   38  162 1    
    79   38  163 1    
    80   39   40 am   BACKBONE|DICT|INTERRES
    81   39  164 1    
    82   40   41 2    
    83   40   42 1    
    84   42   43 1    
    85   42   44 1    
    86   42  165 1    
    87   43  166 1    
    88   43  167 1    
    89   43  168 1    
    90   44   45 am   BACKBONE|DICT|INTERRES
    91   44  169 1    
    92   45   46 2    
    93   45   47 1    
    94   47   48 1    
    95   47   49 1    
    96   47  170 1    
    97   48  171 1    
    98   48  172 1    
    99   48  173 1    
   100   49   50 am   BACKBONE|DICT|INTERRES
   101   49  174 1    
   102   50   51 2    
   103   50   52 1    
   104   52   53 1    
   105   52   54 1    
   106   52  175 1    
   107   53  176 1    
   108   53  177 1    
   109   53  178 1    
   110   54   55 am   BACKBONE|DICT|INTERRES
   111   54  179 1    
   112   55   56 2    
   113   55   57 1    
   114   57   58 1    
   115   57   59 1    
   116   57  180 1    
   117   58  181 1    
   118   58  182 1    
   119   58  183 1    
   120   59   60 am   BACKBONE|DICT|INTERRES
   121   59  184 1    
   122   60   61 2    
   123   60   62 1    
   124   62   63 1    
   125   62   64 1    
   126   62  185 1    
   127   63  186 1    
   128   63  187 1    
   129   63  188 1    
   130   64   65 am   BACKBONE|DICT|INTERRES
   131   64  189 1    
   132   65   66 2    
   133   67   68 2    
   134   67   69 am   BACKBONE|DICT|INTERRES
   135   69   70 1    
   136   69  190 1    
   137   70   71 1    
   138   70   72 1    
   139   70  191 1    
   140   71  192 1    
   141   71  193 1    
   142   71  194 1    
   143   72   73 2    
   144   72   74 am   BACKBONE|DICT|INTERRES
   145   74   75 1    
   146   74  195 1    
   147   75   76 1    
   148   75   77 1    
   149   75  196 1    
   150   76  197 1    
   151   76  198 1    
   152   76  199 1    
   153   77   78 2    
   154   77   79 am   BACKBONE|DICT|INTERRES
   155   79   80 1    
   156   79  200 1    
   157   80   81 1    
   158   80   82 1    
   159   80  201 1    
   160   81  202 1    
   161   81  203 1    
   162   81  204 1    
   163   82   83 2    
   164   82   84 am   BACKBONE|DICT|INTERRES
   165   84   85 1    
   166   84  205 1    
   167   85   86 1    
   168   85   87 1    
   169   85  206 1    
   170   86  207 1    
   171   86  208 1    
   172   86  209 1    
   173   87   88 2    
   174   87   89 am   BACKBONE|DICT|INTERRES
   175   89   90 1    
   176   89  210 1    
   177   90   91 1    
   178   90   92 1    
   179   90  211 1    
   180   91  212 1    
   181   91  213 1    
   182   91  214 1    
   183   92   93 2    
   184   92   94 am   BACKBONE|DICT|INTERRES
   185   94   95 1    
   186   94  215 1    
   187   95   96 1    
   188   95   97 1    
   189   95  216 1    
   190   96  217 1    
   191   96  218 1    
   192   96  219 1    
   193   97   98 2    
   194   97   99 am   BACKBONE|DICT|INTERRES
   195   99  100 1    
   196   99  220 1    
   197  100  101 1    
   198  100  102 1    
   199  100  221 1    
   200  101  222 1    
   201  101  223 1    
   202  101  224 1    
   203  102  103 2    
   204  102  104 am   BACKBONE|DICT|INTERRES
   205  104  105 1    
   206  104  225 1    
   207  105  106 1    
   208  105  107 1    
   209  105  226 1    
   210  106  227 1    
   211  106  228 1    
   212  106  229 1    
   213  107  108 2    
   214  107  109 am   BACKBONE|DICT|INTERRES
   215  109  110 1    
   216  109  230 1    
   217  110  111 1    
   218  110  112 1    
   219  110  231 1    
   220  111  232 1    
   221  111  233 1    
   222  111  234 1    
   223  112  113 2    
   224  112  114 am   BACKBONE|DICT|INTERRES
   225  114  115 1    
   226  114  235 1    
   227  115  116 1    
   228  115  117 1    
   229  115  236 1    
   230  116  237 1    
   231  116  238 1    
   232  116  239 1    
   233  117  118 2    
   234  117  119 am   BACKBONE|DICT|INTERRES
   235  119  120 1    
   236  119  240 1    
   237  120  121 1    
   238  120  124 1    
   239  120  241 1    
   240  121  122 am   BACKBONE|DICT|INTERRES
   241  121  123 2    
   242  122  242 1    
   243  122  243 1    
   244  124  125 1    
   245  124  244 1    
   246  124  245 1    
   247  125  126 1    
   248  126  246 1    
   249  126  247 1    
@<TRIPOS>SUBSTRUCTURE
     1 UNK         1 GROUP             0       ****    0 ROOT    
