@<TRIPOS>MOLECULE
3R540
247   249    1
SMALL
USER_CHARGES


@<TRIPOS>ATOM
      1 CA         -0.6579  -10.6523  -48.4352 C.3       0 UNK        -0.1800 
      2 C          -1.3017  -11.8239  -47.7091 C.2       0 UNK         0.5000 
      3 O          -0.6622  -12.4174  -46.8407 O.2       0 UNK        -0.5000 
      4 N          -2.5548  -12.1438  -48.0631 N.am      1 UNK        -0.5000 
      5 CA         -3.3941  -13.2377  -47.5509 C.3       1 UNK         0.1400 
      6 C6         -4.8363  -13.1421  -48.1087 C.3       23 UNK        -0.0398 
      7 S7         -4.8944  -13.4050  -49.9132 S.3       23 UNK        -0.2404 
      8 C8         -5.6338  -15.0670  -50.0140 C.3       23 UNK        -0.0205 
      9 C9         -4.7516  -16.1277  -49.3725 C.ar      23 UNK        -0.0193 
     10 C10        -3.6123  -16.5856  -50.0384 C.ar      23 UNK        -0.1150 
     11 C11        -2.8077  -17.5762  -49.4697 C.ar      23 UNK        -0.0193 
     12 C12        -3.1481  -18.1043  -48.2215 C.ar      23 UNK        -0.1150 
     13 C13        -4.2823  -17.6489  -47.5388 C.ar      23 UNK        -0.0193 
     14 C14        -5.0806  -16.6618  -48.1229 C.ar      23 UNK        -0.1150 
     15 C15        -4.6793  -18.2545  -46.1985 C.3       23 UNK        -0.0205 
     16 S16        -3.2983  -18.2638  -45.0149 S.3       23 UNK        -0.2404 
     17 C17        -3.4597  -19.9127  -44.2614 C.3       23 UNK        -0.0398 
     18 CA         -3.0617  -21.1019  -45.1785 C.3       11 UNK         0.1400 
     19 N          -1.6783  -21.0320  -45.6820 N.am      11 UNK        -0.5000 
     20 C          -1.1029  -21.9297  -46.5018 C.2       10 UNK         0.5000 
     21 O          -1.6769  -22.9373  -46.9152 O.2       10 UNK        -0.5000 
     22 CA          0.3802  -21.7302  -46.8667 C.3       10 UNK         0.1400 
     23 CB          0.5278  -20.9361  -48.1693 C.3       10 UNK        -0.1800 
     24 N           1.1652  -21.0986  -45.8064 N.am      10 UNK        -0.5000 
     25 C           1.4547  -21.6727  -44.6305 C.2       9 UNK         0.5000 
     26 O           1.1019  -22.8114  -44.3237 O.2       9 UNK        -0.5000 
     27 CA          2.2477  -20.8261  -43.6163 C.3       9 UNK         0.1400 
     28 CB          3.7520  -20.8758  -43.9225 C.3       9 UNK        -0.1800 
     29 N           1.8018  -19.4338  -43.5803 N.am      9 UNK        -0.5000 
     30 C           0.5966  -19.0388  -43.1460 C.2       8 UNK         0.5000 
     31 O          -0.2256  -19.7961  -42.6293 O.2       8 UNK        -0.5000 
     32 CA          0.2273  -17.5598  -43.3678 C.3       8 UNK         0.1400 
     33 CB          0.7469  -16.6858  -42.2172 C.3       8 UNK        -0.1800 
     34 N           0.7098  -17.0225  -44.6425 N.am      8 UNK        -0.5000 
     35 C           0.3912  -17.5072  -45.8512 C.2       7 UNK         0.5000 
     36 O          -0.3456  -18.4710  -46.0282 O.2       7 UNK        -0.5000 
     37 CA          1.0594  -16.8513  -47.0663 C.3       7 UNK         0.1400 
     38 CB          0.4078  -15.5007  -47.3941 C.3       7 UNK        -0.1800 
     39 N           2.4967  -16.6930  -46.8590 N.am      7 UNK        -0.5000 
     40 C           3.3624  -17.7173  -46.8280 C.2       6 UNK         0.5000 
     41 O           3.0430  -18.8905  -47.0190 O.2       6 UNK        -0.5000 
     42 CA          4.8241  -17.3765  -46.4885 C.3       6 UNK         0.1400 
     43 CB          5.5857  -16.9411  -47.7493 C.3       6 UNK        -0.1800 
     44 N           4.9337  -16.3322  -45.4693 N.am      6 UNK        -0.5000 
     45 C           4.5530  -16.4790  -44.1924 C.2       5 UNK         0.5000 
     46 O           4.0969  -17.5238  -43.7281 O.2       5 UNK        -0.5000 
     47 CA          4.6534  -15.2280  -43.3004 C.3       5 UNK         0.1400 
     48 CB          6.0754  -15.0734  -42.7408 C.3       5 UNK        -0.1800 
     49 N           4.2607  -13.9925  -43.9873 N.am      5 UNK        -0.5000 
     50 C           3.0370  -13.7618  -44.4799 C.2       4 UNK         0.5000 
     51 O           2.1265  -14.5925  -44.4600 O.2       4 UNK        -0.5000 
     52 CA          2.7934  -12.3944  -45.1373 C.3       4 UNK         0.1400 
     53 CB          2.9739  -12.4860  -46.6601 C.3       4 UNK        -0.1800 
     54 N           1.4362  -11.9435  -44.8458 N.am      4 UNK        -0.5000 
     55 C           1.0516  -11.4261  -43.6711 C.2       3 UNK         0.5000 
     56 O           1.8306  -11.1394  -42.7608 O.2       3 UNK        -0.5000 
     57 CA         -0.4560  -11.2210  -43.4689 C.3       3 UNK         0.1400 
     58 CB         -0.9297   -9.9366  -44.1670 C.3       3 UNK        -0.1800 
     59 N          -1.2020  -12.3604  -43.9974 N.am      3 UNK        -0.5000 
     60 C          -1.6998  -13.3665  -43.2682 C.2       2 UNK         0.5000 
     61 O          -1.5846  -13.4328  -42.0435 O.2       2 UNK        -0.5000 
     62 CA         -2.4428  -14.4990  -44.0160 C.3       2 UNK         0.1400 
     63 CB         -3.7611  -14.8813  -43.3120 C.3       2 UNK        -0.1800 
     64 N          -2.6703  -14.2521  -45.4461 N.am      2 UNK        -0.5000 
     65 C          -3.4198  -13.2929  -46.0095 C.2       1 UNK         0.5000 
     66 O          -4.0726  -12.4577  -45.3811 O.2       1 UNK        -0.5000 
     67 C          -3.3899  -22.4209  -44.4436 C.2       11 UNK         0.5000 
     68 O          -4.5525  -22.8271  -44.4313 O.2       11 UNK        -0.5000 
     69 N          -2.3717  -23.0723  -43.8613 N.am      12 UNK        -0.5000 
     70 CA         -2.4788  -24.3864  -43.2275 C.3       12 UNK         0.1400 
     71 CB         -1.1908  -24.6725  -42.4415 C.3       12 UNK        -0.1800 
     72 C          -2.7683  -25.5255  -44.2270 C.2       12 UNK         0.5000 
     73 O          -3.3317  -26.5433  -43.8219 O.2       12 UNK        -0.5000 
     74 N          -2.3940  -25.3412  -45.5017 N.am      13 UNK        -0.5000 
     75 CA         -2.7293  -26.2457  -46.5967 C.3       13 UNK         0.1400 
     76 CB         -1.6220  -26.2166  -47.6645 C.3       13 UNK        -0.1800 
     77 C          -4.1016  -25.8669  -47.1764 C.2       13 UNK         0.5000 
     78 O          -5.0241  -26.6805  -47.1141 O.2       13 UNK        -0.5000 
     79 N          -4.2234  -24.6352  -47.6905 N.am      14 UNK        -0.5000 
     80 CA         -5.4512  -24.0585  -48.2383 C.3       14 UNK         0.1400 
     81 CB         -5.8748  -24.7818  -49.5334 C.3       14 UNK        -0.1800 
     82 C          -5.2363  -22.5656  -48.5262 C.2       14 UNK         0.5000 
     83 O          -4.0964  -22.1246  -48.6690 O.2       14 UNK        -0.5000 
     84 N          -6.3423  -21.8207  -48.6449 N.am      15 UNK        -0.5000 
     85 CA         -6.3484  -20.4008  -49.0137 C.3       15 UNK         0.1400 
     86 CB         -7.5323  -19.7133  -48.3144 C.3       15 UNK        -0.1800 
     87 C          -6.3973  -20.1660  -50.5380 C.2       15 UNK         0.5000 
     88 O          -6.3182  -19.0176  -50.9736 O.2       15 UNK        -0.5000 
     89 N          -6.5342  -21.2390  -51.3245 N.am      16 UNK        -0.5000 
     90 CA         -6.5116  -21.2309  -52.7816 C.3       16 UNK         0.1400 
     91 CB         -7.9452  -21.1339  -53.3274 C.3       16 UNK        -0.1800 
     92 C          -5.8221  -22.5191  -53.2449 C.2       16 UNK         0.5000 
     93 O          -6.0772  -23.5767  -52.6640 O.2       16 UNK        -0.5000 
     94 N          -4.9694  -22.4031  -54.2710 N.am      17 UNK        -0.5000 
     95 CA         -4.0890  -23.4453  -54.8062 C.3       17 UNK         0.1400 
     96 CB         -4.9125  -24.5460  -55.5127 C.3       17 UNK        -0.1800 
     97 C          -3.1113  -23.9667  -53.7282 C.2       17 UNK         0.5000 
     98 O          -2.5912  -23.1555  -52.9597 O.2       17 UNK        -0.5000 
     99 N          -2.8767  -25.2873  -53.7021 N.am      18 UNK        -0.5000 
    100 CA        -2.0684  -26.0306  -52.7292 C.3       18 UNK         0.1400 
    101 CB        -2.8172  -26.1088  -51.3801 C.3       18 UNK        -0.1800 
    102 C         -0.6193  -25.5050  -52.6106 C.2       18 UNK         0.5000 
    103 O         -0.0083  -25.1732  -53.6306 O.2       18 UNK        -0.5000 
    104 N         -0.0886  -25.4542  -51.3802 N.am      19 UNK        -0.5000 
    105 CA         1.2162  -24.8870  -51.0406 C.3       19 UNK         0.1400 
    106 CB         1.4656  -25.0661  -49.5345 C.3       19 UNK        -0.1800 
    107 C          1.2954  -23.3991  -51.4244 C.2       19 UNK         0.5000 
    108 O          0.3434  -22.6612  -51.1791 O.2       19 UNK        -0.5000 
    109 N          2.4122  -23.0020  -52.0475 N.am      20 UNK        -0.5000 
    110 CA         2.7135  -21.6600  -52.5691 C.3       20 UNK         0.1400 
    111 CB         2.7185  -20.6117  -51.4353 C.3       20 UNK        -0.1800 
    112 C          1.8379  -21.2039  -53.7609 C.2       20 UNK         0.5000 
    113 O          2.0732  -20.1092  -54.2745 O.2       20 UNK        -0.5000 
    114 N          0.8840  -22.0417  -54.2020 N.am      21 UNK        -0.5000 
    115 CA        -0.0714  -21.8205  -55.2922 C.3       21 UNK         0.1400 
    116 CB         0.6479  -21.8739  -56.6557 C.3       21 UNK        -0.1800 
    117 C         -0.9026  -20.5351  -55.0931 C.2       21 UNK         0.5000 
    118 O         -0.8603  -19.6314  -55.9309 O.2       21 UNK        -0.5000 
    119 N         -1.6095  -20.4688  -53.9585 N.am      22 UNK        -0.5000 
    120 CA        -2.4352  -19.3282  -53.5323 C.3       22 UNK         0.1400 
    121 C         -3.5685  -18.9678  -54.5344 C.2       22 UNK         0.5000 
    122 N         -3.8658  -17.6883  -54.7130 N.am      22 UNK        -0.7600 
    123 O         -4.2127  -19.8387  -55.1146 O.2       22 UNK        -0.5000 
    124 C124       -3.0314  -19.5616  -52.1231 C.3       23 UNK        -0.0398 
    125 S125       -1.7570  -19.7645  -50.8358 S.3       23 UNK        -0.2404 
    126 C126       -1.5678  -18.0691  -50.2008 C.3       23 UNK        -0.0205 
    127 H127       -1.3203  -10.2274  -49.1896 H         1 UNK         0.0600 
    128 H128        0.2571  -10.9785  -48.9297 H         1 UNK         0.0600 
    129 H129       -0.3998   -9.8663  -47.7259 H         1 UNK         0.0600 
    130 H130       -2.9968  -11.5933  -48.7851 H         1 UNK         0.3000 
    131 H131       -2.9547  -14.1702  -47.9116 H         1 UNK         0.0600 
    132 H132       -5.2644  -12.1616  -47.8924 H         1 UNK         0.0800 
    133 H133       -5.4946  -13.8631  -47.6218 H         1 UNK         0.0800 
    134 H134       -5.7938  -15.3205  -51.0630 H         1 UNK         0.0800 
    135 H135       -6.6223  -15.0541  -49.5522 H         1 UNK         0.0800 
    136 H136       -3.3582  -16.1715  -51.0038 H         1 UNK         0.1150 
    137 H137       -2.5312  -18.8779  -47.7844 H         1 UNK         0.1150 
    138 H138       -5.9679  -16.3179  -47.6106 H         1 UNK         0.1150 
    139 H139       -5.5080  -17.7031  -45.7522 H         1 UNK         0.0800 
    140 H140       -5.0446  -19.2658  -46.3708 H         1 UNK         0.0800 
    141 H141       -4.4935  -20.0149  -43.9248 H         1 UNK         0.0800 
    142 H142       -2.8494  -19.9185  -43.3569 H         1 UNK         0.0800 
    143 H143       -3.7007  -21.0824  -46.0621 H         1 UNK         0.0600 
    144 H144       -1.1602  -20.1850  -45.4657 H         1 UNK         0.3000 
    145 H145        0.8026  -22.7222  -47.0400 H         1 UNK         0.0600 
    146 H146        1.5675  -20.8923  -48.4929 H         1 UNK         0.0600 
    147 H147        0.1604  -19.9164  -48.0734 H         1 UNK         0.0600 
    148 H148       -0.0442  -21.4072  -48.9674 H         1 UNK         0.0600 
    149 H149        1.4884  -20.1562  -45.9878 H         1 UNK         0.3000 
    150 H150        2.0888  -21.2579  -42.6259 H         1 UNK         0.0600 
    151 H151        4.1132  -21.9047  -43.9424 H         1 UNK         0.0600 
    152 H152        4.3258  -20.3438  -43.1634 H         1 UNK         0.0600 
    153 H153        3.9818  -20.4271  -44.8894 H         1 UNK         0.0600 
    154 H154        2.4500  -18.7355  -43.9289 H         1 UNK         0.3000 
    155 H155       -0.8618  -17.4973  -43.3761 H         1 UNK         0.0600 
    156 H156        0.3697  -17.0389  -41.2568 H         1 UNK         0.0600 
    157 H157        0.4272  -15.6499  -42.3319 H         1 UNK         0.0600 
    158 H158        1.8359  -16.6953  -42.1677 H         1 UNK         0.0600 
    159 H159        1.3185  -16.2075  -44.5888 H         1 UNK         0.3000 
    160 H160        0.9166  -17.5093  -47.9252 H         1 UNK         0.0600 
    161 H161        0.4768  -14.8058  -46.5576 H         1 UNK         0.0600 
    162 H162       -0.6499  -15.6283  -47.6279 H         1 UNK         0.0600 
    163 H163        0.8755  -15.0331  -48.2604 H         1 UNK         0.0600 
    164 H164        2.8272  -15.7678  -46.6313 H         1 UNK         0.3000 
    165 H165        5.2949  -18.2820  -46.0996 H         1 UNK         0.0600 
    166 H166        6.6406  -16.7706  -47.5334 H         1 UNK         0.0600 
    167 H167        5.5331  -17.7102  -48.5211 H         1 UNK         0.0600 
    168 H168        5.1762  -16.0229  -48.1722 H         1 UNK         0.0600 
    169 H169        5.2959  -15.4378  -45.7649 H         1 UNK         0.3000 
    170 H170        3.9719  -15.3700  -42.4592 H         1 UNK         0.0600 
    171 H171        6.8037  -14.8913  -43.5320 H         1 UNK         0.0600 
    172 H172        6.1331  -14.2457  -42.0336 H         1 UNK         0.0600 
    173 H173        6.3856  -15.9745  -42.2099 H         1 UNK         0.0600 
    174 H174        4.9607  -13.2670  -44.0465 H         1 UNK         0.3000 
    175 H175        3.5079  -11.6695  -44.7416 H         1 UNK         0.0600 
    176 H176        2.2697  -13.1860  -47.1099 H         1 UNK         0.0600 
    177 H177        2.8210  -11.5151  -47.1316 H         1 UNK         0.0600 
    178 H178        3.9803  -12.8182  -46.9176 H         1 UNK         0.0600 
    179 H179        0.7273  -12.1817  -45.5330 H         1 UNK         0.3000 
    180 H180       -0.6426  -11.1100  -42.3987 H         1 UNK         0.0600 
    181 H181       -1.9968   -9.7763  -44.0114 H         1 UNK         0.0600 
    182 H182       -0.7507   -9.9686  -45.2416 H         1 UNK         0.0600 
    183 H183       -0.4076   -9.0639  -43.7729 H         1 UNK         0.0600 
    184 H184       -1.2842  -12.4146  -45.0075 H         1 UNK         0.3000 
    185 H185       -1.7840  -15.3660  -43.9724 H         1 UNK         0.0600 
    186 H186       -4.4310  -14.0266  -43.2154 H         1 UNK         0.0600 
    187 H187       -4.2918  -15.6610  -43.8576 H         1 UNK         0.0600 
    188 H188       -3.5715  -15.2618  -42.3078 H         1 UNK         0.0600 
    189 H189       -2.1511  -14.8597  -46.0630 H         1 UNK         0.3000 
    190 H190       -1.4434  -22.6763  -43.9290 H         1 UNK         0.3000 
    191 H191       -3.3090  -24.3507  -42.5190 H         1 UNK         0.0600 
    192 H192       -0.9864  -23.8864  -41.7143 H         1 UNK         0.0600 
    193 H193       -0.3270  -24.7530  -43.1021 H         1 UNK         0.0600 
    194 H194       -1.2703  -25.6115  -41.8922 H         1 UNK         0.0600 
    195 H195       -1.9932  -24.4485  -45.7743 H         1 UNK         0.3000 
    196 H196       -2.7887  -27.2683  -46.2176 H         1 UNK         0.0600 
    197 H197       -0.6463  -26.4246  -47.2250 H         1 UNK         0.0600 
    198 H198       -1.5595  -25.2549  -48.1734 H         1 UNK         0.0600 
    199 H199       -1.8030  -26.9789  -48.4217 H         1 UNK         0.0600 
    200 H200       -3.4302  -23.9982  -47.6790 H         1 UNK         0.3000 
    201 H201       -6.2386  -24.1564  -47.4883 H         1 UNK         0.0600 
    202 H202       -6.0428  -25.8467  -49.3777 H         1 UNK         0.0600 
    203 H203       -5.1207  -24.6727  -50.3121 H         1 UNK         0.0600 
    204 H204       -6.8055  -24.3718  -49.9264 H         1 UNK         0.0600 
    205 H205       -7.2463  -22.2531  -48.5169 H         1 UNK         0.3000 
    206 H206       -5.4285  -19.9351  -48.6592 H         1 UNK         0.0600 
    207 H207       -7.5394  -18.6421  -48.5206 H         1 UNK         0.0600 
    208 H208       -8.4879  -20.1190  -48.6483 H         1 UNK         0.0600 
    209 H209       -7.4749  -19.8323  -47.2323 H         1 UNK         0.0600 
    210 H210       -6.5448  -22.1608  -50.9095 H         1 UNK         0.3000 
    211 H211       -5.9383  -20.3734  -53.1370 H         1 UNK         0.0600 
    212 H212       -8.5592  -21.9722  -52.9957 H         1 UNK         0.0600 
    213 H213       -7.9464  -21.1344  -54.4180 H         1 UNK         0.0600 
    214 H214       -8.4292  -20.2133  -53.0010 H         1 UNK         0.0600 
    215 H215       -4.7983  -21.4718  -54.6489 H         1 UNK         0.3000 
    216 H216       -3.4722  -22.9572  -55.5620 H         1 UNK         0.0600 
    217 H217       -5.5002  -25.1348  -54.8074 H         1 UNK         0.0600 
    218 H218       -5.6041  -24.1109  -56.2343 H         1 UNK         0.0600 
    219 H219       -4.2687  -25.2305  -56.0659 H         1 UNK         0.0600 
    220 H220       -3.3271  -25.8537  -54.4062 H         1 UNK         0.3000 
    221 H221       -1.9870  -27.0460  -53.1192 H         1 UNK         0.0600 
    222 H222       -2.3522  -26.8329  -50.7118 H         1 UNK         0.0600 
    223 H223       -2.8405  -25.1431  -50.8726 H         1 UNK         0.0600 
    224 H224       -3.8482  -26.4324  -51.5237 H         1 UNK         0.0600 
    225 H225       -0.6756  -25.7100  -50.6015 H         1 UNK         0.3000 
    226 H226        1.9769  -25.4436  -51.5916 H         1 UNK         0.0600 
    227 H227        1.4247  -26.1168  -49.2469 H         1 UNK         0.0600 
    228 H228        2.4506  -24.6901  -49.2553 H         1 UNK         0.0600 
    229 H229        0.7292  -24.5247  -48.9389 H         1 UNK         0.0600 
    230 H230        3.1268  -23.6944  -52.2257 H         1 UNK         0.3000 
    231 H231        3.7311  -21.7210  -52.9576 H         1 UNK         0.0600 
    232 H232        3.3332  -20.9364  -50.5958 H         1 UNK         0.0600 
    233 H233        1.7138  -20.4137  -51.0601 H         1 UNK         0.0600 
    234 H234        3.1236  -19.6613  -51.7842 H         1 UNK         0.0600 
    235 H235        0.7557  -22.9072  -53.6937 H         1 UNK         0.3000 
    236 H236       -0.7732  -22.6546  -55.2606 H         1 UNK         0.0600 
    237 H237        1.3705  -21.0649  -56.7669 H         1 UNK         0.0600 
    238 H238        1.1791  -22.8171  -56.7829 H         1 UNK         0.0600 
    239 H239       -0.0659  -21.7905  -57.4760 H         1 UNK         0.0600 
    240 H240       -1.6072  -21.2666  -53.3315 H         1 UNK         0.3000 
    241 H241       -1.7654  -18.4682  -53.4754 H         1 UNK         0.0600 
    242 H242       -4.6085  -17.4465  -55.3502 H         1 UNK         0.3800 
    243 H243       -3.3560  -16.9525  -54.2498 H         1 UNK         0.3800 
    244 H244       -3.6420  -20.4654  -52.1194 H         1 UNK         0.0800 
    245 H245       -3.6992  -18.7473  -51.8408 H         1 UNK         0.0800 
    246 H246       -0.7219  -18.0495  -49.5146 H         1 UNK         0.0800 
    247 H247       -1.3078  -17.4025  -51.0242 H         1 UNK         0.0800 
@<TRIPOS>BOND
     1    1    2 1    
     2    1  127 1    
     3    1  128 1    
     4    1  129 1    
     5    2    3 2    
     6    2    4 am   BACKBONE|DICT|INTERRES
     7    4    5 1    
     8    4  130 1    
     9    5    6 1    
    10    5   65 1    
    11    5  131 1    
    12    6    7 1    
    13    6  132 1    
    14    6  133 1    
    15    7    8 1    
    16    8    9 1    
    17    8  134 1    
    18    8  135 1    
    19    9   10 ar   
    20    9   14 ar   
    21   10   11 ar   
    22   10  136 1    
    23   11   12 ar   
    24   11  126 1    
    25   12   13 ar   
    26   12  137 1    
    27   13   14 ar   
    28   13   15 1    
    29   14  138 1    
    30   15   16 1    
    31   15  139 1    
    32   15  140 1    
    33   16   17 1    
    34   17   18 1    
    35   17  141 1    
    36   17  142 1    
    37   18   19 1    
    38   18   67 1    
    39   18  143 1    
    40   19   20 am   BACKBONE|DICT|INTERRES
    41   19  144 1    
    42   20   21 2    
    43   20   22 1    
    44   22   23 1    
    45   22   24 1    
    46   22  145 1    
    47   23  146 1    
    48   23  147 1    
    49   23  148 1    
    50   24   25 am   BACKBONE|DICT|INTERRES
    51   24  149 1    
    52   25   26 2    
    53   25   27 1    
    54   27   28 1    
    55   27   29 1    
    56   27  150 1    
    57   28  151 1    
    58   28  152 1    
    59   28  153 1    
    60   29   30 am   BACKBONE|DICT|INTERRES
    61   29  154 1    
    62   30   31 2    
    63   30   32 1    
    64   32   33 1    
    65   32   34 1    
    66   32  155 1    
    67   33  156 1    
    68   33  157 1    
    69   33  158 1    
    70   34   35 am   BACKBONE|DICT|INTERRES
    71   34  159 1    
    72   35   36 2    
    73   35   37 1    
    74   37   38 1    
    75   37   39 1    
    76   37  160 1    
    77   38  161 1    
    78   38  162 1    
    79   38  163 1    
    80   39   40 am   BACKBONE|DICT|INTERRES
    81   39  164 1    
    82   40   41 2    
    83   40   42 1    
    84   42   43 1    
    85   42   44 1    
    86   42  165 1    
    87   43  166 1    
    88   43  167 1    
    89   43  168 1    
    90   44   45 am   BACKBONE|DICT|INTERRES
    91   44  169 1    
    92   45   46 2    
    93   45   47 1    
    94   47   48 1    
    95   47   49 1    
    96   47  170 1    
    97   48  171 1    
    98   48  172 1    
    99   48  173 1    
   100   49   50 am   BACKBONE|DICT|INTERRES
   101   49  174 1    
   102   50   51 2    
   103   50   52 1    
   104   52   53 1    
   105   52   54 1    
   106   52  175 1    
   107   53  176 1    
   108   53  177 1    
   109   53  178 1    
   110   54   55 am   BACKBONE|DICT|INTERRES
   111   54  179 1    
   112   55   56 2    
   113   55   57 1    
   114   57   58 1    
   115   57   59 1    
   116   57  180 1    
   117   58  181 1    
   118   58  182 1    
   119   58  183 1    
   120   59   60 am   BACKBONE|DICT|INTERRES
   121   59  184 1    
   122   60   61 2    
   123   60   62 1    
   124   62   63 1    
   125   62   64 1    
   126   62  185 1    
   127   63  186 1    
   128   63  187 1    
   129   63  188 1    
   130   64   65 am   BACKBONE|DICT|INTERRES
   131   64  189 1    
   132   65   66 2    
   133   67   68 2    
   134   67   69 am   BACKBONE|DICT|INTERRES
   135   69   70 1    
   136   69  190 1    
   137   70   71 1    
   138   70   72 1    
   139   70  191 1    
   140   71  192 1    
   141   71  193 1    
   142   71  194 1    
   143   72   73 2    
   144   72   74 am   BACKBONE|DICT|INTERRES
   145   74   75 1    
   146   74  195 1    
   147   75   76 1    
   148   75   77 1    
   149   75  196 1    
   150   76  197 1    
   151   76  198 1    
   152   76  199 1    
   153   77   78 2    
   154   77   79 am   BACKBONE|DICT|INTERRES
   155   79   80 1    
   156   79  200 1    
   157   80   81 1    
   158   80   82 1    
   159   80  201 1    
   160   81  202 1    
   161   81  203 1    
   162   81  204 1    
   163   82   83 2    
   164   82   84 am   BACKBONE|DICT|INTERRES
   165   84   85 1    
   166   84  205 1    
   167   85   86 1    
   168   85   87 1    
   169   85  206 1    
   170   86  207 1    
   171   86  208 1    
   172   86  209 1    
   173   87   88 2    
   174   87   89 am   BACKBONE|DICT|INTERRES
   175   89   90 1    
   176   89  210 1    
   177   90   91 1    
   178   90   92 1    
   179   90  211 1    
   180   91  212 1    
   181   91  213 1    
   182   91  214 1    
   183   92   93 2    
   184   92   94 am   BACKBONE|DICT|INTERRES
   185   94   95 1    
   186   94  215 1    
   187   95   96 1    
   188   95   97 1    
   189   95  216 1    
   190   96  217 1    
   191   96  218 1    
   192   96  219 1    
   193   97   98 2    
   194   97   99 am   BACKBONE|DICT|INTERRES
   195   99  100 1    
   196   99  220 1    
   197  100  101 1    
   198  100  102 1    
   199  100  221 1    
   200  101  222 1    
   201  101  223 1    
   202  101  224 1    
   203  102  103 2    
   204  102  104 am   BACKBONE|DICT|INTERRES
   205  104  105 1    
   206  104  225 1    
   207  105  106 1    
   208  105  107 1    
   209  105  226 1    
   210  106  227 1    
   211  106  228 1    
   212  106  229 1    
   213  107  108 2    
   214  107  109 am   BACKBONE|DICT|INTERRES
   215  109  110 1    
   216  109  230 1    
   217  110  111 1    
   218  110  112 1    
   219  110  231 1    
   220  111  232 1    
   221  111  233 1    
   222  111  234 1    
   223  112  113 2    
   224  112  114 am   BACKBONE|DICT|INTERRES
   225  114  115 1    
   226  114  235 1    
   227  115  116 1    
   228  115  117 1    
   229  115  236 1    
   230  116  237 1    
   231  116  238 1    
   232  116  239 1    
   233  117  118 2    
   234  117  119 am   BACKBONE|DICT|INTERRES
   235  119  120 1    
   236  119  240 1    
   237  120  121 1    
   238  120  124 1    
   239  120  241 1    
   240  121  122 am   BACKBONE|DICT|INTERRES
   241  121  123 2    
   242  122  242 1    
   243  122  243 1    
   244  124  125 1    
   245  124  244 1    
   246  124  245 1    
   247  125  126 1    
   248  126  246 1    
   249  126  247 1    
@<TRIPOS>SUBSTRUCTURE
     1 UNK         1 GROUP             0       ****    0 ROOT    
