@<TRIPOS>MOLECULE
3R540
247   249    1
SMALL
USER_CHARGES


@<TRIPOS>ATOM
      1 CA          4.7348   -9.7410  -49.0640 C.3       0 UNK        -0.1800 
      2 C           3.7361  -10.8747  -48.8764 C.2       0 UNK         0.5000 
      3 O           3.3192  -11.1431  -47.7496 O.2       0 UNK        -0.5000 
      4 N           3.3588  -11.5440  -49.9728 N.am      1 UNK        -0.5000 
      5 CA          2.3571  -12.6123  -49.9982 C.3       1 UNK         0.1400 
      6 C6          2.4254  -13.4084  -51.3236 C.3       23 UNK        -0.0398 
      7 S7          1.5380  -15.0006  -51.2365 S.3       23 UNK        -0.2404 
      8 C8          2.9215  -16.1795  -51.3360 C.3       23 UNK        -0.0205 
      9 C9          2.4291  -17.6164  -51.4107 C.ar      23 UNK        -0.0193 
     10 C10         1.6682  -18.0333  -52.5056 C.ar      23 UNK        -0.1150 
     11 C11         1.2068  -19.3482  -52.5918 C.ar      23 UNK        -0.0193 
     12 C12         1.5273  -20.2582  -51.5796 C.ar      23 UNK        -0.1150 
     13 C13         2.3164  -19.8643  -50.4953 C.ar      23 UNK        -0.0193 
     14 C14         2.7560  -18.5385  -50.4112 C.ar      23 UNK        -0.1150 
     15 C15         2.7494  -20.8818  -49.4485 C.3       23 UNK        -0.0205 
     16 S16         1.9442  -20.6190  -47.8403 S.3       23 UNK        -0.2404 
     17 C17         0.3454  -21.4716  -48.0561 C.3       23 UNK        -0.0398 
     18 CA          0.2978  -22.8531  -47.3579 C.3       11 UNK         0.1400 
     19 N           0.6861  -22.7813  -45.9460 N.am      11 UNK        -0.5000 
     20 C           0.9156  -23.8431  -45.1625 C.2       10 UNK         0.5000 
     21 O           0.8781  -25.0066  -45.5608 O.2       10 UNK        -0.5000 
     22 CA          1.1712  -23.5549  -43.6739 C.3       10 UNK         0.1400 
     23 CB          2.6514  -23.2325  -43.4199 C.3       10 UNK        -0.1800 
     24 N           0.3304  -22.4592  -43.1878 N.am      10 UNK        -0.5000 
     25 C          -0.9908  -22.5656  -42.9833 C.2       9 UNK         0.5000 
     26 O          -1.6198  -23.6114  -43.1415 O.2       9 UNK        -0.5000 
     27 CA         -1.7443  -21.2842  -42.5793 C.3       9 UNK         0.1400 
     28 CB         -1.6614  -21.0627  -41.0621 C.3       9 UNK        -0.1800 
     29 N          -1.2480  -20.0933  -43.2674 N.am      9 UNK        -0.5000 
     30 C          -1.3302  -19.8838  -44.5889 C.2       8 UNK         0.5000 
     31 O          -1.8874  -20.6513  -45.3714 O.2       8 UNK        -0.5000 
     32 CA         -0.6247  -18.6359  -45.1455 C.3       8 UNK         0.1400 
     33 CB         -1.6228  -17.4784  -45.2860 C.3       8 UNK        -0.1800 
     34 N           0.5314  -18.2111  -44.3513 N.am      8 UNK        -0.5000 
     35 C           1.6288  -18.9597  -44.1504 C.2       7 UNK         0.5000 
     36 O           1.7382  -20.1187  -44.5498 O.2       7 UNK        -0.5000 
     37 CA          2.7891  -18.3358  -43.3528 C.3       7 UNK         0.1400 
     38 CB          3.8535  -17.7846  -44.3133 C.3       7 UNK        -0.1800 
     39 N           2.3691  -17.2689  -42.4455 N.am      7 UNK        -0.5000 
     40 C           1.6144  -17.4404  -41.3511 C.2       6 UNK         0.5000 
     41 O           1.2182  -18.5379  -40.9574 O.2       6 UNK        -0.5000 
     42 CA          1.2015  -16.1602  -40.5966 C.3       6 UNK         0.1400 
     43 CB          2.2029  -15.8502  -39.4739 C.3       6 UNK        -0.1800 
     44 N           1.0701  -14.9834  -41.4658 N.am      6 UNK        -0.5000 
     45 C           0.1823  -14.8779  -42.4635 C.2       5 UNK         0.5000 
     46 O          -0.5976  -15.7792  -42.7737 O.2       5 UNK        -0.5000 
     47 CA          0.2142  -13.5794  -43.2889 C.3       5 UNK         0.1400 
     48 CB          1.1612  -13.7390  -44.4888 C.3       5 UNK        -0.1800 
     49 N          -1.1173  -13.2193  -43.7771 N.am      5 UNK        -0.5000 
     50 C          -2.1192  -12.7890  -42.9952 C.2       4 UNK         0.5000 
     51 O          -1.9974  -12.6008  -41.7835 O.2       4 UNK        -0.5000 
     52 CA         -3.4774  -12.4860  -43.6614 C.3       4 UNK         0.1400 
     53 CB         -3.7459  -10.9722  -43.6672 C.3       4 UNK        -0.1800 
     54 N          -3.5738  -12.9753  -45.0359 N.am      4 UNK        -0.5000 
     55 C          -3.8560  -14.2351  -45.3946 C.2       3 UNK         0.5000 
     56 O          -4.1193  -15.1307  -44.5928 O.2       3 UNK        -0.5000 
     57 CA         -3.8436  -14.5421  -46.9066 C.3       3 UNK         0.1400 
     58 CB         -5.2758  -14.6174  -47.4556 C.3       3 UNK        -0.1800 
     59 N          -3.0943  -13.5540  -47.6894 N.am      3 UNK        -0.5000 
     60 C          -1.7619  -13.4394  -47.6767 C.2       2 UNK         0.5000 
     61 O          -1.0159  -14.1592  -47.0091 O.2       2 UNK        -0.5000 
     62 CA         -1.1715  -12.2833  -48.4898 C.3       2 UNK         0.1400 
     63 CB         -1.2140  -10.9779  -47.6714 C.3       2 UNK        -0.1800 
     64 N           0.2026  -12.6249  -48.8301 N.am      2 UNK        -0.5000 
     65 C           0.9479  -12.0285  -49.7638 C.2       1 UNK         0.5000 
     66 O           0.5658  -11.0714  -50.4424 O.2       1 UNK        -0.5000 
     67 C          -1.0883  -23.5181  -47.5185 C.2       11 UNK         0.5000 
     68 O          -1.2672  -24.3644  -48.3942 O.2       11 UNK        -0.5000 
     69 N          -2.0368  -23.1615  -46.6395 N.am      12 UNK        -0.5000 
     70 CA         -3.3724  -23.7532  -46.5623 C.3       12 UNK         0.1400 
     71 CB         -4.2564  -22.9225  -45.6218 C.3       12 UNK        -0.1800 
     72 C          -3.3465  -25.2301  -46.1339 C.2       12 UNK         0.5000 
     73 O          -4.0869  -26.0300  -46.7044 O.2       12 UNK        -0.5000 
     74 N          -2.4618  -25.5859  -45.1906 N.am      13 UNK        -0.5000 
     75 CA         -2.2055  -26.9705  -44.7773 C.3       13 UNK         0.1400 
     76 CB         -1.2993  -26.9831  -43.5375 C.3       13 UNK        -0.1800 
     77 C          -1.6055  -27.8341  -45.9067 C.2       13 UNK         0.5000 
     78 O          -1.8947  -29.0286  -45.9777 O.2       13 UNK        -0.5000 
     79 N          -0.8287  -27.2032  -46.7979 N.am      14 UNK        -0.5000 
     80 CA         -0.3102  -27.7837  -48.0390 C.3       14 UNK         0.1400 
     81 CB          0.9687  -27.0301  -48.4421 C.3       14 UNK        -0.1800 
     82 C          -1.3420  -27.7954  -49.1919 C.2       14 UNK         0.5000 
     83 O          -1.0035  -28.2414  -50.2889 O.2       14 UNK        -0.5000 
     84 N          -2.5705  -27.3199  -48.9319 N.am      15 UNK        -0.5000 
     85 CA         -3.7244  -27.2518  -49.8344 C.3       15 UNK         0.1400 
     86 CB         -4.1658  -28.6623  -50.2797 C.3       15 UNK        -0.1800 
     87 C          -3.5370  -26.2717  -51.0110 C.2       15 UNK         0.5000 
     88 O          -4.0875  -26.4976  -52.0902 O.2       15 UNK        -0.5000 
     89 N          -2.7860  -25.1881  -50.7823 N.am      16 UNK        -0.5000 
     90 CA         -2.5077  -24.1434  -51.7627 C.3       16 UNK         0.1400 
     91 CB         -1.2554  -24.5238  -52.5775 C.3       16 UNK        -0.1800 
     92 C          -2.3682  -22.8038  -51.0264 C.2       16 UNK         0.5000 
     93 O          -1.2992  -22.1969  -51.0665 O.2       16 UNK        -0.5000 
     94 N          -3.4408  -22.3990  -50.3261 N.am      17 UNK        -0.5000 
     95 CA         -3.5173  -21.2156  -49.4598 C.3       17 UNK         0.1400 
     96 CB         -4.9577  -21.0505  -48.9517 C.3       17 UNK        -0.1800 
     97 C          -3.0380  -19.9233  -50.1442 C.2       17 UNK         0.5000 
     98 O          -3.5264  -19.6070  -51.2315 O.2       17 UNK        -0.5000 
     99 N          -2.0944  -19.2297  -49.4913 N.am      18 UNK        -0.5000 
    100 CA        -1.3824  -18.0527  -49.9905 C.3       18 UNK         0.1400 
    101 CB        -0.4002  -17.5641  -48.9158 C.3       18 UNK        -0.1800 
    102 C         -2.3395  -16.9220  -50.3864 C.2       18 UNK         0.5000 
    103 O         -3.0926  -16.4478  -49.5353 O.2       18 UNK        -0.5000 
    104 N         -2.3316  -16.5579  -51.6748 N.am      19 UNK        -0.5000 
    105 CA        -3.1769  -15.5665  -52.3548 C.3       19 UNK         0.1400 
    106 CB        -2.9735  -14.1618  -51.7531 C.3       19 UNK        -0.1800 
    107 C         -4.6777  -15.9296  -52.4265 C.2       19 UNK         0.5000 
    108 O         -5.3276  -15.6017  -53.4197 O.2       19 UNK        -0.5000 
    109 N         -5.2015  -16.5939  -51.3901 N.am      20 UNK        -0.5000 
    110 CA        -6.5892  -17.0252  -51.2468 C.3       20 UNK         0.1400 
    111 CB        -6.8148  -17.5032  -49.8040 C.3       20 UNK        -0.1800 
    112 C         -7.0081  -18.1238  -52.2389 C.2       20 UNK         0.5000 
    113 O         -8.1737  -18.1485  -52.6380 O.2       20 UNK        -0.5000 
    114 N         -6.0761  -19.0119  -52.6086 N.am      21 UNK        -0.5000 
    115 CA        -6.3364  -20.1310  -53.5103 C.3       21 UNK         0.1400 
    116 CB        -6.7128  -21.3852  -52.6999 C.3       21 UNK        -0.1800 
    117 C         -5.1402  -20.3942  -54.4307 C.2       21 UNK         0.5000 
    118 O         -5.2884  -20.3115  -55.6510 O.2       21 UNK        -0.5000 
    119 N         -3.9852  -20.7120  -53.8316 N.am      22 UNK        -0.5000 
    120 CA        -2.7584  -21.1676  -54.5064 C.3       22 UNK         0.1400 
    121 C         -2.9585  -22.4317  -55.4055 C.2       22 UNK         0.5000 
    122 N         -2.0821  -22.7040  -56.3639 N.am      22 UNK        -0.7600 
    123 O         -3.8737  -23.2244  -55.1948 O.2       22 UNK        -0.5000 
    124 C124       -1.9953  -19.9900  -55.1770 C.3       23 UNK        -0.0398 
    125 S125       -1.2074  -18.9420  -53.9109 S.3       23 UNK        -0.2404 
    126 C126        0.3991  -19.7930  -53.7987 C.3       23 UNK        -0.0205 
    127 H127        5.0234   -9.6229  -50.1087 H         1 UNK         0.0600 
    128 H128        5.6360   -9.9346  -48.4822 H         1 UNK         0.0600 
    129 H129        4.3026   -8.8005  -48.7224 H         1 UNK         0.0600 
    130 H130        3.7126  -11.2524  -50.8727 H         1 UNK         0.3000 
    131 H131        2.5960  -13.2966  -49.1804 H         1 UNK         0.0600 
    132 H132        2.0221  -12.8262  -52.1543 H         1 UNK         0.0800 
    133 H133        3.4671  -13.6042  -51.5817 H         1 UNK         0.0800 
    134 H134        3.5192  -15.9674  -52.2237 H         1 UNK         0.0800 
    135 H135        3.5757  -16.0370  -50.4745 H         1 UNK         0.0800 
    136 H136        1.4277  -17.3293  -53.2900 H         1 UNK         0.1150 
    137 H137        1.1840  -21.2811  -51.6488 H         1 UNK         0.1150 
    138 H138        3.3641  -18.2320  -49.5716 H         1 UNK         0.1150 
    139 H139        2.5641  -21.9015  -49.7898 H         1 UNK         0.0800 
    140 H140        3.8285  -20.8024  -49.3104 H         1 UNK         0.0800 
    141 H141        0.1436  -21.5723  -49.1212 H         1 UNK         0.0800 
    142 H142       -0.4303  -20.8185  -47.6588 H         1 UNK         0.0800 
    143 H143        1.0218  -23.4992  -47.8589 H         1 UNK         0.0600 
    144 H144        0.7989  -21.8551  -45.5511 H         1 UNK         0.3000 
    145 H145        0.9223  -24.4558  -43.1093 H         1 UNK         0.0600 
    146 H146        2.8376  -23.0378  -42.3637 H         1 UNK         0.0600 
    147 H147        3.2850  -24.0705  -43.7129 H         1 UNK         0.0600 
    148 H148        2.9827  -22.3617  -43.9857 H         1 UNK         0.0600 
    149 H149        0.7678  -21.5501  -43.1166 H         1 UNK         0.3000 
    150 H150       -2.7940  -21.4161  -42.8491 H         1 UNK         0.0600 
    151 H151       -2.0386  -21.9304  -40.5193 H         1 UNK         0.0600 
    152 H152       -2.2584  -20.2035  -40.7560 H         1 UNK         0.0600 
    153 H153       -0.6348  -20.8903  -40.7354 H         1 UNK         0.0600 
    154 H154       -0.7542  -19.4141  -42.7052 H         1 UNK         0.3000 
    155 H155       -0.2532  -18.8852  -46.1406 H         1 UNK         0.0600 
    156 H156       -2.1064  -17.2452  -44.3370 H         1 UNK         0.0600 
    157 H157       -1.1362  -16.5710  -45.6441 H         1 UNK         0.0600 
    158 H158       -2.4116  -17.7284  -45.9966 H         1 UNK         0.0600 
    159 H159        0.4708  -17.2941  -43.9265 H         1 UNK         0.3000 
    160 H160        3.2423  -19.1309  -42.7570 H         1 UNK         0.0600 
    161 H161        4.7222  -17.4129  -43.7696 H         1 UNK         0.0600 
    162 H162        3.4621  -16.9687  -44.9225 H         1 UNK         0.0600 
    163 H163        4.2051  -18.5617  -44.9936 H         1 UNK         0.0600 
    164 H164        2.6477  -16.3302  -42.6892 H         1 UNK         0.3000 
    165 H165        0.2266  -16.3498  -40.1425 H         1 UNK         0.0600 
    166 H166        1.8760  -14.9985  -38.8771 H         1 UNK         0.0600 
    167 H167        2.3052  -16.6992  -38.7965 H         1 UNK         0.0600 
    168 H168        3.1942  -15.6243  -39.8689 H         1 UNK         0.0600 
    169 H169        1.6888  -14.2090  -41.2719 H         1 UNK         0.3000 
    170 H170        0.5804  -12.7659  -42.6592 H         1 UNK         0.0600 
    171 H171        1.1736  -12.8412  -45.1076 H         1 UNK         0.0600 
    172 H172        0.8693  -14.5776  -45.1226 H         1 UNK         0.0600 
    173 H173        2.1847  -13.9201  -44.1590 H         1 UNK         0.0600 
    174 H174       -1.3052  -13.4110  -44.7515 H         1 UNK         0.3000 
    175 H175       -4.2510  -12.9674  -43.0594 H         1 UNK         0.0600 
    176 H176       -4.7280  -10.7471  -44.0835 H         1 UNK         0.0600 
    177 H177       -3.0002  -10.4334  -44.2533 H         1 UNK         0.0600 
    178 H178       -3.7240  -10.5658  -42.6551 H         1 UNK         0.0600 
    179 H179       -3.3868  -12.3053  -45.7662 H         1 UNK         0.3000 
    180 H180       -3.3717  -15.5178  -47.0389 H         1 UNK         0.0600 
    181 H181       -5.8106  -13.6767  -47.3197 H         1 UNK         0.0600 
    182 H182       -5.8464  -15.3980  -46.9508 H         1 UNK         0.0600 
    183 H183       -5.2731  -14.8515  -48.5203 H         1 UNK         0.0600 
    184 H184       -3.6417  -12.9242  -48.2578 H         1 UNK         0.3000 
    185 H185       -1.7490  -12.1676  -49.4095 H         1 UNK         0.0600 
    186 H186       -0.6335  -11.0635  -46.7516 H         1 UNK         0.0600 
    187 H187       -0.8159  -10.1367  -48.2385 H         1 UNK         0.0600 
    188 H188       -2.2364  -10.7198  -47.3932 H         1 UNK         0.0600 
    189 H189        0.5611  -13.4208  -48.3160 H         1 UNK         0.3000 
    190 H190       -1.8431  -22.4068  -45.9857 H         1 UNK         0.3000 
    191 H191       -3.8106  -23.7132  -47.5612 H         1 UNK         0.0600 
    192 H192       -4.3333  -21.8896  -45.9617 H         1 UNK         0.0600 
    193 H193       -5.2685  -23.3266  -45.5787 H         1 UNK         0.0600 
    194 H194       -3.8636  -22.9109  -44.6052 H         1 UNK         0.0600 
    195 H195       -1.9354  -24.8623  -44.7123 H         1 UNK         0.3000 
    196 H196       -3.1631  -27.4151  -44.4986 H         1 UNK         0.0600 
    197 H197       -1.1406  -28.0018  -43.1817 H         1 UNK         0.0600 
    198 H198       -1.7435  -26.4181  -42.7179 H         1 UNK         0.0600 
    199 H199       -0.3199  -26.5547  -43.7480 H         1 UNK         0.0600 
    200 H200       -0.5967  -26.2316  -46.6284 H         1 UNK         0.3000 
    201 H201       -0.0367  -28.8231  -47.8472 H         1 UNK         0.0600 
    202 H202        1.7012  -27.0364  -47.6347 H         1 UNK         0.0600 
    203 H203        0.7638  -25.9911  -48.6980 H         1 UNK         0.0600 
    204 H204        1.4397  -27.4928  -49.3101 H         1 UNK         0.0600 
    205 H205       -2.7467  -26.9575  -48.0026 H         1 UNK         0.3000 
    206 H206       -4.5398  -26.8374  -49.2408 H         1 UNK         0.0600 
    207 H207       -4.2978  -29.3228  -49.4226 H         1 UNK         0.0600 
    208 H208       -5.1193  -28.6251  -50.8077 H         1 UNK         0.0600 
    209 H209       -3.4405  -29.1229  -50.9508 H         1 UNK         0.0600 
    210 H210       -2.3475  -25.0608  -49.8727 H         1 UNK         0.3000 
    211 H211       -3.3502  -24.0379  -52.4497 H         1 UNK         0.0600 
    212 H212       -0.3886  -24.6704  -51.9317 H         1 UNK         0.0600 
    213 H213       -1.0015  -23.7476  -53.2997 H         1 UNK         0.0600 
    214 H214       -1.4150  -25.4459  -53.1365 H         1 UNK         0.0600 
    215 H215       -4.2688  -22.9745  -50.3606 H         1 UNK         0.3000 
    216 H216       -2.8775  -21.4063  -48.5986 H         1 UNK         0.0600 
    217 H217       -5.0256  -20.2269  -48.2398 H         1 UNK         0.0600 
    218 H218       -5.3082  -21.9470  -48.4411 H         1 UNK         0.0600 
    219 H219       -5.6515  -20.8370  -49.7653 H         1 UNK         0.0600 
    220 H220       -1.8135  -19.5465  -48.5780 H         1 UNK         0.3000 
    221 H221       -0.8099  -18.3622  -50.8651 H         1 UNK         0.0600 
    222 H222       -0.9187  -17.2396  -48.0146 H         1 UNK         0.0600 
    223 H223        0.3092  -18.3416  -48.6401 H         1 UNK         0.0600 
    224 H224        0.1791  -16.7143  -49.2748 H         1 UNK         0.0600 
    225 H225       -1.7235  -17.0780  -52.2944 H         1 UNK         0.3000 
    226 H226       -2.8172  -15.5375  -53.3845 H         1 UNK         0.0600 
    227 H227       -1.9181  -13.8888  -51.7345 H         1 UNK         0.0600 
    228 H228       -3.4953  -13.4079  -52.3435 H         1 UNK         0.0600 
    229 H229       -3.3549  -14.0958  -50.7339 H         1 UNK         0.0600 
    230 H230       -4.5830  -16.7692  -50.6030 H         1 UNK         0.3000 
    231 H231       -7.2294  -16.1589  -51.4251 H         1 UNK         0.0600 
    232 H232       -6.1346  -18.3133  -49.5401 H         1 UNK         0.0600 
    233 H233       -7.8331  -17.8688  -49.6647 H         1 UNK         0.0600 
    234 H234       -6.6638  -16.6942  -49.0912 H         1 UNK         0.0600 
    235 H235       -5.1344  -18.9334  -52.2354 H         1 UNK         0.3000 
    236 H236       -7.1781  -19.8894  -54.1633 H         1 UNK         0.0600 
    237 H237       -7.6189  -21.2204  -52.1168 H         1 UNK         0.0600 
    238 H238       -6.8997  -22.2333  -53.3598 H         1 UNK         0.0600 
    239 H239       -5.9201  -21.6756  -52.0106 H         1 UNK         0.0600 
    240 H240       -3.9246  -20.6422  -52.8212 H         1 UNK         0.3000 
    241 H241       -2.1283  -21.5452  -53.7024 H         1 UNK         0.0600 
    242 H242       -1.2944  -22.1084  -56.5615 H         1 UNK         0.3800 
    243 H243       -2.2158  -23.5379  -56.9149 H         1 UNK         0.3800 
    244 H244       -1.2148  -20.3276  -55.8581 H         1 UNK         0.0800 
    245 H245       -2.6702  -19.3804  -55.7788 H         1 UNK         0.0800 
    246 H246        0.9739  -19.6003  -54.7056 H         1 UNK         0.0800 
    247 H247        0.2345  -20.8710  -53.7590 H         1 UNK         0.0800 
@<TRIPOS>BOND
     1    1    2 1    
     2    1  127 1    
     3    1  128 1    
     4    1  129 1    
     5    2    3 2    
     6    2    4 am   BACKBONE|DICT|INTERRES
     7    4    5 1    
     8    4  130 1    
     9    5    6 1    
    10    5   65 1    
    11    5  131 1    
    12    6    7 1    
    13    6  132 1    
    14    6  133 1    
    15    7    8 1    
    16    8    9 1    
    17    8  134 1    
    18    8  135 1    
    19    9   10 ar   
    20    9   14 ar   
    21   10   11 ar   
    22   10  136 1    
    23   11   12 ar   
    24   11  126 1    
    25   12   13 ar   
    26   12  137 1    
    27   13   14 ar   
    28   13   15 1    
    29   14  138 1    
    30   15   16 1    
    31   15  139 1    
    32   15  140 1    
    33   16   17 1    
    34   17   18 1    
    35   17  141 1    
    36   17  142 1    
    37   18   19 1    
    38   18   67 1    
    39   18  143 1    
    40   19   20 am   BACKBONE|DICT|INTERRES
    41   19  144 1    
    42   20   21 2    
    43   20   22 1    
    44   22   23 1    
    45   22   24 1    
    46   22  145 1    
    47   23  146 1    
    48   23  147 1    
    49   23  148 1    
    50   24   25 am   BACKBONE|DICT|INTERRES
    51   24  149 1    
    52   25   26 2    
    53   25   27 1    
    54   27   28 1    
    55   27   29 1    
    56   27  150 1    
    57   28  151 1    
    58   28  152 1    
    59   28  153 1    
    60   29   30 am   BACKBONE|DICT|INTERRES
    61   29  154 1    
    62   30   31 2    
    63   30   32 1    
    64   32   33 1    
    65   32   34 1    
    66   32  155 1    
    67   33  156 1    
    68   33  157 1    
    69   33  158 1    
    70   34   35 am   BACKBONE|DICT|INTERRES
    71   34  159 1    
    72   35   36 2    
    73   35   37 1    
    74   37   38 1    
    75   37   39 1    
    76   37  160 1    
    77   38  161 1    
    78   38  162 1    
    79   38  163 1    
    80   39   40 am   BACKBONE|DICT|INTERRES
    81   39  164 1    
    82   40   41 2    
    83   40   42 1    
    84   42   43 1    
    85   42   44 1    
    86   42  165 1    
    87   43  166 1    
    88   43  167 1    
    89   43  168 1    
    90   44   45 am   BACKBONE|DICT|INTERRES
    91   44  169 1    
    92   45   46 2    
    93   45   47 1    
    94   47   48 1    
    95   47   49 1    
    96   47  170 1    
    97   48  171 1    
    98   48  172 1    
    99   48  173 1    
   100   49   50 am   BACKBONE|DICT|INTERRES
   101   49  174 1    
   102   50   51 2    
   103   50   52 1    
   104   52   53 1    
   105   52   54 1    
   106   52  175 1    
   107   53  176 1    
   108   53  177 1    
   109   53  178 1    
   110   54   55 am   BACKBONE|DICT|INTERRES
   111   54  179 1    
   112   55   56 2    
   113   55   57 1    
   114   57   58 1    
   115   57   59 1    
   116   57  180 1    
   117   58  181 1    
   118   58  182 1    
   119   58  183 1    
   120   59   60 am   BACKBONE|DICT|INTERRES
   121   59  184 1    
   122   60   61 2    
   123   60   62 1    
   124   62   63 1    
   125   62   64 1    
   126   62  185 1    
   127   63  186 1    
   128   63  187 1    
   129   63  188 1    
   130   64   65 am   BACKBONE|DICT|INTERRES
   131   64  189 1    
   132   65   66 2    
   133   67   68 2    
   134   67   69 am   BACKBONE|DICT|INTERRES
   135   69   70 1    
   136   69  190 1    
   137   70   71 1    
   138   70   72 1    
   139   70  191 1    
   140   71  192 1    
   141   71  193 1    
   142   71  194 1    
   143   72   73 2    
   144   72   74 am   BACKBONE|DICT|INTERRES
   145   74   75 1    
   146   74  195 1    
   147   75   76 1    
   148   75   77 1    
   149   75  196 1    
   150   76  197 1    
   151   76  198 1    
   152   76  199 1    
   153   77   78 2    
   154   77   79 am   BACKBONE|DICT|INTERRES
   155   79   80 1    
   156   79  200 1    
   157   80   81 1    
   158   80   82 1    
   159   80  201 1    
   160   81  202 1    
   161   81  203 1    
   162   81  204 1    
   163   82   83 2    
   164   82   84 am   BACKBONE|DICT|INTERRES
   165   84   85 1    
   166   84  205 1    
   167   85   86 1    
   168   85   87 1    
   169   85  206 1    
   170   86  207 1    
   171   86  208 1    
   172   86  209 1    
   173   87   88 2    
   174   87   89 am   BACKBONE|DICT|INTERRES
   175   89   90 1    
   176   89  210 1    
   177   90   91 1    
   178   90   92 1    
   179   90  211 1    
   180   91  212 1    
   181   91  213 1    
   182   91  214 1    
   183   92   93 2    
   184   92   94 am   BACKBONE|DICT|INTERRES
   185   94   95 1    
   186   94  215 1    
   187   95   96 1    
   188   95   97 1    
   189   95  216 1    
   190   96  217 1    
   191   96  218 1    
   192   96  219 1    
   193   97   98 2    
   194   97   99 am   BACKBONE|DICT|INTERRES
   195   99  100 1    
   196   99  220 1    
   197  100  101 1    
   198  100  102 1    
   199  100  221 1    
   200  101  222 1    
   201  101  223 1    
   202  101  224 1    
   203  102  103 2    
   204  102  104 am   BACKBONE|DICT|INTERRES
   205  104  105 1    
   206  104  225 1    
   207  105  106 1    
   208  105  107 1    
   209  105  226 1    
   210  106  227 1    
   211  106  228 1    
   212  106  229 1    
   213  107  108 2    
   214  107  109 am   BACKBONE|DICT|INTERRES
   215  109  110 1    
   216  109  230 1    
   217  110  111 1    
   218  110  112 1    
   219  110  231 1    
   220  111  232 1    
   221  111  233 1    
   222  111  234 1    
   223  112  113 2    
   224  112  114 am   BACKBONE|DICT|INTERRES
   225  114  115 1    
   226  114  235 1    
   227  115  116 1    
   228  115  117 1    
   229  115  236 1    
   230  116  237 1    
   231  116  238 1    
   232  116  239 1    
   233  117  118 2    
   234  117  119 am   BACKBONE|DICT|INTERRES
   235  119  120 1    
   236  119  240 1    
   237  120  121 1    
   238  120  124 1    
   239  120  241 1    
   240  121  122 am   BACKBONE|DICT|INTERRES
   241  121  123 2    
   242  122  242 1    
   243  122  243 1    
   244  124  125 1    
   245  124  244 1    
   246  124  245 1    
   247  125  126 1    
   248  126  246 1    
   249  126  247 1    
@<TRIPOS>SUBSTRUCTURE
     1 UNK         1 GROUP             0       ****    0 ROOT    
