@<TRIPOS>MOLECULE
3R540
247   249    1
SMALL
USER_CHARGES


@<TRIPOS>ATOM
      1 CA         -2.2538  -13.7654  -49.5611 C.3       0 UNK        -0.1800 
      2 C          -1.1640  -13.9289  -48.5111 C.2       0 UNK         0.5000 
      3 O          -1.2754  -14.8094  -47.6620 O.2       0 UNK        -0.5000 
      4 N          -0.1388  -13.0636  -48.5632 N.am      1 UNK        -0.5000 
      5 CA          1.0991  -13.0383  -47.7602 C.3       1 UNK         0.1400 
      6 C6          2.2224  -13.9722  -48.2951 C.3       23 UNK        -0.0398 
      7 S7          1.8466  -15.7556  -48.2851 S.3       23 UNK        -0.2404 
      8 C8          3.3664  -16.4181  -49.0234 C.3       23 UNK        -0.0205 
      9 C9          3.2045  -17.8734  -49.4355 C.ar      23 UNK        -0.0193 
     10 C10         2.7053  -18.1869  -50.7033 C.ar      23 UNK        -0.1150 
     11 C11         2.6116  -19.5169  -51.1214 C.ar      23 UNK        -0.0193 
     12 C12         3.0167  -20.5387  -50.2571 C.ar      23 UNK        -0.1150 
     13 C13         3.5165  -20.2403  -48.9853 C.ar      23 UNK        -0.0193 
     14 C14         3.5982  -18.9045  -48.5763 C.ar      23 UNK        -0.1150 
     15 C15         4.0396  -21.3547  -48.0857 C.3       23 UNK        -0.0205 
     16 S16         2.7605  -22.5597  -47.6055 S.3       23 UNK        -0.2404 
     17 C17         1.7609  -21.5761  -46.4411 C.3       23 UNK        -0.0398 
     18 CA          0.2467  -21.8852  -46.5187 C.3       11 UNK         0.1400 
     19 N          -0.4695  -21.3223  -45.3703 N.am      11 UNK        -0.5000 
     20 C          -1.7655  -21.5203  -45.0914 C.2       10 UNK         0.5000 
     21 O          -2.5029  -22.2532  -45.7477 O.2       10 UNK        -0.5000 
     22 CA         -2.3524  -20.7250  -43.9117 C.3       10 UNK         0.1400 
     23 CB         -1.9979  -21.3840  -42.5706 C.3       10 UNK        -0.1800 
     24 N          -1.9165  -19.3290  -43.9067 N.am      10 UNK        -0.5000 
     25 C          -2.1979  -18.4405  -44.8711 C.2       9 UNK         0.5000 
     26 O          -2.9055  -18.6907  -45.8465 O.2       9 UNK        -0.5000 
     27 CA         -1.5447  -17.0522  -44.7381 C.3       9 UNK         0.1400 
     28 CB         -2.3105  -16.2068  -43.7074 C.3       9 UNK        -0.1800 
     29 N          -0.1251  -17.1312  -44.3771 N.am      9 UNK        -0.5000 
     30 C           0.8096  -17.7522  -45.1154 C.2       8 UNK         0.5000 
     31 O           0.5827  -18.2912  -46.1963 O.2       8 UNK        -0.5000 
     32 CA          2.2132  -17.8851  -44.4992 C.3       8 UNK         0.1400 
     33 CB          3.0496  -16.6124  -44.6976 C.3       8 UNK        -0.1800 
     34 N           2.1393  -18.2220  -43.0781 N.am      8 UNK        -0.5000 
     35 C           1.7238  -19.4080  -42.6087 C.2       7 UNK         0.5000 
     36 O           1.4193  -20.3572  -43.3299 O.2       7 UNK        -0.5000 
     37 CA          1.5808  -19.5407  -41.0810 C.3       7 UNK         0.1400 
     38 CB          2.9205  -19.9417  -40.4464 C.3       7 UNK        -0.1800 
     39 N           1.0995  -18.3081  -40.4566 N.am      7 UNK        -0.5000 
     40 C          -0.1158  -17.7768  -40.6561 C.2       6 UNK         0.5000 
     41 O          -0.9947  -18.3249  -41.3195 O.2       6 UNK        -0.5000 
     42 CA         -0.3649  -16.3742  -40.0642 C.3       6 UNK         0.1400 
     43 CB         -0.9748  -16.4807  -38.6592 C.3       6 UNK        -0.1800 
     44 N           0.8599  -15.5689  -40.0053 N.am      6 UNK        -0.5000 
     45 C           1.5252  -15.1381  -41.0849 C.2       5 UNK         0.5000 
     46 O           1.1175  -15.2847  -42.2399 O.2       5 UNK        -0.5000 
     47 CA          2.9200  -14.5514  -40.8315 C.3       5 UNK         0.1400 
     48 CB          3.9231  -15.7025  -40.5957 C.3       5 UNK        -0.1800 
     49 N           3.3244  -13.7428  -41.9785 N.am      5 UNK        -0.5000 
     50 C           4.4262  -12.9843  -42.0534 C.2       4 UNK         0.5000 
     51 O           5.2464  -12.8671  -41.1420 O.2       4 UNK        -0.5000 
     52 CA          4.6334  -12.1973  -43.3579 C.3       4 UNK         0.1400 
     53 CB          5.0542  -13.1267  -44.5081 C.3       4 UNK        -0.1800 
     54 N           3.4286  -11.4543  -43.7247 N.am      4 UNK        -0.5000 
     55 C           3.0437  -10.3157  -43.1251 C.2       3 UNK         0.5000 
     56 O           3.7067   -9.7477  -42.2560 O.2       3 UNK        -0.5000 
     57 CA          1.6995   -9.6945  -43.5576 C.3       3 UNK         0.1400 
     58 CB          1.9310   -8.5651  -44.5732 C.3       3 UNK        -0.1800 
     59 N           0.7732  -10.6660  -44.1351 N.am      3 UNK        -0.5000 
     60 C           0.1869  -11.6648  -43.4619 C.2       2 UNK         0.5000 
     61 O           0.2762  -11.8114  -42.2427 O.2       2 UNK        -0.5000 
     62 CA         -0.6050  -12.6899  -44.2955 C.3       2 UNK         0.1400 
     63 CB         -2.1168  -12.4585  -44.1519 C.3       2 UNK        -0.1800 
     64 N          -0.2594  -12.7060  -45.7205 N.am      2 UNK        -0.5000 
     65 C           0.9287  -13.0741  -46.2208 C.2       1 UNK         0.5000 
     66 O           1.8906  -13.3529  -45.5038 O.2       1 UNK        -0.5000 
     67 C          -0.3736  -21.4367  -47.8600 C.2       11 UNK         0.5000 
     68 O          -0.6404  -22.2798  -48.7177 O.2       11 UNK        -0.5000 
     69 N          -0.6411  -20.1304  -47.9901 N.am      12 UNK        -0.5000 
     70 CA         -1.2807  -19.5286  -49.1568 C.3       12 UNK         0.1400 
     71 CB         -1.2404  -18.0008  -49.0378 C.3       12 UNK        -0.1800 
     72 C          -2.7172  -20.0248  -49.3877 C.2       12 UNK         0.5000 
     73 O          -3.0932  -20.2612  -50.5342 O.2       12 UNK        -0.5000 
     74 N          -3.4831  -20.1995  -48.3016 N.am      13 UNK        -0.5000 
     75 CA         -4.8416  -20.7407  -48.3228 C.3       13 UNK         0.1400 
     76 CB         -5.5162  -20.4836  -46.9674 C.3       13 UNK        -0.1800 
     77 C          -4.8886  -22.2390  -48.6762 C.2       13 UNK         0.5000 
     78 O          -5.7873  -22.6617  -49.4022 O.2       13 UNK        -0.5000 
     79 N          -3.9232  -23.0148  -48.1656 N.am      14 UNK        -0.5000 
     80 CA         -3.8023  -24.4573  -48.3886 C.3       14 UNK         0.1400 
     81 CB         -2.8463  -25.0469  -47.3406 C.3       14 UNK        -0.1800 
     82 C          -3.3332  -24.8379  -49.8064 C.2       14 UNK         0.5000 
     83 O          -3.4991  -25.9955  -50.1974 O.2       14 UNK        -0.5000 
     84 N          -2.7477  -23.8800  -50.5375 N.am      15 UNK        -0.5000 
     85 CA         -2.1511  -24.0494  -51.8615 C.3       15 UNK         0.1400 
     86 CB         -1.6426  -22.6906  -52.3541 C.3       15 UNK        -0.1800 
     87 C          -3.1028  -24.6684  -52.9008 C.2       15 UNK         0.5000 
     88 O          -4.2686  -24.2695  -52.9835 O.2       15 UNK        -0.5000 
     89 N          -2.5615  -25.6198  -53.6752 N.am      16 UNK        -0.5000 
     90 CA         -3.2246  -26.3972  -54.7271 C.3       16 UNK         0.1400 
     91 CB         -3.5368  -25.5055  -55.9440 C.3       16 UNK        -0.1800 
     92 C          -4.4454  -27.1852  -54.2080 C.2       16 UNK         0.5000 
     93 O          -5.5144  -27.1477  -54.8176 O.2       16 UNK        -0.5000 
     94 N          -4.2484  -27.8779  -53.0756 N.am      17 UNK        -0.5000 
     95 CA         -5.2292  -28.7013  -52.3587 C.3       17 UNK         0.1400 
     96 CB         -5.6431  -29.9279  -53.1997 C.3       17 UNK        -0.1800 
     97 C          -6.4279  -27.8728  -51.8542 C.2       17 UNK         0.5000 
     98 O          -7.5826  -28.2176  -52.1123 O.2       17 UNK        -0.5000 
     99 N          -6.1083  -26.7826  -51.1437 N.am      18 UNK        -0.5000 
    100 CA        -7.0265  -25.8194  -50.5288 C.3       18 UNK         0.1400 
    101 CB        -7.8822  -26.4865  -49.4318 C.3       18 UNK        -0.1800 
    102 C         -7.8603  -25.0037  -51.5390 C.2       18 UNK         0.5000 
    103 O         -8.9393  -24.5196  -51.1924 O.2       18 UNK        -0.5000 
    104 N         -7.3382  -24.8326  -52.7613 N.am      19 UNK        -0.5000 
    105 CA        -7.9051  -23.9445  -53.7797 C.3       19 UNK         0.1400 
    106 CB        -7.4717  -24.4283  -55.1697 C.3       19 UNK        -0.1800 
    107 C         -7.4932  -22.4741  -53.5647 C.2       19 UNK         0.5000 
    108 O         -8.1173  -21.5844  -54.1438 O.2       19 UNK        -0.5000 
    109 N         -6.4585  -22.2545  -52.7401 N.am      20 UNK        -0.5000 
    110 CA        -5.8666  -20.9734  -52.3544 C.3       20 UNK         0.1400 
    111 CB        -6.8799  -20.0897  -51.5970 C.3       20 UNK        -0.1800 
    112 C         -5.1932  -20.2550  -53.5386 C.2       20 UNK         0.5000 
    113 O         -5.3344  -19.0399  -53.6912 O.2       20 UNK        -0.5000 
    114 N         -4.4683  -21.0306  -54.3585 N.am      21 UNK        -0.5000 
    115 CA        -3.8455  -20.6151  -55.6217 C.3       21 UNK         0.1400 
    116 CB        -3.1666  -21.8350  -56.2617 C.3       21 UNK        -0.1800 
    117 C         -2.8592  -19.4301  -55.5392 C.2       21 UNK         0.5000 
    118 O         -2.6457  -18.7620  -56.5521 O.2       21 UNK        -0.5000 
    119 N         -2.2934  -19.1813  -54.3545 N.am      22 UNK        -0.5000 
    120 CA        -1.4277  -18.0325  -54.0435 C.3       22 UNK         0.1400 
    121 C         -1.9856  -17.1414  -52.8950 C.2       22 UNK         0.5000 
    122 N         -3.2477  -17.2776  -52.5018 N.am      22 UNK        -0.7600 
    123 O         -1.2799  -16.2815  -52.3763 O.2       22 UNK        -0.5000 
    124 C124        0.0559  -18.4511  -53.8532 C.3       23 UNK        -0.0398 
    125 S125        0.3051  -19.7781  -52.6276 S.3       23 UNK        -0.2404 
    126 C126        2.1183  -19.8457  -52.5223 C.3       23 UNK        -0.0205 
    127 H127       -3.2156  -13.5861  -49.0807 H         1 UNK         0.0600 
    128 H128       -2.3334  -14.6746  -50.1574 H         1 UNK         0.0600 
    129 H129       -2.0487  -12.9342  -50.2361 H         1 UNK         0.0600 
    130 H130       -0.1698  -12.3560  -49.2838 H         1 UNK         0.3000 
    131 H131        1.4767  -12.0284  -47.9269 H         1 UNK         0.0600 
    132 H132        2.4471  -13.6918  -49.3248 H         1 UNK         0.0800 
    133 H133        3.1505  -13.8118  -47.7435 H         1 UNK         0.0800 
    134 H134        3.6378  -15.8222  -49.8962 H         1 UNK         0.0800 
    135 H135        4.1869  -16.3132  -48.3120 H         1 UNK         0.0800 
    136 H136        2.4016  -17.3935  -51.3718 H         1 UNK         0.1150 
    137 H137        2.9617  -21.5690  -50.5795 H         1 UNK         0.1150 
    138 H138        3.9949  -18.6621  -47.6006 H         1 UNK         0.1150 
    139 H139        4.8319  -21.8842  -48.6165 H         1 UNK         0.0800 
    140 H140        4.5001  -20.9461  -47.1847 H         1 UNK         0.0800 
    141 H141        1.9442  -20.5132  -46.5993 H         1 UNK         0.0800 
    142 H142        2.1335  -21.7999  -45.4411 H         1 UNK         0.0800 
    143 H143        0.1243  -22.9685  -46.4538 H         1 UNK         0.0600 
    144 H144        0.0742  -20.7323  -44.7486 H         1 UNK         0.3000 
    145 H145       -3.4394  -20.7316  -44.0150 H         1 UNK         0.0600 
    146 H146       -2.4623  -20.8560  -41.7374 H         1 UNK         0.0600 
    147 H147       -2.3490  -22.4161  -42.5391 H         1 UNK         0.0600 
    148 H148       -0.9219  -21.3980  -42.3983 H         1 UNK         0.0600 
    149 H149       -1.3793  -19.0195  -43.1021 H         1 UNK         0.3000 
    150 H150       -1.6051  -16.5538  -45.7067 H         1 UNK         0.0600 
    151 H151       -3.3027  -15.9529  -44.0820 H         1 UNK         0.0600 
    152 H152       -1.7976  -15.2756  -43.4858 H         1 UNK         0.0600 
    153 H153       -2.4484  -16.7335  -42.7639 H         1 UNK         0.0600 
    154 H154        0.1590  -16.6854  -43.5129 H         1 UNK         0.3000 
    155 H155        2.7284  -18.7009  -45.0109 H         1 UNK         0.0600 
    156 H156        2.5478  -15.7281  -44.3086 H         1 UNK         0.0600 
    157 H157        4.0204  -16.6919  -44.2087 H         1 UNK         0.0600 
    158 H158        3.2353  -16.4349  -45.7564 H         1 UNK         0.0600 
    159 H159        2.3163  -17.4736  -42.4265 H         1 UNK         0.3000 
    160 H160        0.8545  -20.3310  -40.8800 H         1 UNK         0.0600 
    161 H161        3.6840  -19.1772  -40.5959 H         1 UNK         0.0600 
    162 H162        3.2951  -20.8694  -40.8812 H         1 UNK         0.0600 
    163 H163        2.8151  -20.1065  -39.3740 H         1 UNK         0.0600 
    164 H164        1.7540  -17.8062  -39.8763 H         1 UNK         0.3000 
    165 H165       -1.0801  -15.8623  -40.7116 H         1 UNK         0.0600 
    166 H166       -1.2160  -15.4959  -38.2587 H         1 UNK         0.0600 
    167 H167       -1.9004  -17.0577  -38.6792 H         1 UNK         0.0600 
    168 H168       -0.2966  -16.9717  -37.9602 H         1 UNK         0.0600 
    169 H169        1.2517  -15.4106  -39.0878 H         1 UNK         0.3000 
    170 H170        2.8735  -13.9100  -39.9493 H         1 UNK         0.0600 
    171 H171        4.0467  -16.3162  -41.4887 H         1 UNK         0.0600 
    172 H172        4.9071  -15.3305  -40.3124 H         1 UNK         0.0600 
    173 H173        3.5963  -16.3577  -39.7878 H         1 UNK         0.0600 
    174 H174        2.6793  -13.7741  -42.7589 H         1 UNK         0.3000 
    175 H175        5.4457  -11.4850  -43.1975 H         1 UNK         0.0600 
    176 H176        5.2004  -12.5692  -45.4332 H         1 UNK         0.0600 
    177 H177        4.3143  -13.9032  -44.6994 H         1 UNK         0.0600 
    178 H178        5.9952  -13.6267  -44.2764 H         1 UNK         0.0600 
    179 H179        2.8185  -11.8926  -44.4060 H         1 UNK         0.3000 
    180 H180        1.2326   -9.2664  -42.6681 H         1 UNK         0.0600 
    181 H181        2.3842   -8.9375  -45.4929 H         1 UNK         0.0600 
    182 H182        2.5961   -7.8029  -44.1650 H         1 UNK         0.0600 
    183 H183        0.9952   -8.0709  -44.8348 H         1 UNK         0.0600 
    184 H184        0.6313  -10.6208  -45.1330 H         1 UNK         0.3000 
    185 H185       -0.3555  -13.6713  -43.8923 H         1 UNK         0.0600 
    186 H186       -2.4119  -11.4826  -44.5392 H         1 UNK         0.0600 
    187 H187       -2.6858  -13.2184  -44.6880 H         1 UNK         0.0600 
    188 H188       -2.4211  -12.5036  -43.1053 H         1 UNK         0.0600 
    189 H189       -1.0020  -12.4975  -46.3715 H         1 UNK         0.3000 
    190 H190       -0.3497  -19.4895  -47.2542 H         1 UNK         0.3000 
    191 H191       -0.6924  -19.8159  -50.0264 H         1 UNK         0.0600 
    192 H192       -0.2125  -17.6422  -49.0352 H         1 UNK         0.0600 
    193 H193       -1.7462  -17.5248  -49.8774 H         1 UNK         0.0600 
    194 H194       -1.7194  -17.6509  -48.1232 H         1 UNK         0.0600 
    195 H195       -3.1173  -19.9157  -47.3974 H         1 UNK         0.3000 
    196 H196       -5.4049  -20.2013  -49.0856 H         1 UNK         0.0600 
    197 H197       -6.5399  -20.8601  -46.9624 H         1 UNK         0.0600 
    198 H198       -5.5602  -19.4172  -46.7457 H         1 UNK         0.0600 
    199 H199       -4.9812  -20.9721  -46.1524 H         1 UNK         0.0600 
    200 H200       -3.2518  -22.6013  -47.5245 H         1 UNK         0.3000 
    201 H201       -4.7844  -24.9090  -48.2375 H         1 UNK         0.0600 
    202 H202       -3.2164  -24.8759  -46.3297 H         1 UNK         0.0600 
    203 H203       -1.8517  -24.6048  -47.4130 H         1 UNK         0.0600 
    204 H204       -2.7383  -26.1249  -47.4672 H         1 UNK         0.0600 
    205 H205       -2.6397  -22.9688  -50.1133 H         1 UNK         0.3000 
    206 H206       -1.2912  -24.7097  -51.7348 H         1 UNK         0.0600 
    207 H207       -0.9406  -22.2590  -51.6405 H         1 UNK         0.0600 
    208 H208       -1.1232  -22.7831  -53.3086 H         1 UNK         0.0600 
    209 H209       -2.4585  -21.9812  -52.4904 H         1 UNK         0.0600 
    210 H210       -1.5936  -25.8626  -53.5157 H         1 UNK         0.3000 
    211 H211       -2.5050  -27.1485  -55.0556 H         1 UNK         0.0600 
    212 H212       -4.2338  -24.7114  -55.6877 H         1 UNK         0.0600 
    213 H213       -3.9788  -26.0841  -56.7559 H         1 UNK         0.0600 
    214 H214       -2.6309  -25.0406  -56.3327 H         1 UNK         0.0600 
    215 H215       -3.3430  -27.8013  -52.6332 H         1 UNK         0.3000 
    216 H216       -4.7226  -29.0752  -51.4676 H         1 UNK         0.0600 
    217 H217       -6.2814  -30.5974  -52.6220 H         1 UNK         0.0600 
    218 H218       -4.7717  -30.5022  -53.5139 H         1 UNK         0.0600 
    219 H219       -6.1970  -29.6424  -54.0943 H         1 UNK         0.0600 
    220 H220       -5.1214  -26.5883  -50.9902 H         1 UNK         0.3000 
    221 H221       -6.3886  -25.0909  -50.0330 H         1 UNK         0.0600 
    222 H222       -8.6099  -27.1818  -49.8507 H         1 UNK         0.0600 
    223 H223       -7.2594  -27.0351  -48.7253 H         1 UNK         0.0600 
    224 H224       -8.4359  -25.7405  -48.8606 H         1 UNK         0.0600 
    225 H225       -6.4388  -25.2471  -52.9706 H         1 UNK         0.3000 
    226 H226       -8.9949  -23.9935  -53.7322 H         1 UNK         0.0600 
    227 H227       -7.7737  -25.4617  -55.3413 H         1 UNK         0.0600 
    228 H228       -7.9233  -23.8211  -55.9551 H         1 UNK         0.0600 
    229 H229       -6.3919  -24.3696  -55.2900 H         1 UNK         0.0600 
    230 H230       -5.9782  -23.0711  -52.3808 H         1 UNK         0.3000 
    231 H231       -5.0705  -21.2314  -51.6605 H         1 UNK         0.0600 
    232 H232       -7.6827  -19.7409  -52.2467 H         1 UNK         0.0600 
    233 H233       -6.3903  -19.2078  -51.1824 H         1 UNK         0.0600 
    234 H234       -7.3315  -20.6322  -50.7665 H         1 UNK         0.0600 
    235 H235       -4.4178  -22.0165  -54.1403 H         1 UNK         0.3000 
    236 H236       -4.6540  -20.2964  -56.2824 H         1 UNK         0.0600 
    237 H237       -3.9044  -22.5870  -56.5374 H         1 UNK         0.0600 
    238 H238       -2.6367  -21.5608  -57.1750 H         1 UNK         0.0600 
    239 H239       -2.4439  -22.2957  -55.5872 H         1 UNK         0.0600 
    240 H240       -2.5220  -19.7736  -53.5691 H         1 UNK         0.3000 
    241 H241       -1.4364  -17.3514  -54.8959 H         1 UNK         0.0600 
    242 H242       -3.5994  -16.6812  -51.7717 H         1 UNK         0.3800 
    243 H243       -3.8772  -17.9263  -52.9630 H         1 UNK         0.3800 
    244 H244        0.4494  -18.8053  -54.8068 H         1 UNK         0.0800 
    245 H245        0.6699  -17.5909  -53.5813 H         1 UNK         0.0800 
    246 H246        2.4458  -20.8444  -52.8148 H         1 UNK         0.0800 
    247 H247        2.5713  -19.1598  -53.2395 H         1 UNK         0.0800 
@<TRIPOS>BOND
     1    1    2 1    
     2    1  127 1    
     3    1  128 1    
     4    1  129 1    
     5    2    3 2    
     6    2    4 am   BACKBONE|DICT|INTERRES
     7    4    5 1    
     8    4  130 1    
     9    5    6 1    
    10    5   65 1    
    11    5  131 1    
    12    6    7 1    
    13    6  132 1    
    14    6  133 1    
    15    7    8 1    
    16    8    9 1    
    17    8  134 1    
    18    8  135 1    
    19    9   10 ar   
    20    9   14 ar   
    21   10   11 ar   
    22   10  136 1    
    23   11   12 ar   
    24   11  126 1    
    25   12   13 ar   
    26   12  137 1    
    27   13   14 ar   
    28   13   15 1    
    29   14  138 1    
    30   15   16 1    
    31   15  139 1    
    32   15  140 1    
    33   16   17 1    
    34   17   18 1    
    35   17  141 1    
    36   17  142 1    
    37   18   19 1    
    38   18   67 1    
    39   18  143 1    
    40   19   20 am   BACKBONE|DICT|INTERRES
    41   19  144 1    
    42   20   21 2    
    43   20   22 1    
    44   22   23 1    
    45   22   24 1    
    46   22  145 1    
    47   23  146 1    
    48   23  147 1    
    49   23  148 1    
    50   24   25 am   BACKBONE|DICT|INTERRES
    51   24  149 1    
    52   25   26 2    
    53   25   27 1    
    54   27   28 1    
    55   27   29 1    
    56   27  150 1    
    57   28  151 1    
    58   28  152 1    
    59   28  153 1    
    60   29   30 am   BACKBONE|DICT|INTERRES
    61   29  154 1    
    62   30   31 2    
    63   30   32 1    
    64   32   33 1    
    65   32   34 1    
    66   32  155 1    
    67   33  156 1    
    68   33  157 1    
    69   33  158 1    
    70   34   35 am   BACKBONE|DICT|INTERRES
    71   34  159 1    
    72   35   36 2    
    73   35   37 1    
    74   37   38 1    
    75   37   39 1    
    76   37  160 1    
    77   38  161 1    
    78   38  162 1    
    79   38  163 1    
    80   39   40 am   BACKBONE|DICT|INTERRES
    81   39  164 1    
    82   40   41 2    
    83   40   42 1    
    84   42   43 1    
    85   42   44 1    
    86   42  165 1    
    87   43  166 1    
    88   43  167 1    
    89   43  168 1    
    90   44   45 am   BACKBONE|DICT|INTERRES
    91   44  169 1    
    92   45   46 2    
    93   45   47 1    
    94   47   48 1    
    95   47   49 1    
    96   47  170 1    
    97   48  171 1    
    98   48  172 1    
    99   48  173 1    
   100   49   50 am   BACKBONE|DICT|INTERRES
   101   49  174 1    
   102   50   51 2    
   103   50   52 1    
   104   52   53 1    
   105   52   54 1    
   106   52  175 1    
   107   53  176 1    
   108   53  177 1    
   109   53  178 1    
   110   54   55 am   BACKBONE|DICT|INTERRES
   111   54  179 1    
   112   55   56 2    
   113   55   57 1    
   114   57   58 1    
   115   57   59 1    
   116   57  180 1    
   117   58  181 1    
   118   58  182 1    
   119   58  183 1    
   120   59   60 am   BACKBONE|DICT|INTERRES
   121   59  184 1    
   122   60   61 2    
   123   60   62 1    
   124   62   63 1    
   125   62   64 1    
   126   62  185 1    
   127   63  186 1    
   128   63  187 1    
   129   63  188 1    
   130   64   65 am   BACKBONE|DICT|INTERRES
   131   64  189 1    
   132   65   66 2    
   133   67   68 2    
   134   67   69 am   BACKBONE|DICT|INTERRES
   135   69   70 1    
   136   69  190 1    
   137   70   71 1    
   138   70   72 1    
   139   70  191 1    
   140   71  192 1    
   141   71  193 1    
   142   71  194 1    
   143   72   73 2    
   144   72   74 am   BACKBONE|DICT|INTERRES
   145   74   75 1    
   146   74  195 1    
   147   75   76 1    
   148   75   77 1    
   149   75  196 1    
   150   76  197 1    
   151   76  198 1    
   152   76  199 1    
   153   77   78 2    
   154   77   79 am   BACKBONE|DICT|INTERRES
   155   79   80 1    
   156   79  200 1    
   157   80   81 1    
   158   80   82 1    
   159   80  201 1    
   160   81  202 1    
   161   81  203 1    
   162   81  204 1    
   163   82   83 2    
   164   82   84 am   BACKBONE|DICT|INTERRES
   165   84   85 1    
   166   84  205 1    
   167   85   86 1    
   168   85   87 1    
   169   85  206 1    
   170   86  207 1    
   171   86  208 1    
   172   86  209 1    
   173   87   88 2    
   174   87   89 am   BACKBONE|DICT|INTERRES
   175   89   90 1    
   176   89  210 1    
   177   90   91 1    
   178   90   92 1    
   179   90  211 1    
   180   91  212 1    
   181   91  213 1    
   182   91  214 1    
   183   92   93 2    
   184   92   94 am   BACKBONE|DICT|INTERRES
   185   94   95 1    
   186   94  215 1    
   187   95   96 1    
   188   95   97 1    
   189   95  216 1    
   190   96  217 1    
   191   96  218 1    
   192   96  219 1    
   193   97   98 2    
   194   97   99 am   BACKBONE|DICT|INTERRES
   195   99  100 1    
   196   99  220 1    
   197  100  101 1    
   198  100  102 1    
   199  100  221 1    
   200  101  222 1    
   201  101  223 1    
   202  101  224 1    
   203  102  103 2    
   204  102  104 am   BACKBONE|DICT|INTERRES
   205  104  105 1    
   206  104  225 1    
   207  105  106 1    
   208  105  107 1    
   209  105  226 1    
   210  106  227 1    
   211  106  228 1    
   212  106  229 1    
   213  107  108 2    
   214  107  109 am   BACKBONE|DICT|INTERRES
   215  109  110 1    
   216  109  230 1    
   217  110  111 1    
   218  110  112 1    
   219  110  231 1    
   220  111  232 1    
   221  111  233 1    
   222  111  234 1    
   223  112  113 2    
   224  112  114 am   BACKBONE|DICT|INTERRES
   225  114  115 1    
   226  114  235 1    
   227  115  116 1    
   228  115  117 1    
   229  115  236 1    
   230  116  237 1    
   231  116  238 1    
   232  116  239 1    
   233  117  118 2    
   234  117  119 am   BACKBONE|DICT|INTERRES
   235  119  120 1    
   236  119  240 1    
   237  120  121 1    
   238  120  124 1    
   239  120  241 1    
   240  121  122 am   BACKBONE|DICT|INTERRES
   241  121  123 2    
   242  122  242 1    
   243  122  243 1    
   244  124  125 1    
   245  124  244 1    
   246  124  245 1    
   247  125  126 1    
   248  126  246 1    
   249  126  247 1    
@<TRIPOS>SUBSTRUCTURE
     1 UNK         1 GROUP             0       ****    0 ROOT    
