@<TRIPOS>MOLECULE
3R540
247   249    1
SMALL
USER_CHARGES


@<TRIPOS>ATOM
      1 CA          5.9912  -14.5740  -45.7139 C.3       0 UNK        -0.1800 
      2 C           4.6078  -13.9441  -45.6868 C.2       0 UNK         0.5000 
      3 O           4.1027  -13.6278  -44.6083 O.2       0 UNK        -0.5000 
      4 N           3.9830  -13.7706  -46.8592 N.am      1 UNK        -0.5000 
      5 CA          2.6818  -13.1075  -47.0167 C.3       1 UNK         0.1400 
      6 C6          2.0766  -13.3108  -48.4262 C.3       23 UNK        -0.0398 
      7 S7          1.4806  -15.0159  -48.6836 S.3       23 UNK        -0.2404 
      8 C8         -0.1824  -14.6823  -49.3673 C.3       23 UNK        -0.0205 
      9 C9         -0.9969  -15.9333  -49.6901 C.ar      23 UNK        -0.0193 
     10 C10        -2.3785  -15.9360  -49.4673 C.ar      23 UNK        -0.1150 
     11 C11        -3.1629  -17.0450  -49.8039 C.ar      23 UNK        -0.0193 
     12 C12        -2.5423  -18.1679  -50.3674 C.ar      23 UNK        -0.1150 
     13 C13        -1.1656  -18.1796  -50.6007 C.ar      23 UNK        -0.0193 
     14 C14        -0.4014  -17.0597  -50.2665 C.ar      23 UNK        -0.1150 
     15 C15        -0.4982  -19.3881  -51.2368 C.3       23 UNK        -0.0205 
     16 S16         0.2571  -20.4688  -49.9897 S.3       23 UNK        -0.2404 
     17 C17        -1.1943  -21.3874  -49.3752 C.3       23 UNK        -0.0398 
     18 CA         -0.7574  -22.4891  -48.3853 C.3       11 UNK         0.1400 
     19 N          -0.1284  -21.9341  -47.1875 N.am      11 UNK        -0.5000 
     20 C           0.6402  -22.6300  -46.3432 C.2       10 UNK         0.5000 
     21 O           0.8936  -23.8273  -46.4746 O.2       10 UNK        -0.5000 
     22 CA          1.1798  -21.8570  -45.1296 C.3       10 UNK         0.1400 
     23 CB          2.4261  -21.0493  -45.5153 C.3       10 UNK        -0.1800 
     24 N           0.1702  -20.9665  -44.5517 N.am      10 UNK        -0.5000 
     25 C          -0.9082  -21.4135  -43.8923 C.2       9 UNK         0.5000 
     26 O          -1.1593  -22.6082  -43.7279 O.2       9 UNK        -0.5000 
     27 CA         -1.8863  -20.3602  -43.3446 C.3       9 UNK         0.1400 
     28 CB         -1.3403  -19.7430  -42.0481 C.3       9 UNK        -0.1800 
     29 N          -2.2184  -19.2854  -44.2788 N.am      9 UNK        -0.5000 
     30 C          -2.6964  -19.4178  -45.5215 C.2       8 UNK         0.5000 
     31 O          -2.8134  -20.4966  -46.0970 O.2       8 UNK        -0.5000 
     32 CA         -3.1108  -18.1329  -46.2599 C.3       8 UNK         0.1400 
     33 CB         -4.4986  -17.6481  -45.8003 C.3       8 UNK        -0.1800 
     34 N          -2.1125  -17.0615  -46.2035 N.am      8 UNK        -0.5000 
     35 C          -1.6918  -16.3580  -45.1448 C.2       7 UNK         0.5000 
     36 O          -2.1475  -16.4645  -44.0042 O.2       7 UNK        -0.5000 
     37 CA         -0.5046  -15.4184  -45.4057 C.3       7 UNK         0.1400 
     38 CB         -0.8057  -13.9974  -44.9020 C.3       7 UNK        -0.1800 
     39 N           0.7467  -15.8893  -44.8067 N.am      7 UNK        -0.5000 
     40 C           1.2779  -17.1225  -44.8712 C.2       6 UNK         0.5000 
     41 O           0.7421  -18.0925  -45.4097 O.2       6 UNK        -0.5000 
     42 CA          2.6668  -17.3091  -44.2367 C.3       6 UNK         0.1400 
     43 CB          3.7303  -17.4700  -45.3343 C.3       6 UNK        -0.1800 
     44 N           3.0416  -16.1911  -43.3660 N.am      6 UNK        -0.5000 
     45 C           2.8058  -16.1547  -42.0475 C.2       5 UNK         0.5000 
     46 O           2.2402  -17.0532  -41.4241 O.2       5 UNK        -0.5000 
     47 CA          3.2700  -14.8926  -41.3086 C.3       5 UNK         0.1400 
     48 CB          4.8014  -14.8728  -41.1720 C.3       5 UNK        -0.1800 
     49 N           2.8425  -13.6903  -42.0169 N.am      5 UNK        -0.5000 
     50 C           1.7410  -12.9809  -41.7399 C.2       4 UNK         0.5000 
     51 O           0.9256  -13.3001  -40.8734 O.2       4 UNK        -0.5000 
     52 CA          1.5233  -11.6974  -42.5729 C.3       4 UNK         0.1400 
     53 CB          0.6707  -10.6395  -41.8429 C.3       4 UNK        -0.1800 
     54 N           2.7767  -11.1165  -43.0680 N.am      4 UNK        -0.5000 
     55 C           3.8040  -10.6385  -42.3459 C.2       3 UNK         0.5000 
     56 O           3.7871  -10.5241  -41.1200 O.2       3 UNK        -0.5000 
     57 CA          5.0887  -10.2635  -43.1133 C.3       3 UNK         0.1400 
     58 CB          6.2232  -11.2403  -42.7606 C.3       3 UNK        -0.1800 
     59 N           4.9047  -10.2783  -44.5649 N.am      3 UNK        -0.5000 
     60 C           4.4070   -9.2669  -45.2886 C.2       2 UNK         0.5000 
     61 O           4.1172   -8.1658  -44.8204 O.2       2 UNK        -0.5000 
     62 CA          4.1673   -9.5483  -46.7852 C.3       2 UNK         0.1400 
     63 CB          5.3812   -9.1070  -47.6169 C.3       2 UNK        -0.1800 
     64 N           3.8795  -10.9587  -47.0683 N.am      2 UNK        -0.5000 
     65 C           2.7708  -11.6059  -46.6782 C.2       1 UNK         0.5000 
     66 O           1.8651  -11.0785  -46.0336 O.2       1 UNK        -0.5000 
     67 C          -1.9185  -23.4341  -48.0265 C.2       11 UNK         0.5000 
     68 O          -2.1236  -24.4236  -48.7279 O.2       11 UNK        -0.5000 
     69 N          -2.6419  -23.1420  -46.9381 N.am      12 UNK        -0.5000 
     70 CA         -3.6839  -23.9963  -46.3733 C.3       12 UNK         0.1400 
     71 CB         -4.4839  -23.2144  -45.3215 C.3       12 UNK        -0.1800 
     72 C          -3.1050  -25.2909  -45.7807 C.2       12 UNK         0.5000 
     73 O          -3.6537  -26.3633  -46.0323 O.2       12 UNK        -0.5000 
     74 N          -1.9796  -25.1809  -45.0583 N.am      13 UNK        -0.5000 
     75 CA         -1.2272  -26.3165  -44.5162 C.3       13 UNK         0.1400 
     76 CB         -0.1204  -25.8033  -43.5830 C.3       13 UNK        -0.1800 
     77 C          -0.6408  -27.2253  -45.6146 C.2       13 UNK         0.5000 
     78 O          -0.6410  -28.4468  -45.4591 O.2       13 UNK        -0.5000 
     79 N          -0.1915  -26.6158  -46.7201 N.am      14 UNK        -0.5000 
     80 CA          0.2795  -27.3023  -47.9253 C.3       14 UNK         0.1400 
     81 CB          1.1132  -26.3143  -48.7569 C.3       14 UNK        -0.1800 
     82 C          -0.8564  -27.8937  -48.7882 C.2       14 UNK         0.5000 
     83 O          -0.5678  -28.6678  -49.7014 O.2       14 UNK        -0.5000 
     84 N          -2.1097  -27.4997  -48.5110 N.am      15 UNK        -0.5000 
     85 CA         -3.3370  -27.8033  -49.2588 C.3       15 UNK         0.1400 
     86 CB         -3.6574  -29.3116  -49.2137 C.3       15 UNK        -0.1800 
     87 C          -3.3343  -27.2263  -50.6931 C.2       15 UNK         0.5000 
     88 O          -3.9941  -27.7669  -51.5821 O.2       15 UNK        -0.5000 
     89 N          -2.5952  -26.1279  -50.8855 N.am      16 UNK        -0.5000 
     90 CA         -2.4461  -25.4069  -52.1463 C.3       16 UNK         0.1400 
     91 CB         -1.0112  -24.8633  -52.2311 C.3       16 UNK        -0.1800 
     92 C          -3.4516  -24.2512  -52.2724 C.2       16 UNK         0.5000 
     93 O          -3.8142  -23.9007  -53.3950 O.2       16 UNK        -0.5000 
     94 N          -3.8877  -23.6939  -51.1294 N.am      17 UNK        -0.5000 
     95 CA         -4.7270  -22.4938  -50.9983 C.3       17 UNK         0.1400 
     96 CB         -5.1118  -22.3064  -49.5224 C.3       17 UNK        -0.1800 
     97 C          -5.9919  -22.4719  -51.8747 C.2       17 UNK         0.5000 
     98 O          -6.3461  -21.4179  -52.4057 O.2       17 UNK        -0.5000 
     99 N          -6.6308  -23.6398  -52.0207 N.am      18 UNK        -0.5000 
    100 CA        -7.8279  -23.8467  -52.8350 C.3       18 UNK         0.1400 
    101 CB        -8.3965  -25.2421  -52.5354 C.3       18 UNK        -0.1800 
    102 C         -7.5887  -23.6752  -54.3481 C.2       18 UNK         0.5000 
    103 O         -8.5280  -23.3255  -55.0640 O.2       18 UNK        -0.5000 
    104 N         -6.3532  -23.9160  -54.8092 N.am      19 UNK        -0.5000 
    105 CA        -5.9346  -23.6735  -56.1875 C.3       19 UNK         0.1400 
    106 CB        -4.7900  -24.6273  -56.5671 C.3       19 UNK        -0.1800 
    107 C         -5.5228  -22.2046  -56.3689 C.2       19 UNK         0.5000 
    108 O         -6.0076  -21.5513  -57.2938 O.2       19 UNK        -0.5000 
    109 N         -4.6653  -21.7052  -55.4694 N.am      20 UNK        -0.5000 
    110 CA        -4.1949  -20.3237  -55.4250 C.3       20 UNK         0.1400 
    111 CB        -3.2464  -20.0413  -56.6088 C.3       20 UNK        -0.1800 
    112 C         -3.4619  -20.0813  -54.0932 C.2       20 UNK         0.5000 
    113 O         -2.9026  -21.0258  -53.5407 O.2       20 UNK        -0.5000 
    114 N         -3.3953  -18.8490  -53.5734 N.am      21 UNK        -0.5000 
    115 CA        -4.0295  -17.6251  -54.0685 C.3       21 UNK         0.1400 
    116 CB        -3.0916  -16.4469  -53.7574 C.3       21 UNK        -0.1800 
    117 C         -5.4160  -17.3793  -53.4405 C.2       21 UNK         0.5000 
    118 O         -6.1091  -16.4600  -53.8773 O.2       21 UNK        -0.5000 
    119 N         -5.7843  -18.1622  -52.4163 N.am      22 UNK        -0.5000 
    120 CA        -7.0141  -17.9680  -51.6313 C.3       22 UNK         0.1400 
    121 C         -8.3016  -18.3533  -52.4114 C.2       22 UNK         0.5000 
    122 N         -8.3040  -19.4686  -53.1303 N.am      22 UNK        -0.7600 
    123 O         -9.2981  -17.6372  -52.3655 O.2       22 UNK        -0.5000 
    124 C124       -6.9778  -18.7003  -50.2618 C.3       23 UNK        -0.0398 
    125 S125       -5.4524  -18.5984  -49.2475 S.3       23 UNK        -0.2404 
    126 C126       -4.6768  -16.9767  -49.5955 C.3       23 UNK        -0.0205 
    127 H127        6.7427  -13.8336  -45.4405 H         1 UNK         0.0600 
    128 H128        6.2375  -14.9669  -46.7004 H         1 UNK         0.0600 
    129 H129        6.0456  -15.3935  -44.9976 H         1 UNK         0.0600 
    130 H130        4.4252  -14.0852  -47.7113 H         1 UNK         0.3000 
    131 H131        2.0004  -13.5519  -46.2898 H         1 UNK         0.0600 
    132 H132        1.2404  -12.6265  -48.5833 H         1 UNK         0.0800 
    133 H133        2.8064  -13.0720  -49.2015 H         1 UNK         0.0800 
    134 H134       -0.7284  -14.0566  -48.6594 H         1 UNK         0.0800 
    135 H135       -0.0774  -14.0985  -50.2828 H         1 UNK         0.0800 
    136 H136       -2.8524  -15.0591  -49.0482 H         1 UNK         0.1150 
    137 H137       -3.1268  -19.0355  -50.6353 H         1 UNK         0.1150 
    138 H138        0.6612  -17.0671  -50.4641 H         1 UNK         0.1150 
    139 H139       -1.2064  -19.9614  -51.8338 H         1 UNK         0.0800 
    140 H140        0.2774  -19.0532  -51.9271 H         1 UNK         0.0800 
    141 H141       -1.7094  -21.8219  -50.2338 H         1 UNK         0.0800 
    142 H142       -1.8920  -20.6927  -48.9035 H         1 UNK         0.0800 
    143 H143       -0.0108  -23.1042  -48.8924 H         1 UNK         0.0600 
    144 H144       -0.3106  -20.9612  -46.9887 H         1 UNK         0.3000 
    145 H145        1.4705  -22.5864  -44.3704 H         1 UNK         0.0600 
    146 H146        3.2047  -21.7006  -45.9143 H         1 UNK         0.0600 
    147 H147        2.8449  -20.5338  -44.6514 H         1 UNK         0.0600 
    148 H148        2.1990  -20.3048  -46.2792 H         1 UNK         0.0600 
    149 H149        0.2849  -19.9695  -44.7051 H         1 UNK         0.3000 
    150 H150       -2.8188  -20.8762  -43.1083 H         1 UNK         0.0600 
    151 H151       -0.4370  -19.1586  -42.2303 H         1 UNK         0.0600 
    152 H152       -1.0920  -20.5158  -41.3193 H         1 UNK         0.0600 
    153 H153       -2.0756  -19.0846  -41.5850 H         1 UNK         0.0600 
    154 H154       -2.1430  -18.3357  -43.9242 H         1 UNK         0.3000 
    155 H155       -3.1878  -18.4013  -47.3131 H         1 UNK         0.0600 
    156 H156       -4.5212  -17.4133  -44.7360 H         1 UNK         0.0600 
    157 H157       -5.2528  -18.4154  -45.9792 H         1 UNK         0.0600 
    158 H158       -4.8064  -16.7569  -46.3461 H         1 UNK         0.0600 
    159 H159       -1.6129  -16.9262  -47.0716 H         1 UNK         0.3000 
    160 H160       -0.3466  -15.3623  -46.4819 H         1 UNK         0.0600 
    161 H161       -0.8650  -13.9603  -43.8134 H         1 UNK         0.0600 
    162 H162       -1.7583  -13.6383  -45.2939 H         1 UNK         0.0600 
    163 H163       -0.0434  -13.2895  -45.2235 H         1 UNK         0.0600 
    164 H164        1.2741  -15.2001  -44.2947 H         1 UNK         0.3000 
    165 H165        2.6423  -18.2336  -43.6562 H         1 UNK         0.0600 
    166 H166        4.7307  -17.5559  -44.9103 H         1 UNK         0.0600 
    167 H167        3.5521  -18.3694  -45.9227 H         1 UNK         0.0600 
    168 H168        3.7230  -16.6327  -46.0309 H         1 UNK         0.0600 
    169 H169        3.5013  -15.3991  -43.8005 H         1 UNK         0.3000 
    170 H170        2.8421  -14.9082  -40.3038 H         1 UNK         0.0600 
    171 H171        5.1317  -14.0035  -40.6029 H         1 UNK         0.0600 
    172 H172        5.2974  -14.8411  -42.1432 H         1 UNK         0.0600 
    173 H173        5.1587  -15.7601  -40.6480 H         1 UNK         0.0600 
    174 H174        3.4229  -13.3923  -42.7949 H         1 UNK         0.3000 
    175 H175        0.9688  -12.0054  -43.4589 H         1 UNK         0.0600 
    176 H176       -0.3239  -11.0265  -41.6187 H         1 UNK         0.0600 
    177 H177        1.1219  -10.3342  -40.8987 H         1 UNK         0.0600 
    178 H178        0.5394   -9.7484  -42.4568 H         1 UNK         0.0600 
    179 H179        2.8858  -11.1444  -44.0733 H         1 UNK         0.3000 
    180 H180        5.3855   -9.2620  -42.7948 H         1 UNK         0.0600 
    181 H181        5.9747  -12.2654  -43.0381 H         1 UNK         0.0600 
    182 H182        6.4283  -11.2329  -41.6894 H         1 UNK         0.0600 
    183 H183        7.1491  -10.9700  -43.2685 H         1 UNK         0.0600 
    184 H184        5.1050  -11.1497  -45.0328 H         1 UNK         0.3000 
    185 H185        3.3043   -8.9563  -47.0977 H         1 UNK         0.0600 
    186 H186        5.6077   -8.0533  -47.4484 H         1 UNK         0.0600 
    187 H187        6.2741   -9.6794  -47.3623 H         1 UNK         0.0600 
    188 H188        5.1948   -9.2309  -48.6838 H         1 UNK         0.0600 
    189 H189        4.5827  -11.4694  -47.5825 H         1 UNK         0.3000 
    190 H190       -2.4840  -22.2524  -46.4691 H         1 UNK         0.3000 
    191 H191       -4.3666  -24.2767  -47.1776 H         1 UNK         0.0600 
    192 H192       -4.9581  -22.3373  -45.7624 H         1 UNK         0.0600 
    193 H193       -5.2744  -23.8314  -44.8927 H         1 UNK         0.0600 
    194 H194       -3.8496  -22.8744  -44.5025 H         1 UNK         0.0600 
    195 H195       -1.6132  -24.2562  -44.8561 H         1 UNK         0.3000 
    196 H196       -1.9174  -26.9199  -43.9230 H         1 UNK         0.0600 
    197 H197        0.4427  -26.6318  -43.1516 H         1 UNK         0.0600 
    198 H198       -0.5381  -25.2286  -42.7562 H         1 UNK         0.0600 
    199 H199        0.5876  -25.1634  -44.1098 H         1 UNK         0.0600 
    200 H200       -0.1491  -25.6023  -46.7300 H         1 UNK         0.3000 
    201 H201        0.9275  -28.1278  -47.6239 H         1 UNK         0.0600 
    202 H202        1.5369  -26.8007  -49.6363 H         1 UNK         0.0600 
    203 H203        1.9439  -25.9115  -48.1772 H         1 UNK         0.0600 
    204 H204        0.5100  -25.4761  -49.1061 H         1 UNK         0.0600 
    205 H205       -2.2338  -26.8635  -47.7342 H         1 UNK         0.3000 
    206 H206       -4.1396  -27.2844  -48.7331 H         1 UNK         0.0600 
    207 H207       -3.6516  -29.6843  -48.1894 H         1 UNK         0.0600 
    208 H208       -4.6469  -29.5133  -49.6254 H         1 UNK         0.0600 
    209 H209       -2.9402  -29.8974  -49.7890 H         1 UNK         0.0600 
    210 H210       -2.1515  -25.7097  -50.0721 H         1 UNK         0.3000 
    211 H211       -2.6064  -26.0877  -52.9849 H         1 UNK         0.0600 
    212 H212       -0.7918  -24.1727  -51.4157 H         1 UNK         0.0600 
    213 H213       -0.8514  -24.3270  -53.1676 H         1 UNK         0.0600 
    214 H214       -0.2813  -25.6720  -52.1895 H         1 UNK         0.0600 
    215 H215       -3.5220  -24.0755  -50.2663 H         1 UNK         0.3000 
    216 H216       -4.1214  -21.6372  -51.2961 H         1 UNK         0.0600 
    217 H217       -5.8825  -21.5455  -49.4023 H         1 UNK         0.0600 
    218 H218       -4.2592  -21.9805  -48.9297 H         1 UNK         0.0600 
    219 H219       -5.5012  -23.2268  -49.0871 H         1 UNK         0.0600 
    220 H220       -6.2506  -24.4521  -51.5581 H         1 UNK         0.3000 
    221 H221       -8.5691  -23.1029  -52.5349 H         1 UNK         0.0600 
    222 H222       -7.6860  -26.0291  -52.7918 H         1 UNK         0.0600 
    223 H223       -8.6496  -25.3474  -51.4803 H         1 UNK         0.0600 
    224 H224       -9.3081  -25.4237  -53.1065 H         1 UNK         0.0600 
    225 H225       -5.6123  -24.1269  -54.1483 H         1 UNK         0.3000 
    226 H226       -6.7697  -23.8783  -56.8611 H         1 UNK         0.0600 
    227 H227       -4.5045  -24.4918  -57.6109 H         1 UNK         0.0600 
    228 H228       -3.8982  -24.4617  -55.9626 H         1 UNK         0.0600 
    229 H229       -5.0886  -25.6684  -56.4440 H         1 UNK         0.0600 
    230 H230       -4.3085  -22.2980  -54.7238 H         1 UNK         0.3000 
    231 H231       -5.0730  -19.6793  -55.4814 H         1 UNK         0.0600 
    232 H232       -2.4181  -20.7506  -56.6310 H         1 UNK         0.0600 
    233 H233       -2.8151  -19.0419  -56.5460 H         1 UNK         0.0600 
    234 H234       -3.7645  -20.1039  -57.5653 H         1 UNK         0.0600 
    235 H235       -2.8580  -18.7252  -52.7298 H         1 UNK         0.3000 
    236 H236       -4.1555  -17.6594  -55.1506 H         1 UNK         0.0600 
    237 H237       -2.1107  -16.5931  -54.2101 H         1 UNK         0.0600 
    238 H238       -3.4922  -15.5118  -54.1508 H         1 UNK         0.0600 
    239 H239       -2.9479  -16.3141  -52.6847 H         1 UNK         0.0600 
    240 H240       -5.1901  -18.9271  -52.1361 H         1 UNK         0.3000 
    241 H241       -7.1002  -16.9004  -51.4211 H         1 UNK         0.0600 
    242 H242       -9.1284  -19.7279  -53.6473 H         1 UNK         0.3800 
    243 H243       -7.5158  -20.1092  -53.0760 H         1 UNK         0.3800 
    244 H244       -7.1736  -19.7634  -50.4072 H         1 UNK         0.0800 
    245 H245       -7.8000  -18.3400  -49.6412 H         1 UNK         0.0800 
    246 H246       -4.9015  -16.3211  -48.7536 H         1 UNK         0.0800 
    247 H247       -5.1100  -16.4916  -50.4658 H         1 UNK         0.0800 
@<TRIPOS>BOND
     1    1    2 1    
     2    1  127 1    
     3    1  128 1    
     4    1  129 1    
     5    2    3 2    
     6    2    4 am   BACKBONE|DICT|INTERRES
     7    4    5 1    
     8    4  130 1    
     9    5    6 1    
    10    5   65 1    
    11    5  131 1    
    12    6    7 1    
    13    6  132 1    
    14    6  133 1    
    15    7    8 1    
    16    8    9 1    
    17    8  134 1    
    18    8  135 1    
    19    9   10 ar   
    20    9   14 ar   
    21   10   11 ar   
    22   10  136 1    
    23   11   12 ar   
    24   11  126 1    
    25   12   13 ar   
    26   12  137 1    
    27   13   14 ar   
    28   13   15 1    
    29   14  138 1    
    30   15   16 1    
    31   15  139 1    
    32   15  140 1    
    33   16   17 1    
    34   17   18 1    
    35   17  141 1    
    36   17  142 1    
    37   18   19 1    
    38   18   67 1    
    39   18  143 1    
    40   19   20 am   BACKBONE|DICT|INTERRES
    41   19  144 1    
    42   20   21 2    
    43   20   22 1    
    44   22   23 1    
    45   22   24 1    
    46   22  145 1    
    47   23  146 1    
    48   23  147 1    
    49   23  148 1    
    50   24   25 am   BACKBONE|DICT|INTERRES
    51   24  149 1    
    52   25   26 2    
    53   25   27 1    
    54   27   28 1    
    55   27   29 1    
    56   27  150 1    
    57   28  151 1    
    58   28  152 1    
    59   28  153 1    
    60   29   30 am   BACKBONE|DICT|INTERRES
    61   29  154 1    
    62   30   31 2    
    63   30   32 1    
    64   32   33 1    
    65   32   34 1    
    66   32  155 1    
    67   33  156 1    
    68   33  157 1    
    69   33  158 1    
    70   34   35 am   BACKBONE|DICT|INTERRES
    71   34  159 1    
    72   35   36 2    
    73   35   37 1    
    74   37   38 1    
    75   37   39 1    
    76   37  160 1    
    77   38  161 1    
    78   38  162 1    
    79   38  163 1    
    80   39   40 am   BACKBONE|DICT|INTERRES
    81   39  164 1    
    82   40   41 2    
    83   40   42 1    
    84   42   43 1    
    85   42   44 1    
    86   42  165 1    
    87   43  166 1    
    88   43  167 1    
    89   43  168 1    
    90   44   45 am   BACKBONE|DICT|INTERRES
    91   44  169 1    
    92   45   46 2    
    93   45   47 1    
    94   47   48 1    
    95   47   49 1    
    96   47  170 1    
    97   48  171 1    
    98   48  172 1    
    99   48  173 1    
   100   49   50 am   BACKBONE|DICT|INTERRES
   101   49  174 1    
   102   50   51 2    
   103   50   52 1    
   104   52   53 1    
   105   52   54 1    
   106   52  175 1    
   107   53  176 1    
   108   53  177 1    
   109   53  178 1    
   110   54   55 am   BACKBONE|DICT|INTERRES
   111   54  179 1    
   112   55   56 2    
   113   55   57 1    
   114   57   58 1    
   115   57   59 1    
   116   57  180 1    
   117   58  181 1    
   118   58  182 1    
   119   58  183 1    
   120   59   60 am   BACKBONE|DICT|INTERRES
   121   59  184 1    
   122   60   61 2    
   123   60   62 1    
   124   62   63 1    
   125   62   64 1    
   126   62  185 1    
   127   63  186 1    
   128   63  187 1    
   129   63  188 1    
   130   64   65 am   BACKBONE|DICT|INTERRES
   131   64  189 1    
   132   65   66 2    
   133   67   68 2    
   134   67   69 am   BACKBONE|DICT|INTERRES
   135   69   70 1    
   136   69  190 1    
   137   70   71 1    
   138   70   72 1    
   139   70  191 1    
   140   71  192 1    
   141   71  193 1    
   142   71  194 1    
   143   72   73 2    
   144   72   74 am   BACKBONE|DICT|INTERRES
   145   74   75 1    
   146   74  195 1    
   147   75   76 1    
   148   75   77 1    
   149   75  196 1    
   150   76  197 1    
   151   76  198 1    
   152   76  199 1    
   153   77   78 2    
   154   77   79 am   BACKBONE|DICT|INTERRES
   155   79   80 1    
   156   79  200 1    
   157   80   81 1    
   158   80   82 1    
   159   80  201 1    
   160   81  202 1    
   161   81  203 1    
   162   81  204 1    
   163   82   83 2    
   164   82   84 am   BACKBONE|DICT|INTERRES
   165   84   85 1    
   166   84  205 1    
   167   85   86 1    
   168   85   87 1    
   169   85  206 1    
   170   86  207 1    
   171   86  208 1    
   172   86  209 1    
   173   87   88 2    
   174   87   89 am   BACKBONE|DICT|INTERRES
   175   89   90 1    
   176   89  210 1    
   177   90   91 1    
   178   90   92 1    
   179   90  211 1    
   180   91  212 1    
   181   91  213 1    
   182   91  214 1    
   183   92   93 2    
   184   92   94 am   BACKBONE|DICT|INTERRES
   185   94   95 1    
   186   94  215 1    
   187   95   96 1    
   188   95   97 1    
   189   95  216 1    
   190   96  217 1    
   191   96  218 1    
   192   96  219 1    
   193   97   98 2    
   194   97   99 am   BACKBONE|DICT|INTERRES
   195   99  100 1    
   196   99  220 1    
   197  100  101 1    
   198  100  102 1    
   199  100  221 1    
   200  101  222 1    
   201  101  223 1    
   202  101  224 1    
   203  102  103 2    
   204  102  104 am   BACKBONE|DICT|INTERRES
   205  104  105 1    
   206  104  225 1    
   207  105  106 1    
   208  105  107 1    
   209  105  226 1    
   210  106  227 1    
   211  106  228 1    
   212  106  229 1    
   213  107  108 2    
   214  107  109 am   BACKBONE|DICT|INTERRES
   215  109  110 1    
   216  109  230 1    
   217  110  111 1    
   218  110  112 1    
   219  110  231 1    
   220  111  232 1    
   221  111  233 1    
   222  111  234 1    
   223  112  113 2    
   224  112  114 am   BACKBONE|DICT|INTERRES
   225  114  115 1    
   226  114  235 1    
   227  115  116 1    
   228  115  117 1    
   229  115  236 1    
   230  116  237 1    
   231  116  238 1    
   232  116  239 1    
   233  117  118 2    
   234  117  119 am   BACKBONE|DICT|INTERRES
   235  119  120 1    
   236  119  240 1    
   237  120  121 1    
   238  120  124 1    
   239  120  241 1    
   240  121  122 am   BACKBONE|DICT|INTERRES
   241  121  123 2    
   242  122  242 1    
   243  122  243 1    
   244  124  125 1    
   245  124  244 1    
   246  124  245 1    
   247  125  126 1    
   248  126  246 1    
   249  126  247 1    
@<TRIPOS>SUBSTRUCTURE
     1 UNK         1 GROUP             0       ****    0 ROOT    
