@<TRIPOS>MOLECULE
3R540
247   249    1
SMALL
USER_CHARGES


@<TRIPOS>ATOM
      1 CA          4.4711  -18.2591  -48.5554 C.3       0 UNK        -0.1800 
      2 C           4.2464  -16.8074  -48.9538 C.2       0 UNK         0.5000 
      3 O           5.2106  -16.0732  -49.1664 O.2       0 UNK        -0.5000 
      4 N           2.9747  -16.3938  -49.0318 N.am      1 UNK        -0.5000 
      5 CA          2.4880  -15.0578  -49.4204 C.3       1 UNK         0.1400 
      6 C6          2.9059  -14.6106  -50.8506 C.3       23 UNK        -0.0398 
      7 S7          2.6738  -15.8655  -52.1572 S.3       23 UNK        -0.2404 
      8 C8          0.8819  -15.7751  -52.4813 C.3       23 UNK        -0.0205 
      9 C9          0.0647  -16.6308  -51.5208 C.ar      23 UNK        -0.0193 
     10 C10        -1.0167  -16.0803  -50.8246 C.ar      23 UNK        -0.1150 
     11 C11        -1.7973  -16.8782  -49.9819 C.ar      23 UNK        -0.0193 
     12 C12        -1.4796  -18.2277  -49.8223 C.ar      23 UNK        -0.1150 
     13 C13        -0.4088  -18.7921  -50.5171 C.ar      23 UNK        -0.0193 
     14 C14         0.3567  -17.9901  -51.3661 C.ar      23 UNK        -0.1150 
     15 C15        -0.1094  -20.2765  -50.3951 C.3       23 UNK        -0.0205 
     16 S16         1.2046  -20.6066  -49.1849 S.3       23 UNK        -0.2404 
     17 C17         0.3154  -20.4086  -47.6069 C.3       23 UNK        -0.0398 
     18 CA          0.1015  -21.7502  -46.8662 C.3       11 UNK         0.1400 
     19 N           0.1651  -21.5679  -45.4143 N.am      11 UNK        -0.5000 
     20 C           0.2799  -22.5512  -44.5112 C.2       10 UNK         0.5000 
     21 O           0.1503  -23.7427  -44.7983 O.2       10 UNK        -0.5000 
     22 CA          0.5985  -22.1320  -43.0592 C.3       10 UNK         0.1400 
     23 CB          1.3358  -23.2374  -42.2771 C.3       10 UNK        -0.1800 
     24 N           1.3265  -20.8591  -42.9722 N.am      10 UNK        -0.5000 
     25 C           2.5135  -20.5450  -43.5205 C.2       9 UNK         0.5000 
     26 O           3.2268  -21.3507  -44.1187 O.2       9 UNK        -0.5000 
     27 CA          2.9683  -19.0754  -43.4115 C.3       9 UNK         0.1400 
     28 CB          3.2618  -18.4760  -44.7997 C.3       9 UNK        -0.1800 
     29 N           1.9533  -18.2508  -42.7516 N.am      9 UNK        -0.5000 
     30 C           2.1061  -17.6495  -41.5658 C.2       8 UNK         0.5000 
     31 O           3.1514  -17.6668  -40.9150 O.2       8 UNK        -0.5000 
     32 CA          0.8771  -16.9208  -40.9930 C.3       8 UNK         0.1400 
     33 CB          0.8770  -15.4458  -41.4234 C.3       8 UNK        -0.1800 
     34 N          -0.4058  -17.5359  -41.3514 N.am      8 UNK        -0.5000 
     35 C          -0.8298  -18.7289  -40.9063 C.2       7 UNK         0.5000 
     36 O          -0.1246  -19.5018  -40.2588 O.2       7 UNK        -0.5000 
     37 CA         -2.2737  -19.1373  -41.2394 C.3       7 UNK         0.1400 
     38 CB         -3.2580  -18.4398  -40.2877 C.3       7 UNK        -0.1800 
     39 N          -2.6198  -18.7942  -42.6147 N.am      7 UNK        -0.5000 
     40 C          -2.7941  -19.6759  -43.6081 C.2       6 UNK         0.5000 
     41 O          -2.6972  -20.8969  -43.4858 O.2       6 UNK        -0.5000 
     42 CA         -3.0717  -19.0776  -45.0001 C.3       6 UNK         0.1400 
     43 CB         -4.5514  -18.6806  -45.1118 C.3       6 UNK        -0.1800 
     44 N          -2.2441  -17.9102  -45.3037 N.am      6 UNK        -0.5000 
     45 C          -0.9134  -17.8315  -45.1719 C.2       5 UNK         0.5000 
     46 O          -0.1904  -18.7739  -44.8467 O.2       5 UNK        -0.5000 
     47 CA         -0.2787  -16.4512  -45.3784 C.3       5 UNK         0.1400 
     48 CB          0.2199  -16.3162  -46.8195 C.3       5 UNK        -0.1800 
     49 N          -1.1296  -15.3008  -45.0598 N.am      5 UNK        -0.5000 
     50 C          -1.8011  -15.0714  -43.9226 C.2       4 UNK         0.5000 
     51 O          -1.9696  -15.9143  -43.0376 O.2       4 UNK        -0.5000 
     52 CA         -2.3049  -13.6268  -43.7289 C.3       4 UNK         0.1400 
     53 CB         -3.1673  -13.4690  -42.4640 C.3       4 UNK        -0.1800 
     54 N          -1.1686  -12.7061  -43.6440 N.am      4 UNK        -0.5000 
     55 C          -0.4373  -12.2741  -44.6806 C.2       3 UNK         0.5000 
     56 O          -0.7337  -12.5073  -45.8553 O.2       3 UNK        -0.5000 
     57 CA          0.8512  -11.4794  -44.3675 C.3       3 UNK         0.1400 
     58 CB          1.2343  -11.4651  -42.8695 C.3       3 UNK        -0.1800 
     59 N           1.9912  -11.9341  -45.1746 N.am      3 UNK        -0.5000 
     60 C           2.4926  -13.1769  -45.2329 C.2       2 UNK         0.5000 
     61 O           2.0506  -14.1365  -44.5992 O.2       2 UNK        -0.5000 
     62 CA          3.7110  -13.3842  -46.1458 C.3       2 UNK         0.1400 
     63 CB          4.8966  -13.9641  -45.3569 C.3       2 UNK        -0.1800 
     64 N           3.3773  -14.2976  -47.2339 N.am      2 UNK        -0.5000 
     65 C           2.7869  -13.9444  -48.3831 C.2       1 UNK         0.5000 
     66 O           2.4649  -12.7828  -48.6378 O.2       1 UNK        -0.5000 
     67 C          -1.1675  -22.4938  -47.3344 C.2       11 UNK         0.5000 
     68 O          -1.1321  -23.1641  -48.3675 O.2       11 UNK        -0.5000 
     69 N          -2.2400  -22.4356  -46.5321 N.am      12 UNK        -0.5000 
     70 CA         -3.4822  -23.1794  -46.7482 C.3       12 UNK         0.1400 
     71 CB         -4.5708  -22.6272  -45.8174 C.3       12 UNK        -0.1800 
     72 C          -3.3282  -24.7020  -46.5535 C.2       12 UNK         0.5000 
     73 O          -4.1692  -25.4521  -47.0480 O.2       12 UNK        -0.5000 
     74 N          -2.2695  -25.1305  -45.8532 N.am      13 UNK        -0.5000 
     75 CA         -1.9016  -26.5322  -45.6720 C.3       13 UNK         0.1400 
     76 CB         -1.6542  -26.7993  -44.1785 C.3       13 UNK        -0.1800 
     77 C          -0.6522  -26.8809  -46.4967 C.2       13 UNK         0.5000 
     78 O          -0.6186  -27.9420  -47.1204 O.2       13 UNK        -0.5000 
     79 N           0.3554  -25.9954  -46.4775 N.am      14 UNK        -0.5000 
     80 CA          1.6625  -26.2120  -47.0996 C.3       14 UNK         0.1400 
     81 CB          2.6595  -25.1696  -46.5703 C.3       14 UNK        -0.1800 
     82 C           1.6305  -26.2038  -48.6386 C.2       14 UNK         0.5000 
     83 O           2.3613  -26.9822  -49.2535 O.2       14 UNK        -0.5000 
     84 N           0.7933  -25.3408  -49.2284 N.am      15 UNK        -0.5000 
     85 CA          0.5810  -25.2534  -50.6743 C.3       15 UNK         0.1400 
     86 CB          0.8740  -23.8244  -51.1561 C.3       15 UNK        -0.1800 
     87 C          -0.8553  -25.6582  -51.0308 C.2       15 UNK         0.5000 
     88 O          -1.0499  -26.4195  -51.9786 O.2       15 UNK        -0.5000 
     89 N          -1.8274  -25.1455  -50.2598 N.am      16 UNK        -0.5000 
     90 CA         -3.2727  -25.3695  -50.3864 C.3       16 UNK         0.1400 
     91 CB         -3.6263  -26.8483  -50.1243 C.3       16 UNK        -0.1800 
     92 C          -3.8792  -24.8268  -51.6990 C.2       16 UNK         0.5000 
     93 O          -4.9438  -25.2825  -52.1203 O.2       16 UNK        -0.5000 
     94 N          -3.2069  -23.8452  -52.3090 N.am      17 UNK        -0.5000 
     95 CA         -3.6107  -23.1507  -53.5232 C.3       17 UNK         0.1400 
     96 CB         -3.2584  -23.9955  -54.7602 C.3       17 UNK        -0.1800 
     97 C          -2.8923  -21.7968  -53.5574 C.2       17 UNK         0.5000 
     98 O          -1.7924  -21.6773  -53.0125 O.2       17 UNK        -0.5000 
     99 N          -3.5282  -20.8126  -54.1965 N.am      18 UNK        -0.5000 
    100 CA        -3.0495  -19.4487  -54.4013 C.3       18 UNK         0.1400 
    101 CB        -3.0548  -18.6661  -53.0750 C.3       18 UNK        -0.1800 
    102 C         -3.9855  -18.7770  -55.4151 C.2       18 UNK         0.5000 
    103 O         -5.0648  -19.3094  -55.6919 O.2       18 UNK        -0.5000 
    104 N         -3.5971  -17.5938  -55.9069 N.am      19 UNK        -0.5000 
    105 CA        -4.3890  -16.7767  -56.8358 C.3       19 UNK         0.1400 
    106 CB        -3.5514  -15.5685  -57.2817 C.3       19 UNK        -0.1800 
    107 C         -5.7424  -16.3110  -56.2572 C.2       19 UNK         0.5000 
    108 O         -6.7059  -16.1623  -57.0092 O.2       19 UNK        -0.5000 
    109 N         -5.7911  -16.1217  -54.9318 N.am      20 UNK        -0.5000 
    110 CA        -6.9919  -15.7798  -54.1654 C.3       20 UNK         0.1400 
    111 CB        -6.6299  -14.6654  -53.1686 C.3       20 UNK        -0.1800 
    112 C         -7.6004  -17.0049  -53.4468 C.2       20 UNK         0.5000 
    113 O         -8.4926  -16.8302  -52.6166 O.2       20 UNK        -0.5000 
    114 N         -7.1033  -18.2150  -53.7553 N.am      21 UNK        -0.5000 
    115 CA        -7.4998  -19.5233  -53.2107 C.3       21 UNK         0.1400 
    116 CB        -8.9710  -19.8404  -53.5496 C.3       21 UNK        -0.1800 
    117 C         -7.1840  -19.7265  -51.7105 C.2       21 UNK         0.5000 
    118 O         -7.6689  -20.6868  -51.1112 O.2       21 UNK        -0.5000 
    119 N         -6.3593  -18.8441  -51.1356 N.am      22 UNK        -0.5000 
    120 CA        -5.9068  -18.8626  -49.7353 C.3       22 UNK         0.1400 
    121 C         -4.7464  -19.8548  -49.4236 C.2       22 UNK         0.5000 
    122 N         -4.2227  -20.5976  -50.3900 N.am      22 UNK        -0.7600 
    123 O         -4.3184  -19.9639  -48.2793 O.2       22 UNK        -0.5000 
    124 C124       -5.6250  -17.4249  -49.2212 C.3       23 UNK        -0.0398 
    125 S125       -4.4977  -16.4433  -50.2778 S.3       23 UNK        -0.2404 
    126 C126       -2.9972  -16.2943  -49.2569 C.3       23 UNK        -0.0205 
    127 H127        3.5436  -18.7438  -48.2494 H         1 UNK         0.0600 
    128 H128        5.1720  -18.3171  -47.7226 H         1 UNK         0.0600 
    129 H129        4.8872  -18.8177  -49.3937 H         1 UNK         0.0600 
    130 H130        2.2433  -17.0715  -48.8726 H         1 UNK         0.3000 
    131 H131        1.4017  -15.1479  -49.4235 H         1 UNK         0.0600 
    132 H132        3.9607  -14.3315  -50.8598 H         1 UNK         0.0800 
    133 H133        2.3608  -13.7117  -51.1434 H         1 UNK         0.0800 
    134 H134        0.6962  -16.1317  -53.4951 H         1 UNK         0.0800 
    135 H135        0.5563  -14.7341  -52.4595 H         1 UNK         0.0800 
    136 H136       -1.2670  -15.0368  -50.9538 H         1 UNK         0.1150 
    137 H137       -2.0868  -18.8448  -49.1780 H         1 UNK         0.1150 
    138 H138        1.1778  -18.4283  -51.9158 H         1 UNK         0.1150 
    139 H139       -1.0095  -20.8333  -50.1307 H         1 UNK         0.0800 
    140 H140        0.2054  -20.6600  -51.3667 H         1 UNK         0.0800 
    141 H141       -0.6221  -19.8682  -47.7344 H         1 UNK         0.0800 
    142 H142        0.9498  -19.7524  -47.0115 H         1 UNK         0.0800 
    143 H143        0.9409  -22.4016  -47.1125 H         1 UNK         0.0600 
    144 H144        0.2140  -20.6063  -45.0877 H         1 UNK         0.3000 
    145 H145       -0.3630  -21.9684  -42.5715 H         1 UNK         0.0600 
    146 H146        1.5482  -22.9222  -41.2556 H         1 UNK         0.0600 
    147 H147        0.7321  -24.1437  -42.2171 H         1 UNK         0.0600 
    148 H148        2.2808  -23.5062  -42.7501 H         1 UNK         0.0600 
    149 H149        0.8497  -20.1264  -42.4673 H         1 UNK         0.3000 
    150 H150        3.8985  -19.0769  -42.8402 H         1 UNK         0.0600 
    151 H151        4.0615  -19.0218  -45.3016 H         1 UNK         0.0600 
    152 H152        3.5798  -17.4362  -44.7203 H         1 UNK         0.0600 
    153 H153        2.3881  -18.5079  -45.4492 H         1 UNK         0.0600 
    154 H154        1.0584  -18.1963  -43.2218 H         1 UNK         0.3000 
    155 H155        0.9609  -16.9501  -39.9046 H         1 UNK         0.0600 
    156 H156        1.7896  -14.9439  -41.0995 H         1 UNK         0.0600 
    157 H157        0.0361  -14.9049  -40.9892 H         1 UNK         0.0600 
    158 H158        0.8191  -15.3434  -42.5064 H         1 UNK         0.0600 
    159 H159       -1.0400  -16.9555  -41.8960 H         1 UNK         0.3000 
    160 H160       -2.3585  -20.2147  -41.0814 H         1 UNK         0.0600 
    161 H161       -3.2309  -17.3551  -40.4018 H         1 UNK         0.0600 
    162 H162       -3.0251  -18.6683  -39.2469 H         1 UNK         0.0600 
    163 H163       -4.2807  -18.7690  -40.4719 H         1 UNK         0.0600 
    164 H164       -2.6542  -17.8049  -42.8380 H         1 UNK         0.3000 
    165 H165       -2.8558  -19.8379  -45.7514 H         1 UNK         0.0600 
    166 H166       -4.7963  -18.3570  -46.1215 H         1 UNK         0.0600 
    167 H167       -5.2047  -19.5208  -44.8749 H         1 UNK         0.0600 
    168 H168       -4.8041  -17.8681  -44.4294 H         1 UNK         0.0600 
    169 H169       -2.7367  -17.0650  -45.5491 H         1 UNK         0.3000 
    170 H170        0.5866  -16.3984  -44.7164 H         1 UNK         0.0600 
    171 H171        0.9064  -17.1227  -47.0783 H         1 UNK         0.0600 
    172 H172       -0.6036  -16.3384  -47.5310 H         1 UNK         0.0600 
    173 H173        0.7479  -15.3746  -46.9523 H         1 UNK         0.0600 
    174 H174       -1.0219  -14.5006  -45.6745 H         1 UNK         0.3000 
    175 H175       -2.9200  -13.3671  -44.5929 H         1 UNK         0.0600 
    176 H176       -4.0318  -14.1334  -42.4956 H         1 UNK         0.0600 
    177 H177       -2.6053  -13.7041  -41.5590 H         1 UNK         0.0600 
    178 H178       -3.5444  -12.4507  -42.3691 H         1 UNK         0.0600 
    179 H179       -0.8398  -12.4953  -42.7131 H         1 UNK         0.3000 
    180 H180        0.6513  -10.4502  -44.6686 H         1 UNK         0.0600 
    181 H181        1.4029  -12.4700  -42.4801 H         1 UNK         0.0600 
    182 H182        0.4584  -10.9952  -42.2640 H         1 UNK         0.0600 
    183 H183        2.1486  -10.8938  -42.7081 H         1 UNK         0.0600 
    184 H184        2.3970  -11.2315  -45.7765 H         1 UNK         0.3000 
    185 H185        4.0225  -12.4230  -46.5605 H         1 UNK         0.0600 
    186 H186        5.1762  -13.3051  -44.5339 H         1 UNK         0.0600 
    187 H187        4.6620  -14.9404  -44.9304 H         1 UNK         0.0600 
    188 H188        5.7738  -14.0800  -45.9938 H         1 UNK         0.0600 
    189 H189        3.5872  -15.2728  -47.0848 H         1 UNK         0.3000 
    190 H190       -2.1713  -21.9135  -45.6695 H         1 UNK         0.3000 
    191 H191       -3.8016  -23.0101  -47.7786 H         1 UNK         0.0600 
    192 H192       -4.2952  -22.7304  -44.7674 H         1 UNK         0.0600 
    193 H193       -5.5148  -23.1538  -45.9628 H         1 UNK         0.0600 
    194 H194       -4.7580  -21.5735  -46.0187 H         1 UNK         0.0600 
    195 H195       -1.6177  -24.4476  -45.4843 H         1 UNK         0.3000 
    196 H196       -2.7094  -27.1895  -46.0006 H         1 UNK         0.0600 
    197 H197       -1.3726  -27.8393  -44.0093 H         1 UNK         0.0600 
    198 H198       -2.5526  -26.6061  -43.5921 H         1 UNK         0.0600 
    199 H199       -0.8550  -26.1729  -43.7801 H         1 UNK         0.0600 
    200 H200        0.2682  -25.1648  -45.8960 H         1 UNK         0.3000 
    201 H201        2.0162  -27.1967  -46.7864 H         1 UNK         0.0600 
    202 H202        2.7238  -25.1999  -45.4823 H         1 UNK         0.0600 
    203 H203        2.3796  -24.1577  -46.8595 H         1 UNK         0.0600 
    204 H204        3.6609  -25.3551  -46.9607 H         1 UNK         0.0600 
    205 H205        0.2144  -24.7438  -48.6511 H         1 UNK         0.3000 
    206 H206        1.2535  -25.9282  -51.2080 H         1 UNK         0.0600 
    207 H207        1.8952  -23.5277  -50.9170 H         1 UNK         0.0600 
    208 H208        0.7533  -23.7431  -52.2370 H         1 UNK         0.0600 
    209 H209        0.2008  -23.1007  -50.6991 H         1 UNK         0.0600 
    210 H210       -1.5599  -24.4760  -49.5411 H         1 UNK         0.3000 
    211 H211       -3.7334  -24.7782  -49.5961 H         1 UNK         0.0600 
    212 H212       -3.2772  -27.4989  -50.9263 H         1 UNK         0.0600 
    213 H213       -4.7052  -26.9829  -50.0401 H         1 UNK         0.0600 
    214 H214       -3.1850  -27.1979  -49.1906 H         1 UNK         0.0600 
    215 H215       -2.3456  -23.5014  -51.9038 H         1 UNK         0.3000 
    216 H216       -4.6881  -22.9741  -53.4932 H         1 UNK         0.0600 
    217 H217       -3.5326  -23.4777  -55.6801 H         1 UNK         0.0600 
    218 H218       -3.7885  -24.9480  -54.7545 H         1 UNK         0.0600 
    219 H219       -2.1896  -24.2087  -54.8070 H         1 UNK         0.0600 
    220 H220       -4.4071  -20.9938  -54.6677 H         1 UNK         0.3000 
    221 H221       -2.0396  -19.4829  -54.8146 H         1 UNK         0.0600 
    222 H222       -4.0636  -18.5326  -52.6883 H         1 UNK         0.0600 
    223 H223       -2.4739  -19.1768  -52.3105 H         1 UNK         0.0600 
    224 H224       -2.6161  -17.6751  -53.1953 H         1 UNK         0.0600 
    225 H225       -2.7024  -17.2163  -55.6290 H         1 UNK         0.3000 
    226 H226       -4.6033  -17.3871  -57.7157 H         1 UNK         0.0600 
    227 H227       -2.6317  -15.8854  -57.7739 H         1 UNK         0.0600 
    228 H228       -4.1027  -14.9519  -57.9930 H         1 UNK         0.0600 
    229 H229       -3.2800  -14.9329  -56.4378 H         1 UNK         0.0600 
    230 H230       -4.9431  -16.2561  -54.4007 H         1 UNK         0.3000 
    231 H231       -7.7649  -15.3916  -54.8315 H         1 UNK         0.0600 
    232 H232       -6.2482  -13.7854  -53.6864 H         1 UNK         0.0600 
    233 H233       -5.8692  -14.9906  -52.4597 H         1 UNK         0.0600 
    234 H234       -7.5010  -14.3475  -52.5944 H         1 UNK         0.0600 
    235 H235       -6.3958  -18.2619  -54.4797 H         1 UNK         0.3000 
    236 H236       -6.8856  -20.2554  -53.7365 H         1 UNK         0.0600 
    237 H237       -9.2169  -20.8734  -53.3010 H         1 UNK         0.0600 
    238 H238       -9.6620  -19.2013  -52.9997 H         1 UNK         0.0600 
    239 H239       -9.1670  -19.7104  -54.6140 H         1 UNK         0.0600 
    240 H240       -6.0107  -18.0777  -51.6911 H         1 UNK         0.3000 
    241 H241       -6.7404  -19.2371  -49.1384 H         1 UNK         0.0600 
    242 H242       -3.4763  -21.2323  -50.1664 H         1 UNK         0.3800 
    243 H243       -4.5633  -20.5175  -51.3314 H         1 UNK         0.3800 
    244 H244       -6.5693  -16.8802  -49.1855 H         1 UNK         0.0800 
    245 H245       -5.2729  -17.4367  -48.1905 H         1 UNK         0.0800 
    246 H246       -2.8229  -15.2410  -49.0327 H         1 UNK         0.0800 
    247 H247       -3.1234  -16.7925  -48.2952 H         1 UNK         0.0800 
@<TRIPOS>BOND
     1    1    2 1    
     2    1  127 1    
     3    1  128 1    
     4    1  129 1    
     5    2    3 2    
     6    2    4 am   BACKBONE|DICT|INTERRES
     7    4    5 1    
     8    4  130 1    
     9    5    6 1    
    10    5   65 1    
    11    5  131 1    
    12    6    7 1    
    13    6  132 1    
    14    6  133 1    
    15    7    8 1    
    16    8    9 1    
    17    8  134 1    
    18    8  135 1    
    19    9   10 ar   
    20    9   14 ar   
    21   10   11 ar   
    22   10  136 1    
    23   11   12 ar   
    24   11  126 1    
    25   12   13 ar   
    26   12  137 1    
    27   13   14 ar   
    28   13   15 1    
    29   14  138 1    
    30   15   16 1    
    31   15  139 1    
    32   15  140 1    
    33   16   17 1    
    34   17   18 1    
    35   17  141 1    
    36   17  142 1    
    37   18   19 1    
    38   18   67 1    
    39   18  143 1    
    40   19   20 am   BACKBONE|DICT|INTERRES
    41   19  144 1    
    42   20   21 2    
    43   20   22 1    
    44   22   23 1    
    45   22   24 1    
    46   22  145 1    
    47   23  146 1    
    48   23  147 1    
    49   23  148 1    
    50   24   25 am   BACKBONE|DICT|INTERRES
    51   24  149 1    
    52   25   26 2    
    53   25   27 1    
    54   27   28 1    
    55   27   29 1    
    56   27  150 1    
    57   28  151 1    
    58   28  152 1    
    59   28  153 1    
    60   29   30 am   BACKBONE|DICT|INTERRES
    61   29  154 1    
    62   30   31 2    
    63   30   32 1    
    64   32   33 1    
    65   32   34 1    
    66   32  155 1    
    67   33  156 1    
    68   33  157 1    
    69   33  158 1    
    70   34   35 am   BACKBONE|DICT|INTERRES
    71   34  159 1    
    72   35   36 2    
    73   35   37 1    
    74   37   38 1    
    75   37   39 1    
    76   37  160 1    
    77   38  161 1    
    78   38  162 1    
    79   38  163 1    
    80   39   40 am   BACKBONE|DICT|INTERRES
    81   39  164 1    
    82   40   41 2    
    83   40   42 1    
    84   42   43 1    
    85   42   44 1    
    86   42  165 1    
    87   43  166 1    
    88   43  167 1    
    89   43  168 1    
    90   44   45 am   BACKBONE|DICT|INTERRES
    91   44  169 1    
    92   45   46 2    
    93   45   47 1    
    94   47   48 1    
    95   47   49 1    
    96   47  170 1    
    97   48  171 1    
    98   48  172 1    
    99   48  173 1    
   100   49   50 am   BACKBONE|DICT|INTERRES
   101   49  174 1    
   102   50   51 2    
   103   50   52 1    
   104   52   53 1    
   105   52   54 1    
   106   52  175 1    
   107   53  176 1    
   108   53  177 1    
   109   53  178 1    
   110   54   55 am   BACKBONE|DICT|INTERRES
   111   54  179 1    
   112   55   56 2    
   113   55   57 1    
   114   57   58 1    
   115   57   59 1    
   116   57  180 1    
   117   58  181 1    
   118   58  182 1    
   119   58  183 1    
   120   59   60 am   BACKBONE|DICT|INTERRES
   121   59  184 1    
   122   60   61 2    
   123   60   62 1    
   124   62   63 1    
   125   62   64 1    
   126   62  185 1    
   127   63  186 1    
   128   63  187 1    
   129   63  188 1    
   130   64   65 am   BACKBONE|DICT|INTERRES
   131   64  189 1    
   132   65   66 2    
   133   67   68 2    
   134   67   69 am   BACKBONE|DICT|INTERRES
   135   69   70 1    
   136   69  190 1    
   137   70   71 1    
   138   70   72 1    
   139   70  191 1    
   140   71  192 1    
   141   71  193 1    
   142   71  194 1    
   143   72   73 2    
   144   72   74 am   BACKBONE|DICT|INTERRES
   145   74   75 1    
   146   74  195 1    
   147   75   76 1    
   148   75   77 1    
   149   75  196 1    
   150   76  197 1    
   151   76  198 1    
   152   76  199 1    
   153   77   78 2    
   154   77   79 am   BACKBONE|DICT|INTERRES
   155   79   80 1    
   156   79  200 1    
   157   80   81 1    
   158   80   82 1    
   159   80  201 1    
   160   81  202 1    
   161   81  203 1    
   162   81  204 1    
   163   82   83 2    
   164   82   84 am   BACKBONE|DICT|INTERRES
   165   84   85 1    
   166   84  205 1    
   167   85   86 1    
   168   85   87 1    
   169   85  206 1    
   170   86  207 1    
   171   86  208 1    
   172   86  209 1    
   173   87   88 2    
   174   87   89 am   BACKBONE|DICT|INTERRES
   175   89   90 1    
   176   89  210 1    
   177   90   91 1    
   178   90   92 1    
   179   90  211 1    
   180   91  212 1    
   181   91  213 1    
   182   91  214 1    
   183   92   93 2    
   184   92   94 am   BACKBONE|DICT|INTERRES
   185   94   95 1    
   186   94  215 1    
   187   95   96 1    
   188   95   97 1    
   189   95  216 1    
   190   96  217 1    
   191   96  218 1    
   192   96  219 1    
   193   97   98 2    
   194   97   99 am   BACKBONE|DICT|INTERRES
   195   99  100 1    
   196   99  220 1    
   197  100  101 1    
   198  100  102 1    
   199  100  221 1    
   200  101  222 1    
   201  101  223 1    
   202  101  224 1    
   203  102  103 2    
   204  102  104 am   BACKBONE|DICT|INTERRES
   205  104  105 1    
   206  104  225 1    
   207  105  106 1    
   208  105  107 1    
   209  105  226 1    
   210  106  227 1    
   211  106  228 1    
   212  106  229 1    
   213  107  108 2    
   214  107  109 am   BACKBONE|DICT|INTERRES
   215  109  110 1    
   216  109  230 1    
   217  110  111 1    
   218  110  112 1    
   219  110  231 1    
   220  111  232 1    
   221  111  233 1    
   222  111  234 1    
   223  112  113 2    
   224  112  114 am   BACKBONE|DICT|INTERRES
   225  114  115 1    
   226  114  235 1    
   227  115  116 1    
   228  115  117 1    
   229  115  236 1    
   230  116  237 1    
   231  116  238 1    
   232  116  239 1    
   233  117  118 2    
   234  117  119 am   BACKBONE|DICT|INTERRES
   235  119  120 1    
   236  119  240 1    
   237  120  121 1    
   238  120  124 1    
   239  120  241 1    
   240  121  122 am   BACKBONE|DICT|INTERRES
   241  121  123 2    
   242  122  242 1    
   243  122  243 1    
   244  124  125 1    
   245  124  244 1    
   246  124  245 1    
   247  125  126 1    
   248  126  246 1    
   249  126  247 1    
@<TRIPOS>SUBSTRUCTURE
     1 UNK         1 GROUP             0       ****    0 ROOT    
