@<TRIPOS>MOLECULE
3R540
247   249    1
SMALL
USER_CHARGES


@<TRIPOS>ATOM
      1 CA          5.9178  -11.1593  -45.3999 C.3       0 UNK        -0.1800 
      2 C           4.7525  -11.7677  -46.1649 C.2       0 UNK         0.5000 
      3 O           3.8697  -11.0444  -46.6286 O.2       0 UNK        -0.5000 
      4 N           4.7568  -13.1002  -46.2915 N.am      1 UNK        -0.5000 
      5 CA          3.7779  -13.9433  -46.9853 C.3       1 UNK         0.1400 
      6 C6          3.7485  -13.7206  -48.5253 C.3       23 UNK        -0.0398 
      7 S7          3.5707  -15.2705  -49.4684 S.3       23 UNK        -0.2404 
      8 C8          1.7720  -15.5456  -49.4297 C.3       23 UNK        -0.0205 
      9 C9          1.3676  -16.5739  -50.4745 C.ar      23 UNK        -0.0193 
     10 C10         1.1977  -16.1728  -51.8024 C.ar      23 UNK        -0.1150 
     11 C11         0.8529  -17.1000  -52.7879 C.ar      23 UNK        -0.0193 
     12 C12         0.6644  -18.4386  -52.4347 C.ar      23 UNK        -0.1150 
     13 C13         0.8315  -18.8563  -51.1106 C.ar      23 UNK        -0.0193 
     14 C14         1.1847  -17.9190  -50.1318 C.ar      23 UNK        -0.1150 
     15 C15         0.6611  -20.3286  -50.7628 C.3       23 UNK        -0.0205 
     16 S16        -1.0427  -20.7110  -50.2475 S.3       23 UNK        -0.2404 
     17 C17        -0.9176  -20.5552  -48.4367 C.3       23 UNK        -0.0398 
     18 CA         -0.9151  -21.9285  -47.7149 C.3       11 UNK         0.1400 
     19 N          -0.1036  -21.8910  -46.4948 N.am      11 UNK        -0.5000 
     20 C           0.1682  -22.9339  -45.6981 C.2       10 UNK         0.5000 
     21 O          -0.1892  -24.0866  -45.9310 O.2       10 UNK        -0.5000 
     22 CA          0.9093  -22.6222  -44.3863 C.3       10 UNK         0.1400 
     23 CB          2.4285  -22.5610  -44.6050 C.3       10 UNK        -0.1800 
     24 N           0.4380  -21.3741  -43.7842 N.am      10 UNK        -0.5000 
     25 C          -0.7771  -21.2148  -43.2397 C.2       9 UNK         0.5000 
     26 O          -1.6001  -22.1236  -43.1322 O.2       9 UNK        -0.5000 
     27 CA         -1.1542  -19.7909  -42.7912 C.3       9 UNK         0.1400 
     28 CB         -0.5924  -19.5001  -41.3920 C.3       9 UNK        -0.1800 
     29 N          -0.6951  -18.7693  -43.7364 N.am      9 UNK        -0.5000 
     30 C          -1.1693  -18.6438  -44.9860 C.2       8 UNK         0.5000 
     31 O          -2.0828  -19.3349  -45.4352 O.2       8 UNK        -0.5000 
     32 CA         -0.4771  -17.6295  -45.9180 C.3       8 UNK         0.1400 
     33 CB         -1.1745  -16.2654  -45.8655 C.3       8 UNK        -0.1800 
     34 N           0.9548  -17.4689  -45.6556 N.am      8 UNK        -0.5000 
     35 C           1.8565  -18.4556  -45.7761 C.2       7 UNK         0.5000 
     36 O           1.5558  -19.5941  -46.1301 O.2       7 UNK        -0.5000 
     37 CA          3.3227  -18.1521  -45.4337 C.3       7 UNK         0.1400 
     38 CB          4.1270  -17.9041  -46.7155 C.3       7 UNK        -0.1800 
     39 N           3.4366  -17.0000  -44.5382 N.am      7 UNK        -0.5000 
     40 C           4.0322  -17.0292  -43.3406 C.2       6 UNK         0.5000 
     41 O           4.6875  -17.9843  -42.9211 O.2       6 UNK        -0.5000 
     42 CA          3.8463  -15.7948  -42.4360 C.3       6 UNK         0.1400 
     43 CB          4.9328  -14.7486  -42.7259 C.3       6 UNK        -0.1800 
     44 N           2.5321  -15.1443  -42.4972 N.am      6 UNK        -0.5000 
     45 C           1.3326  -15.7373  -42.3729 C.2       5 UNK         0.5000 
     46 O           1.1677  -16.9577  -42.3512 O.2       5 UNK        -0.5000 
     47 CA          0.1051  -14.8055  -42.2596 C.3       5 UNK         0.1400 
     48 CB         -1.1133  -15.4897  -41.6086 C.3       5 UNK        -0.1800 
     49 N           0.3922  -13.5287  -41.6016 N.am      5 UNK        -0.5000 
     50 C           0.9231  -13.3229  -40.3849 C.2       4 UNK         0.5000 
     51 O           1.1370  -14.2236  -39.5723 O.2       4 UNK        -0.5000 
     52 CA          1.2977  -11.8639  -40.0254 C.3       4 UNK         0.1400 
     53 CB          2.5987  -11.7847  -39.1995 C.3       4 UNK        -0.1800 
     54 N           1.3685  -10.9630  -41.1869 N.am      4 UNK        -0.5000 
     55 C           2.1750  -11.0778  -42.2523 C.2       3 UNK         0.5000 
     56 O           3.0421  -11.9454  -42.3801 O.2       3 UNK        -0.5000 
     57 CA          1.8855  -10.1231  -43.4226 C.3       3 UNK         0.1400 
     58 CB          3.0777   -9.1962  -43.6982 C.3       3 UNK        -0.1800 
     59 N           1.5598  -10.8906  -44.6260 N.am      3 UNK        -0.5000 
     60 C           0.4712  -11.6665  -44.7544 C.2       2 UNK         0.5000 
     61 O          -0.3985  -11.7611  -43.8873 O.2       2 UNK        -0.5000 
     62 CA          0.3327  -12.4985  -46.0399 C.3       2 UNK         0.1400 
     63 CB         -0.5234  -11.7561  -47.0758 C.3       2 UNK        -0.1800 
     64 N           1.6319  -12.8061  -46.6287 N.am      2 UNK        -0.5000 
     65 C           2.3801  -13.8741  -46.3322 C.2       1 UNK         0.5000 
     66 O           2.0170  -14.7771  -45.5755 O.2       1 UNK        -0.5000 
     67 C          -2.3502  -22.4306  -47.4401 C.2       11 UNK         0.5000 
     68 O          -2.8682  -23.2534  -48.1971 O.2       11 UNK        -0.5000 
     69 N          -2.9527  -21.9513  -46.3432 N.am      12 UNK        -0.5000 
     70 CA         -4.2528  -22.3944  -45.8453 C.3       12 UNK         0.1400 
     71 CB         -4.7568  -21.4171  -44.7734 C.3       12 UNK        -0.1800 
     72 C          -4.2208  -23.8376  -45.3152 C.2       12 UNK         0.5000 
     73 O          -5.0983  -24.6239  -45.6707 O.2       12 UNK        -0.5000 
     74 N          -3.2014  -24.1752  -44.5114 N.am      13 UNK        -0.5000 
     75 CA         -3.0001  -25.5103  -43.9367 C.3       13 UNK         0.1400 
     76 CB         -1.8357  -25.4709  -42.9363 C.3       13 UNK        -0.1800 
     77 C          -2.7678  -26.6052  -44.9962 C.2       13 UNK         0.5000 
     78 O          -3.2811  -27.7148  -44.8490 O.2       13 UNK        -0.5000 
     79 N          -2.0316  -26.2619  -46.0609 N.am      14 UNK        -0.5000 
     80 CA         -1.7900  -27.1100  -47.2298 C.3       14 UNK         0.1400 
     81 CB         -0.5707  -26.5598  -47.9881 C.3       14 UNK        -0.1800 
     82 C          -3.0008  -27.2091  -48.1808 C.2       14 UNK         0.5000 
     83 O          -2.9718  -28.0296  -49.0983 O.2       14 UNK        -0.5000 
     84 N          -4.0150  -26.3544  -47.9739 N.am      15 UNK        -0.5000 
     85 CA         -5.2146  -26.1567  -48.7960 C.3       15 UNK         0.1400 
     86 CB         -6.0690  -27.4384  -48.8699 C.3       15 UNK        -0.1800 
     87 C          -4.9212  -25.5585  -50.1881 C.2       15 UNK         0.5000 
     88 O          -5.8003  -25.5568  -51.0493 O.2       15 UNK        -0.5000 
     89 N          -3.7166  -25.0060  -50.3772 N.am      16 UNK        -0.5000 
     90 CA         -3.2924  -24.3082  -51.5884 C.3       16 UNK         0.1400 
     91 CB         -1.7693  -24.1207  -51.5539 C.3       16 UNK        -0.1800 
     92 C          -4.0222  -22.9651  -51.7592 C.2       16 UNK         0.5000 
     93 O          -4.3670  -22.5992  -52.8829 O.2       16 UNK        -0.5000 
     94 N          -4.3018  -22.2831  -50.6391 N.am      17 UNK        -0.5000 
     95 CA         -5.1135  -21.0654  -50.6075 C.3       17 UNK         0.1400 
     96 CB         -4.9712  -20.3783  -49.2426 C.3       17 UNK        -0.1800 
     97 C          -6.5951  -21.3474  -50.9203 C.2       17 UNK         0.5000 
     98 O          -7.2333  -20.5436  -51.5986 O.2       17 UNK        -0.5000 
     99 N          -7.1022  -22.4999  -50.4567 N.am      18 UNK        -0.5000 
    100 CA        -8.4608  -22.9807  -50.7237 C.3       18 UNK         0.1400 
    101 CB        -8.8023  -24.1248  -49.7566 C.3       18 UNK        -0.1800 
    102 C         -8.6452  -23.4194  -52.1887 C.2       18 UNK         0.5000 
    103 O         -9.6906  -23.1486  -52.7799 O.2       18 UNK        -0.5000 
    104 N         -7.6054  -24.0431  -52.7602 N.am      19 UNK        -0.5000 
    105 CA        -7.5016  -24.3924  -54.1795 C.3       19 UNK         0.1400 
    106 CB        -6.3667  -25.4142  -54.3526 C.3       19 UNK        -0.1800 
    107 C         -7.2685  -23.1736  -55.0987 C.2       19 UNK         0.5000 
    108 O         -7.3880  -23.3113  -56.3167 O.2       19 UNK        -0.5000 
    109 N         -6.9369  -22.0183  -54.5030 N.am      20 UNK        -0.5000 
    110 CA        -6.6274  -20.7334  -55.1316 C.3       20 UNK         0.1400 
    111 CB        -7.8586  -20.1632  -55.8661 C.3       20 UNK        -0.1800 
    112 C         -5.3635  -20.7960  -56.0113 C.2       20 UNK         0.5000 
    113 O         -5.3426  -20.2369  -57.1097 O.2       20 UNK        -0.5000 
    114 N         -4.3130  -21.4544  -55.4982 N.am      21 UNK        -0.5000 
    115 CA        -3.0147  -21.6336  -56.1596 C.3       21 UNK         0.1400 
    116 CB        -2.1286  -22.5338  -55.2853 C.3       21 UNK        -0.1800 
    117 C         -2.2842  -20.3126  -56.4790 C.2       21 UNK         0.5000 
    118 O         -1.5093  -20.2626  -57.4349 O.2       21 UNK        -0.5000 
    119 N         -2.5643  -19.2685  -55.6891 N.am      22 UNK        -0.5000 
    120 CA        -2.1182  -17.8865  -55.9180 C.3       22 UNK         0.1400 
    121 C         -2.9343  -17.1214  -57.0087 C.2       22 UNK         0.5000 
    122 N         -4.0101  -17.6712  -57.5614 N.am      22 UNK        -0.7600 
    123 O         -2.5768  -16.0085  -57.3833 O.2       22 UNK        -0.5000 
    124 C124       -2.0437  -17.1142  -54.5720 C.3       23 UNK        -0.0398 
    125 S125       -0.8175  -15.7618  -54.5696 S.3       23 UNK        -0.2404 
    126 C126        0.7318  -16.6587  -54.2385 C.3       23 UNK        -0.0205 
    127 H127        5.7900  -11.3184  -44.3291 H         1 UNK         0.0600 
    128 H128        5.9814  -10.0867  -45.5837 H         1 UNK         0.0600 
    129 H129        6.8616  -11.6109  -45.7058 H         1 UNK         0.0600 
    130 H130        5.5182  -13.6100  -45.8660 H         1 UNK         0.3000 
    131 H131        4.1473  -14.9515  -46.8007 H         1 UNK         0.0600 
    132 H132        2.9970  -12.9987  -48.8471 H         1 UNK         0.0800 
    133 H133        4.6988  -13.2924  -48.8473 H         1 UNK         0.0800 
    134 H134        1.2476  -14.6073  -49.6176 H         1 UNK         0.0800 
    135 H135        1.4719  -15.8773  -48.4344 H         1 UNK         0.0800 
    136 H136        1.3521  -15.1377  -52.0737 H         1 UNK         0.1150 
    137 H137        0.4017  -19.1613  -53.1947 H         1 UNK         0.1150 
    138 H138        1.3301  -18.2361  -49.1088 H         1 UNK         0.1150 
    139 H139        1.3733  -20.6250  -49.9913 H         1 UNK         0.0800 
    140 H140        0.8996  -20.9407  -51.6340 H         1 UNK         0.0800 
    141 H141       -1.7228  -19.9108  -48.0813 H         1 UNK         0.0800 
    142 H142       -0.0010  -20.0118  -48.2125 H         1 UNK         0.0800 
    143 H143       -0.4364  -22.6639  -48.3650 H         1 UNK         0.0600 
    144 H144        0.3037  -20.9930  -46.2486 H         1 UNK         0.3000 
    145 H145        0.7059  -23.4339  -43.6853 H         1 UNK         0.0600 
    146 H146        2.8003  -23.5080  -44.9980 H         1 UNK         0.0600 
    147 H147        2.9541  -22.3695  -43.6694 H         1 UNK         0.0600 
    148 H148        2.7108  -21.7827  -45.3134 H         1 UNK         0.0600 
    149 H149        1.0352  -20.5665  -43.8826 H         1 UNK         0.3000 
    150 H150       -2.2436  -19.7371  -42.7368 H         1 UNK         0.0600 
    151 H151        0.4983  -19.5088  -41.3855 H         1 UNK         0.0600 
    152 H152       -0.9319  -20.2456  -40.6719 H         1 UNK         0.0600 
    153 H153       -0.9205  -18.5265  -41.0291 H         1 UNK         0.0600 
    154 H154        0.0529  -18.1590  -43.4182 H         1 UNK         0.3000 
    155 H155       -0.5773  -18.0050  -46.9374 H         1 UNK         0.0600 
    156 H156       -0.7353  -15.5742  -46.5845 H         1 UNK         0.0600 
    157 H157       -1.1106  -15.8185  -44.8757 H         1 UNK         0.0600 
    158 H158       -2.2327  -16.3600  -46.1129 H         1 UNK         0.0600 
    159 H159        1.2674  -16.5359  -45.4119 H         1 UNK         0.3000 
    160 H160        3.7216  -19.0480  -44.9536 H         1 UNK         0.0600 
    161 H161        3.6684  -17.1294  -47.3249 H         1 UNK         0.0600 
    162 H162        4.1722  -18.8076  -47.3249 H         1 UNK         0.0600 
    163 H163        5.1519  -17.6058  -46.4946 H         1 UNK         0.0600 
    164 H164        2.9215  -16.1626  -44.7953 H         1 UNK         0.3000 
    165 H165        3.9752  -16.1363  -41.4072 H         1 UNK         0.0600 
    166 H166        5.9275  -15.1963  -42.7140 H         1 UNK         0.0600 
    167 H167        4.7890  -14.2850  -43.7014 H         1 UNK         0.0600 
    168 H168        4.9260  -13.9568  -41.9766 H         1 UNK         0.0600 
    169 H169        2.5538  -14.1319  -42.5210 H         1 UNK         0.3000 
    170 H170       -0.1653  -14.5463  -43.2821 H         1 UNK         0.0600 
    171 H171       -1.9608  -14.8075  -41.5447 H         1 UNK         0.0600 
    172 H172       -0.8874  -15.8406  -40.6012 H         1 UNK         0.0600 
    173 H173       -1.4383  -16.3513  -42.1924 H         1 UNK         0.0600 
    174 H174        0.2273  -12.7134  -42.1825 H         1 UNK         0.3000 
    175 H175        0.4856  -11.4911  -39.3999 H         1 UNK         0.0600 
    176 H176        3.4448  -12.2194  -39.7327 H         1 UNK         0.0600 
    177 H177        2.4980  -12.3225  -38.2561 H         1 UNK         0.0600 
    178 H178        2.8497  -10.7523  -38.9563 H         1 UNK         0.0600 
    179 H179        0.6649  -10.2371  -41.2036 H         1 UNK         0.3000 
    180 H180        1.0232   -9.4991  -43.1780 H         1 UNK         0.0600 
    181 H181        3.9869   -9.7586  -43.9029 H         1 UNK         0.0600 
    182 H182        3.2780   -8.5566  -42.8378 H         1 UNK         0.0600 
    183 H183        2.8858   -8.5456  -44.5515 H         1 UNK         0.0600 
    184 H184        2.2607  -10.8991  -45.3583 H         1 UNK         0.3000 
    185 H185       -0.1798  -13.4250  -45.7772 H         1 UNK         0.0600 
    186 H186       -1.5105  -11.5250  -46.6732 H         1 UNK         0.0600 
    187 H187       -0.0632  -10.8152  -47.3803 H         1 UNK         0.0600 
    188 H188       -0.6714  -12.3623  -47.9698 H         1 UNK         0.0600 
    189 H189        2.0604  -12.0737  -47.1813 H         1 UNK         0.3000 
    190 H190       -2.4906  -21.2181  -45.8140 H         1 UNK         0.3000 
    191 H191       -4.9596  -22.3736  -46.6756 H         1 UNK         0.0600 
    192 H192       -4.8528  -20.4088  -45.1766 H         1 UNK         0.0600 
    193 H193       -5.7384  -21.7153  -44.4032 H         1 UNK         0.0600 
    194 H194       -4.0829  -21.3703  -43.9180 H         1 UNK         0.0600 
    195 H195       -2.5406  -23.4568  -44.2300 H         1 UNK         0.3000 
    196 H196       -3.9075  -25.7712  -43.3884 H         1 UNK         0.0600 
    197 H197       -1.6969  -26.4424  -42.4604 H         1 UNK         0.0600 
    198 H198       -2.0188  -24.7442  -42.1446 H         1 UNK         0.0600 
    199 H199       -0.8972  -25.2078  -43.4237 H         1 UNK         0.0600 
    200 H200       -1.5766  -25.3516  -46.0643 H         1 UNK         0.3000 
    201 H201       -1.5561  -28.1199  -46.8871 H         1 UNK         0.0600 
    202 H202       -0.3285  -27.1813  -48.8511 H         1 UNK         0.0600 
    203 H203        0.3122  -26.5351  -47.3492 H         1 UNK         0.0600 
    204 H204       -0.7486  -25.5466  -48.3517 H         1 UNK         0.0600 
    205 H205       -3.9429  -25.7313  -47.1789 H         1 UNK         0.3000 
    206 H206       -5.8064  -25.4042  -48.2736 H         1 UNK         0.0600 
    207 H207       -6.2639  -27.8395  -47.8753 H         1 UNK         0.0600 
    208 H208       -7.0359  -27.2376  -49.3324 H         1 UNK         0.0600 
    209 H209       -5.5853  -28.2176  -49.4591 H         1 UNK         0.0600 
    210 H210       -3.0938  -24.9507  -49.5820 H         1 UNK         0.3000 
    211 H211       -3.5389  -24.9309  -52.4505 H         1 UNK         0.0600 
    212 H212       -1.2568  -25.0824  -51.5796 H         1 UNK         0.0600 
    213 H213       -1.4214  -23.5434  -52.4109 H         1 UNK         0.0600 
    214 H214       -1.4485  -23.5999  -50.6522 H         1 UNK         0.0600 
    215 H215       -3.9458  -22.6368  -49.7569 H         1 UNK         0.3000 
    216 H216       -4.7322  -20.3836  -51.3710 H         1 UNK         0.0600 
    217 H217       -5.3621  -20.9982  -48.4374 H         1 UNK         0.0600 
    218 H218       -5.5195  -19.4357  -49.2234 H         1 UNK         0.0600 
    219 H219       -3.9299  -20.1501  -49.0205 H         1 UNK         0.0600 
    220 H220       -6.4981  -23.1129  -49.9321 H         1 UNK         0.3000 
    221 H221       -9.1548  -22.1592  -50.5327 H         1 UNK         0.0600 
    222 H222       -8.1548  -24.9888  -49.9031 H         1 UNK         0.0600 
    223 H223       -8.7081  -23.8063  -48.7183 H         1 UNK         0.0600 
    224 H224       -9.8299  -24.4604  -49.9010 H         1 UNK         0.0600 
    225 H225       -6.8212  -24.3149  -52.1750 H         1 UNK         0.3000 
    226 H226       -8.4376  -24.8626  -54.4876 H         1 UNK         0.0600 
    227 H227       -6.5342  -26.2993  -53.7386 H         1 UNK         0.0600 
    228 H228       -6.2922  -25.7467  -55.3886 H         1 UNK         0.0600 
    229 H229       -5.4015  -24.9905  -54.0741 H         1 UNK         0.0600 
    230 H230       -6.8413  -22.0360  -53.4973 H         1 UNK         0.3000 
    231 H231       -6.3909  -20.0492  -54.3156 H         1 UNK         0.0600 
    232 H232       -8.1259  -20.7601  -56.7384 H         1 UNK         0.0600 
    233 H233       -7.6691  -19.1466  -56.2128 H         1 UNK         0.0600 
    234 H234       -8.7259  -20.1240  -55.2070 H         1 UNK         0.0600 
    235 H235       -4.4093  -21.8831  -54.5791 H         1 UNK         0.3000 
    236 H236       -3.1967  -22.1452  -57.1067 H         1 UNK         0.0600 
    237 H237       -1.9153  -22.0675  -54.3227 H         1 UNK         0.0600 
    238 H238       -2.6066  -23.4949  -55.0942 H         1 UNK         0.0600 
    239 H239       -1.1735  -22.7358  -55.7717 H         1 UNK         0.0600 
    240 H240       -3.2191  -19.4104  -54.9349 H         1 UNK         0.3000 
    241 H241       -1.1038  -17.9524  -56.3146 H         1 UNK         0.0600 
    242 H242       -4.3302  -18.6016  -57.3112 H         1 UNK         0.3800 
    243 H243       -4.5096  -17.1564  -58.2690 H         1 UNK         0.3800 
    244 H244       -3.0195  -16.7034  -54.3078 H         1 UNK         0.0800 
    245 H245       -1.7868  -17.7913  -53.7567 H         1 UNK         0.0800 
    246 H246        1.5701  -16.0039  -54.4809 H         1 UNK         0.0800 
    247 H247        0.8160  -17.5133  -54.9112 H         1 UNK         0.0800 
@<TRIPOS>BOND
     1    1    2 1    
     2    1  127 1    
     3    1  128 1    
     4    1  129 1    
     5    2    3 2    
     6    2    4 am   BACKBONE|DICT|INTERRES
     7    4    5 1    
     8    4  130 1    
     9    5    6 1    
    10    5   65 1    
    11    5  131 1    
    12    6    7 1    
    13    6  132 1    
    14    6  133 1    
    15    7    8 1    
    16    8    9 1    
    17    8  134 1    
    18    8  135 1    
    19    9   10 ar   
    20    9   14 ar   
    21   10   11 ar   
    22   10  136 1    
    23   11   12 ar   
    24   11  126 1    
    25   12   13 ar   
    26   12  137 1    
    27   13   14 ar   
    28   13   15 1    
    29   14  138 1    
    30   15   16 1    
    31   15  139 1    
    32   15  140 1    
    33   16   17 1    
    34   17   18 1    
    35   17  141 1    
    36   17  142 1    
    37   18   19 1    
    38   18   67 1    
    39   18  143 1    
    40   19   20 am   BACKBONE|DICT|INTERRES
    41   19  144 1    
    42   20   21 2    
    43   20   22 1    
    44   22   23 1    
    45   22   24 1    
    46   22  145 1    
    47   23  146 1    
    48   23  147 1    
    49   23  148 1    
    50   24   25 am   BACKBONE|DICT|INTERRES
    51   24  149 1    
    52   25   26 2    
    53   25   27 1    
    54   27   28 1    
    55   27   29 1    
    56   27  150 1    
    57   28  151 1    
    58   28  152 1    
    59   28  153 1    
    60   29   30 am   BACKBONE|DICT|INTERRES
    61   29  154 1    
    62   30   31 2    
    63   30   32 1    
    64   32   33 1    
    65   32   34 1    
    66   32  155 1    
    67   33  156 1    
    68   33  157 1    
    69   33  158 1    
    70   34   35 am   BACKBONE|DICT|INTERRES
    71   34  159 1    
    72   35   36 2    
    73   35   37 1    
    74   37   38 1    
    75   37   39 1    
    76   37  160 1    
    77   38  161 1    
    78   38  162 1    
    79   38  163 1    
    80   39   40 am   BACKBONE|DICT|INTERRES
    81   39  164 1    
    82   40   41 2    
    83   40   42 1    
    84   42   43 1    
    85   42   44 1    
    86   42  165 1    
    87   43  166 1    
    88   43  167 1    
    89   43  168 1    
    90   44   45 am   BACKBONE|DICT|INTERRES
    91   44  169 1    
    92   45   46 2    
    93   45   47 1    
    94   47   48 1    
    95   47   49 1    
    96   47  170 1    
    97   48  171 1    
    98   48  172 1    
    99   48  173 1    
   100   49   50 am   BACKBONE|DICT|INTERRES
   101   49  174 1    
   102   50   51 2    
   103   50   52 1    
   104   52   53 1    
   105   52   54 1    
   106   52  175 1    
   107   53  176 1    
   108   53  177 1    
   109   53  178 1    
   110   54   55 am   BACKBONE|DICT|INTERRES
   111   54  179 1    
   112   55   56 2    
   113   55   57 1    
   114   57   58 1    
   115   57   59 1    
   116   57  180 1    
   117   58  181 1    
   118   58  182 1    
   119   58  183 1    
   120   59   60 am   BACKBONE|DICT|INTERRES
   121   59  184 1    
   122   60   61 2    
   123   60   62 1    
   124   62   63 1    
   125   62   64 1    
   126   62  185 1    
   127   63  186 1    
   128   63  187 1    
   129   63  188 1    
   130   64   65 am   BACKBONE|DICT|INTERRES
   131   64  189 1    
   132   65   66 2    
   133   67   68 2    
   134   67   69 am   BACKBONE|DICT|INTERRES
   135   69   70 1    
   136   69  190 1    
   137   70   71 1    
   138   70   72 1    
   139   70  191 1    
   140   71  192 1    
   141   71  193 1    
   142   71  194 1    
   143   72   73 2    
   144   72   74 am   BACKBONE|DICT|INTERRES
   145   74   75 1    
   146   74  195 1    
   147   75   76 1    
   148   75   77 1    
   149   75  196 1    
   150   76  197 1    
   151   76  198 1    
   152   76  199 1    
   153   77   78 2    
   154   77   79 am   BACKBONE|DICT|INTERRES
   155   79   80 1    
   156   79  200 1    
   157   80   81 1    
   158   80   82 1    
   159   80  201 1    
   160   81  202 1    
   161   81  203 1    
   162   81  204 1    
   163   82   83 2    
   164   82   84 am   BACKBONE|DICT|INTERRES
   165   84   85 1    
   166   84  205 1    
   167   85   86 1    
   168   85   87 1    
   169   85  206 1    
   170   86  207 1    
   171   86  208 1    
   172   86  209 1    
   173   87   88 2    
   174   87   89 am   BACKBONE|DICT|INTERRES
   175   89   90 1    
   176   89  210 1    
   177   90   91 1    
   178   90   92 1    
   179   90  211 1    
   180   91  212 1    
   181   91  213 1    
   182   91  214 1    
   183   92   93 2    
   184   92   94 am   BACKBONE|DICT|INTERRES
   185   94   95 1    
   186   94  215 1    
   187   95   96 1    
   188   95   97 1    
   189   95  216 1    
   190   96  217 1    
   191   96  218 1    
   192   96  219 1    
   193   97   98 2    
   194   97   99 am   BACKBONE|DICT|INTERRES
   195   99  100 1    
   196   99  220 1    
   197  100  101 1    
   198  100  102 1    
   199  100  221 1    
   200  101  222 1    
   201  101  223 1    
   202  101  224 1    
   203  102  103 2    
   204  102  104 am   BACKBONE|DICT|INTERRES
   205  104  105 1    
   206  104  225 1    
   207  105  106 1    
   208  105  107 1    
   209  105  226 1    
   210  106  227 1    
   211  106  228 1    
   212  106  229 1    
   213  107  108 2    
   214  107  109 am   BACKBONE|DICT|INTERRES
   215  109  110 1    
   216  109  230 1    
   217  110  111 1    
   218  110  112 1    
   219  110  231 1    
   220  111  232 1    
   221  111  233 1    
   222  111  234 1    
   223  112  113 2    
   224  112  114 am   BACKBONE|DICT|INTERRES
   225  114  115 1    
   226  114  235 1    
   227  115  116 1    
   228  115  117 1    
   229  115  236 1    
   230  116  237 1    
   231  116  238 1    
   232  116  239 1    
   233  117  118 2    
   234  117  119 am   BACKBONE|DICT|INTERRES
   235  119  120 1    
   236  119  240 1    
   237  120  121 1    
   238  120  124 1    
   239  120  241 1    
   240  121  122 am   BACKBONE|DICT|INTERRES
   241  121  123 2    
   242  122  242 1    
   243  122  243 1    
   244  124  125 1    
   245  124  244 1    
   246  124  245 1    
   247  125  126 1    
   248  126  246 1    
   249  126  247 1    
@<TRIPOS>SUBSTRUCTURE
     1 UNK         1 GROUP             0       ****    0 ROOT    
