@<TRIPOS>MOLECULE
3R540
247   249    1
SMALL
USER_CHARGES


@<TRIPOS>ATOM
      1 CA          4.7558  -15.0457  -44.2060 C.3       0 UNK        -0.1800 
      2 C           3.9143  -15.1176  -45.4706 C.2       0 UNK         0.5000 
      3 O           2.6862  -15.0492  -45.3975 O.2       0 UNK        -0.5000 
      4 N           4.5708  -15.2713  -46.6275 N.am      1 UNK        -0.5000 
      5 CA          3.9375  -15.2884  -47.9468 C.3       1 UNK         0.1400 
      6 C6          4.8354  -15.9880  -49.0031 C.3       23 UNK        -0.0398 
      7 S7          4.2878  -15.8641  -50.7463 S.3       23 UNK        -0.2404 
      8 C8          3.0888  -17.2291  -50.8976 C.3       23 UNK        -0.0205 
      9 C9          1.7670  -16.8905  -50.2254 C.ar      23 UNK        -0.0193 
     10 C10         0.9520  -15.8834  -50.7497 C.ar      23 UNK        -0.1150 
     11 C11        -0.2365  -15.5259  -50.1087 C.ar      23 UNK        -0.0193 
     12 C12        -0.6014  -16.1759  -48.9268 C.ar      23 UNK        -0.1150 
     13 C13         0.1870  -17.2098  -48.4095 C.ar      23 UNK        -0.0193 
     14 C14         1.3640  -17.5695  -49.0730 C.ar      23 UNK        -0.1150 
     15 C15        -0.2119  -17.9238  -47.1247 C.3       23 UNK        -0.0205 
     16 S16        -1.9230  -18.5373  -47.1807 S.3       23 UNK        -0.2404 
     17 C17        -1.9589  -19.6184  -45.7132 C.3       23 UNK        -0.0398 
     18 CA         -1.9496  -21.1000  -46.1415 C.3       11 UNK         0.1400 
     19 N          -0.6782  -21.4990  -46.7507 N.am      11 UNK        -0.5000 
     20 C          -0.5458  -22.5229  -47.6029 C.2       10 UNK         0.5000 
     21 O          -1.4771  -23.2537  -47.9343 O.2       10 UNK        -0.5000 
     22 CA          0.8688  -22.8104  -48.1356 C.3       10 UNK         0.1400 
     23 CB          1.1955  -21.8781  -49.3119 C.3       10 UNK        -0.1800 
     24 N           1.8957  -22.6771  -47.1016 N.am      10 UNK        -0.5000 
     25 C           1.9355  -23.4070  -45.9779 C.2       9 UNK         0.5000 
     26 O           1.1515  -24.3238  -45.7374 O.2       9 UNK        -0.5000 
     27 CA          2.9902  -23.0284  -44.9223 C.3       9 UNK         0.1400 
     28 CB          4.2134  -23.9499  -45.0375 C.3       9 UNK        -0.1800 
     29 N           3.4373  -21.6325  -44.9624 N.am      9 UNK        -0.5000 
     30 C           2.6623  -20.5475  -44.8240 C.2       8 UNK         0.5000 
     31 O           1.4291  -20.5768  -44.7791 O.2       8 UNK        -0.5000 
     32 CA          3.4113  -19.2023  -44.7823 C.3       8 UNK         0.1400 
     33 CB          3.5825  -18.6277  -46.1956 C.3       8 UNK        -0.1800 
     34 N           2.7646  -18.2103  -43.9208 N.am      8 UNK        -0.5000 
     35 C           2.6561  -18.3243  -42.5897 C.2       7 UNK         0.5000 
     36 O           3.1352  -19.2616  -41.9492 O.2       7 UNK        -0.5000 
     37 CA          1.9196  -17.2051  -41.8271 C.3       7 UNK         0.1400 
     38 CB          2.8984  -16.3867  -40.9691 C.3       7 UNK        -0.1800 
     39 N           1.1609  -16.2819  -42.6726 N.am      7 UNK        -0.5000 
     40 C          -0.0373  -16.5498  -43.2072 C.2       6 UNK         0.5000 
     41 O          -0.5644  -17.6620  -43.1751 O.2       6 UNK        -0.5000 
     42 CA         -0.7826  -15.3418  -43.8178 C.3       6 UNK         0.1400 
     43 CB         -2.2262  -15.6735  -44.2458 C.3       6 UNK        -0.1800 
     44 N          -0.7721  -14.1708  -42.9286 N.am      6 UNK        -0.5000 
     45 C          -1.1718  -14.1154  -41.6448 C.2       5 UNK         0.5000 
     46 O          -1.6764  -15.0606  -41.0380 O.2       5 UNK        -0.5000 
     47 CA         -0.9475  -12.7903  -40.8881 C.3       5 UNK         0.1400 
     48 CB          0.3088  -12.8935  -40.0082 C.3       5 UNK        -0.1800 
     49 N          -0.8042  -11.6340  -41.7712 N.am      5 UNK        -0.5000 
     50 C          -1.8134  -11.0280  -42.4115 C.2       4 UNK         0.5000 
     51 O          -2.9979  -11.3309  -42.2654 O.2       4 UNK        -0.5000 
     52 CA         -1.4276   -9.9094  -43.4020 C.3       4 UNK         0.1400 
     53 CB         -1.5272   -8.5337  -42.7254 C.3       4 UNK        -0.1800 
     54 N          -0.0855  -10.0653  -43.9781 N.am      4 UNK        -0.5000 
     55 C           0.2968  -11.0953  -44.7437 C.2       3 UNK         0.5000 
     56 O          -0.4376  -12.0456  -45.0252 O.2       3 UNK        -0.5000 
     57 CA          1.7603  -11.1030  -45.2118 C.3       3 UNK         0.1400 
     58 CB          2.6526  -11.7558  -44.1443 C.3       3 UNK        -0.1800 
     59 N           1.8800  -11.8598  -46.4545 N.am      3 UNK        -0.5000 
     60 C           1.5753  -11.3801  -47.6680 C.2       2 UNK         0.5000 
     61 O           1.2873  -10.1997  -47.8743 O.2       2 UNK        -0.5000 
     62 CA          1.5486  -12.3873  -48.8393 C.3       2 UNK         0.1400 
     63 CB          2.0459  -11.7793  -50.1668 C.3       2 UNK        -0.1800 
     64 N           2.2262  -13.6570  -48.5552 N.am      2 UNK        -0.5000 
     65 C           3.5305  -13.8490  -48.3144 C.2       1 UNK         0.5000 
     66 O           4.3841  -12.9593  -48.3268 O.2       1 UNK        -0.5000 
     67 C          -2.3420  -22.0401  -44.9877 C.2       11 UNK         0.5000 
     68 O          -3.5330  -22.2958  -44.8071 O.2       11 UNK        -0.5000 
     69 N          -1.3495  -22.6057  -44.2830 N.am      12 UNK        -0.5000 
     70 CA         -1.5490  -23.6816  -43.3051 C.3       12 UNK         0.1400 
     71 CB         -0.2476  -23.9250  -42.5267 C.3       12 UNK        -0.1800 
     72 C          -2.0538  -24.9834  -43.9641 C.2       12 UNK         0.5000 
     73 O          -2.8493  -25.7042  -43.3624 O.2       12 UNK        -0.5000 
     74 N          -1.6359  -25.2189  -45.2152 N.am      13 UNK        -0.5000 
     75 CA         -2.1030  -26.2848  -46.1026 C.3       13 UNK         0.1400 
     76 CB         -0.9591  -26.6601  -47.0622 C.3       13 UNK        -0.1800 
     77 C          -3.3947  -25.9162  -46.8700 C.2       13 UNK         0.5000 
     78 O          -3.6642  -26.5126  -47.9135 O.2       13 UNK        -0.5000 
     79 N          -4.1693  -24.9453  -46.3602 N.am      14 UNK        -0.5000 
     80 CA         -5.4550  -24.4664  -46.8808 C.3       14 UNK         0.1400 
     81 CB         -6.5330  -25.5645  -46.7628 C.3       14 UNK        -0.1800 
     82 C          -5.3386  -23.8879  -48.3044 C.2       14 UNK         0.5000 
     83 O          -6.0817  -24.2870  -49.2021 O.2       14 UNK        -0.5000 
     84 N          -4.3699  -22.9792  -48.4833 N.am      15 UNK        -0.5000 
     85 CA         -3.9781  -22.3405  -49.7457 C.3       15 UNK         0.1400 
     86 CB         -5.1047  -21.4306  -50.2763 C.3       15 UNK        -0.1800 
     87 C          -3.4841  -23.3758  -50.7758 C.2       15 UNK         0.5000 
     88 O          -3.8843  -23.3381  -51.9396 O.2       15 UNK        -0.5000 
     89 N          -2.6462  -24.3076  -50.2984 N.am      16 UNK        -0.5000 
     90 CA         -2.1144  -25.4769  -51.0034 C.3       16 UNK         0.1400 
     91 CB         -1.0897  -25.0338  -52.0682 C.3       16 UNK        -0.1800 
     92 C          -3.2399  -26.3676  -51.5718 C.2       16 UNK         0.5000 
     93 O          -3.2292  -26.6977  -52.7573 O.2       16 UNK        -0.5000 
     94 N          -4.2196  -26.6918  -50.7150 N.am      17 UNK        -0.5000 
     95 CA         -5.4809  -27.3733  -51.0282 C.3       17 UNK         0.1400 
     96 CB         -5.2276  -28.8473  -51.4068 C.3       17 UNK        -0.1800 
     97 C          -6.3158  -26.6059  -52.0782 C.2       17 UNK         0.5000 
     98 O          -6.7953  -27.1944  -53.0491 O.2       17 UNK        -0.5000 
     99 N          -6.4487  -25.2904  -51.8568 N.am      18 UNK        -0.5000 
    100 CA        -7.1446  -24.2959  -52.6802 C.3       18 UNK         0.1400 
    101 CB        -8.6627  -24.5707  -52.6931 C.3       18 UNK        -0.1800 
    102 C         -6.5612  -24.1036  -54.0989 C.2       18 UNK         0.5000 
    103 O         -7.2663  -23.6100  -54.9815 O.2       18 UNK        -0.5000 
    104 N         -5.2915  -24.4776  -54.3043 N.am      19 UNK        -0.5000 
    105 CA        -4.5756  -24.2978  -55.5667 C.3       19 UNK         0.1400 
    106 CB        -3.4703  -25.3565  -55.6868 C.3       19 UNK        -0.1800 
    107 C         -3.9780  -22.8870  -55.7076 C.2       19 UNK         0.5000 
    108 O         -3.8754  -22.3906  -56.8308 O.2       19 UNK        -0.5000 
    109 N         -3.5804  -22.2681  -54.5869 N.am      20 UNK        -0.5000 
    110 CA        -3.0164  -20.9205  -54.5557 C.3       20 UNK         0.1400 
    111 CB        -2.1988  -20.7326  -53.2676 C.3       20 UNK        -0.1800 
    112 C         -4.1258  -19.8607  -54.6571 C.2       20 UNK         0.5000 
    113 O         -5.1815  -20.0112  -54.0359 O.2       20 UNK        -0.5000 
    114 N         -3.8459  -18.7819  -55.4011 N.am      21 UNK        -0.5000 
    115 CA        -4.7621  -17.6616  -55.6490 C.3       21 UNK         0.1400 
    116 CB        -4.1256  -16.7163  -56.6796 C.3       21 UNK        -0.1800 
    117 C         -5.1667  -16.8818  -54.3814 C.2       21 UNK         0.5000 
    118 O         -6.2300  -16.2604  -54.3651 O.2       21 UNK        -0.5000 
    119 N         -4.3246  -16.9471  -53.3435 N.am      22 UNK        -0.5000 
    120 CA        -4.5875  -16.4048  -52.0020 C.3       22 UNK         0.1400 
    121 C         -5.6115  -17.2319  -51.1667 C.2       22 UNK         0.5000 
    122 N         -6.0587  -18.4019  -51.6103 N.am      22 UNK        -0.7600 
    123 O         -6.0229  -16.7929  -50.0965 O.2       22 UNK        -0.5000 
    124 C124       -3.2725  -16.1832  -51.2112 C.3       23 UNK        -0.0398 
    125 S125       -2.1283  -15.0491  -52.0719 S.3       23 UNK        -0.2404 
    126 C126       -1.1174  -14.4318  -50.6913 C.3       23 UNK        -0.0205 
    127 H127        4.3386  -14.3164  -43.5122 H         1 UNK         0.0600 
    128 H128        5.7827  -14.7529  -44.4253 H         1 UNK         0.0600 
    129 H129        4.7752  -16.0182  -43.7153 H         1 UNK         0.0600 
    130 H130        5.5807  -15.2841  -46.6244 H         1 UNK         0.3000 
    131 H131        3.0287  -15.8819  -47.8546 H         1 UNK         0.0600 
    132 H132        4.9515  -17.0417  -48.7465 H         1 UNK         0.0800 
    133 H133        5.8397  -15.5634  -48.9631 H         1 UNK         0.0800 
    134 H134        3.5188  -18.1453  -50.4900 H         1 UNK         0.0800 
    135 H135        2.9065  -17.4211  -51.9559 H         1 UNK         0.0800 
    136 H136        1.2509  -15.3675  -51.6516 H         1 UNK         0.1150 
    137 H137       -1.5120  -15.8924  -48.4179 H         1 UNK         0.1150 
    138 H138        1.9835  -18.3629  -48.6818 H         1 UNK         0.1150 
    139 H139        0.4532  -18.7671  -46.9367 H         1 UNK         0.0800 
    140 H140       -0.0966  -17.2398  -46.2838 H         1 UNK         0.0800 
    141 H141       -2.8645  -19.3786  -45.1530 H         1 UNK         0.0800 
    142 H142       -1.1200  -19.3989  -45.0517 H         1 UNK         0.0800 
    143 H143       -2.7308  -21.2145  -46.8957 H         1 UNK         0.0600 
    144 H144        0.1465  -21.0003  -46.4404 H         1 UNK         0.3000 
    145 H145        0.8856  -23.8407  -48.4972 H         1 UNK         0.0600 
    146 H146        1.2091  -20.8309  -49.0069 H         1 UNK         0.0600 
    147 H147        2.1672  -22.1149  -49.7455 H         1 UNK         0.0600 
    148 H148        0.4537  -21.9784  -50.1058 H         1 UNK         0.0600 
    149 H149        2.5822  -21.9484  -47.2248 H         1 UNK         0.3000 
    150 H150        2.5356  -23.1901  -43.9434 H         1 UNK         0.0600 
    151 H151        3.9198  -24.9992  -44.9819 H         1 UNK         0.0600 
    152 H152        4.9216  -23.7705  -44.2283 H         1 UNK         0.0600 
    153 H153        4.7379  -23.8055  -45.9829 H         1 UNK         0.0600 
    154 H154        4.4367  -21.4999  -45.0224 H         1 UNK         0.3000 
    155 H155        4.4073  -19.3923  -44.3761 H         1 UNK         0.0600 
    156 H156        3.7608  -19.4079  -46.9370 H         1 UNK         0.0600 
    157 H157        4.4417  -17.9608  -46.2327 H         1 UNK         0.0600 
    158 H158        2.7060  -18.0631  -46.5078 H         1 UNK         0.0600 
    159 H159        2.3280  -17.4183  -44.3698 H         1 UNK         0.3000 
    160 H160        1.2183  -17.6971  -41.1496 H         1 UNK         0.0600 
    161 H161        2.3679  -15.6623  -40.3506 H         1 UNK         0.0600 
    162 H162        3.6165  -15.8419  -41.5809 H         1 UNK         0.0600 
    163 H163        3.4643  -17.0313  -40.2953 H         1 UNK         0.0600 
    164 H164        1.5309  -15.3479  -42.7690 H         1 UNK         0.3000 
    165 H165       -0.2280  -15.0574  -44.7137 H         1 UNK         0.0600 
    166 H166       -2.8383  -15.9847  -43.3988 H         1 UNK         0.0600 
    167 H167       -2.7058  -14.8106  -44.7077 H         1 UNK         0.0600 
    168 H168       -2.2428  -16.4823  -44.9759 H         1 UNK         0.0600 
    169 H169       -0.4437  -13.3161  -43.3616 H         1 UNK         0.3000 
    170 H170       -1.8097  -12.6296  -40.2373 H         1 UNK         0.0600 
    171 H171        1.2085  -13.0466  -40.6057 H         1 UNK         0.0600 
    172 H172        0.4494  -11.9908  -39.4132 H         1 UNK         0.0600 
    173 H173        0.2318  -13.7303  -39.3125 H         1 UNK         0.0600 
    174 H174        0.1339  -11.3018  -41.9372 H         1 UNK         0.3000 
    175 H175       -2.1473   -9.9398  -44.2227 H         1 UNK         0.0600 
    176 H176       -0.8099   -8.4332  -41.9099 H         1 UNK         0.0600 
    177 H177       -1.3429   -7.7289  -43.4374 H         1 UNK         0.0600 
    178 H178       -2.5226   -8.3744  -42.3084 H         1 UNK         0.0600 
    179 H179        0.5767   -9.3293  -43.7771 H         1 UNK         0.3000 
    180 H180        2.0951  -10.0766  -45.3763 H         1 UNK         0.0600 
    181 H181        2.3126  -12.7615  -43.8945 H         1 UNK         0.0600 
    182 H182        2.6522  -11.1723  -43.2229 H         1 UNK         0.0600 
    183 H183        3.6865  -11.8256  -44.4829 H         1 UNK         0.0600 
    184 H184        2.0531  -12.8512  -46.3595 H         1 UNK         0.3000 
    185 H185        0.4966  -12.6401  -48.9725 H         1 UNK         0.0600 
    186 H186        1.4262  -10.9337  -50.4670 H         1 UNK         0.0600 
    187 H187        3.0720  -11.4196  -50.0895 H         1 UNK         0.0600 
    188 H188        2.0066  -12.5112  -50.9739 H         1 UNK         0.0600 
    189 H189        1.6163  -14.4622  -48.5124 H         1 UNK         0.3000 
    190 H190       -0.3962  -22.3406  -44.4890 H         1 UNK         0.3000 
    191 H191       -2.3103  -23.3508  -42.5955 H         1 UNK         0.0600 
    192 H192        0.5356  -24.3347  -43.1632 H         1 UNK         0.0600 
    193 H193        0.1268  -23.0037  -42.0800 H         1 UNK         0.0600 
    194 H194       -0.4105  -24.6369  -41.7167 H         1 UNK         0.0600 
    195 H195       -0.9307  -24.6032  -45.6035 H         1 UNK         0.3000 
    196 H196       -2.3350  -27.1659  -45.5014 H         1 UNK         0.0600 
    197 H197       -0.0579  -26.9317  -46.5123 H         1 UNK         0.0600 
    198 H198       -0.7056  -25.8357  -47.7285 H         1 UNK         0.0600 
    199 H199       -1.2271  -27.5154  -47.6836 H         1 UNK         0.0600 
    200 H200       -3.8471  -24.4809  -45.5215 H         1 UNK         0.3000 
    201 H201       -5.7582  -23.6386  -46.2381 H         1 UNK         0.0600 
    202 H202       -7.5135  -25.1795  -47.0454 H         1 UNK         0.0600 
    203 H203       -6.6114  -25.9309  -45.7393 H         1 UNK         0.0600 
    204 H204       -6.3199  -26.4169  -47.4087 H         1 UNK         0.0600 
    205 H205       -3.7470  -22.8101  -47.7062 H         1 UNK         0.3000 
    206 H206       -3.1221  -21.7016  -49.5244 H         1 UNK         0.0600 
    207 H207       -5.3612  -20.6620  -49.5475 H         1 UNK         0.0600 
    208 H208       -6.0111  -21.9889  -50.5054 H         1 UNK         0.0600 
    209 H209       -4.8020  -20.9205  -51.1901 H         1 UNK         0.0600 
    210 H210       -2.3566  -24.2058  -49.3295 H         1 UNK         0.3000 
    211 H211       -1.5878  -26.0781  -50.2609 H         1 UNK         0.0600 
    212 H212       -0.2893  -24.4446  -51.6206 H         1 UNK         0.0600 
    213 H213       -0.6282  -25.8964  -52.5500 H         1 UNK         0.0600 
    214 H214       -1.5512  -24.4295  -52.8497 H         1 UNK         0.0600 
    215 H215       -4.1097  -26.4118  -49.7425 H         1 UNK         0.3000 
    216 H216       -6.0662  -27.3655  -50.1074 H         1 UNK         0.0600 
    217 H217       -6.1684  -29.3858  -51.5258 H         1 UNK         0.0600 
    218 H218       -4.6787  -28.9381  -52.3445 H         1 UNK         0.0600 
    219 H219       -4.6564  -29.3593  -50.6326 H         1 UNK         0.0600 
    220 H220       -6.0516  -24.9201  -50.9964 H         1 UNK         0.3000 
    221 H221       -6.9931  -23.3421  -52.1749 H         1 UNK         0.0600 
    222 H222       -8.9044  -25.4802  -53.2436 H         1 UNK         0.0600 
    223 H223       -9.0520  -24.6766  -51.6805 H         1 UNK         0.0600 
    224 H224       -9.2069  -23.7504  -53.1624 H         1 UNK         0.0600 
    225 H225       -4.7600  -24.8354  -53.5202 H         1 UNK         0.3000 
    226 H226       -5.2715  -24.4511  -56.3944 H         1 UNK         0.0600 
    227 H227       -3.8736  -26.3639  -55.5812 H         1 UNK         0.0600 
    228 H228       -2.9816  -25.3004  -56.6601 H         1 UNK         0.0600 
    229 H229       -2.7002  -25.2214  -54.9270 H         1 UNK         0.0600 
    230 H230       -3.7454  -22.7131  -53.6864 H         1 UNK         0.3000 
    231 H231       -2.3372  -20.8086  -55.4037 H         1 UNK         0.0600 
    232 H232       -1.6910  -19.7674  -53.2651 H         1 UNK         0.0600 
    233 H233       -1.4341  -21.5034  -53.1687 H         1 UNK         0.0600 
    234 H234       -2.8271  -20.7709  -52.3791 H         1 UNK         0.0600 
    235 H235       -2.9503  -18.7309  -55.8651 H         1 UNK         0.3000 
    236 H236       -5.6768  -18.0729  -56.0808 H         1 UNK         0.0600 
    237 H237       -3.1901  -16.2926  -56.3121 H         1 UNK         0.0600 
    238 H238       -3.9167  -17.2344  -57.6157 H         1 UNK         0.0600 
    239 H239       -4.7928  -15.8852  -56.9125 H         1 UNK         0.0600 
    240 H240       -3.4673  -17.4661  -53.4544 H         1 UNK         0.3000 
    241 H241       -5.0502  -15.4249  -52.1352 H         1 UNK         0.0600 
    242 H242       -5.7402  -18.7941  -52.4893 H         1 UNK         0.3800 
    243 H243       -6.7318  -18.9072  -51.0581 H         1 UNK         0.3800 
    244 H244       -3.4905  -15.7675  -50.2258 H         1 UNK         0.0800 
    245 H245       -2.7615  -17.1321  -51.0381 H         1 UNK         0.0800 
    246 H246       -1.7629  -14.0006  -49.9245 H         1 UNK         0.0800 
    247 H247       -0.4910  -13.6172  -51.0571 H         1 UNK         0.0800 
@<TRIPOS>BOND
     1    1    2 1    
     2    1  127 1    
     3    1  128 1    
     4    1  129 1    
     5    2    3 2    
     6    2    4 am   BACKBONE|DICT|INTERRES
     7    4    5 1    
     8    4  130 1    
     9    5    6 1    
    10    5   65 1    
    11    5  131 1    
    12    6    7 1    
    13    6  132 1    
    14    6  133 1    
    15    7    8 1    
    16    8    9 1    
    17    8  134 1    
    18    8  135 1    
    19    9   10 ar   
    20    9   14 ar   
    21   10   11 ar   
    22   10  136 1    
    23   11   12 ar   
    24   11  126 1    
    25   12   13 ar   
    26   12  137 1    
    27   13   14 ar   
    28   13   15 1    
    29   14  138 1    
    30   15   16 1    
    31   15  139 1    
    32   15  140 1    
    33   16   17 1    
    34   17   18 1    
    35   17  141 1    
    36   17  142 1    
    37   18   19 1    
    38   18   67 1    
    39   18  143 1    
    40   19   20 am   BACKBONE|DICT|INTERRES
    41   19  144 1    
    42   20   21 2    
    43   20   22 1    
    44   22   23 1    
    45   22   24 1    
    46   22  145 1    
    47   23  146 1    
    48   23  147 1    
    49   23  148 1    
    50   24   25 am   BACKBONE|DICT|INTERRES
    51   24  149 1    
    52   25   26 2    
    53   25   27 1    
    54   27   28 1    
    55   27   29 1    
    56   27  150 1    
    57   28  151 1    
    58   28  152 1    
    59   28  153 1    
    60   29   30 am   BACKBONE|DICT|INTERRES
    61   29  154 1    
    62   30   31 2    
    63   30   32 1    
    64   32   33 1    
    65   32   34 1    
    66   32  155 1    
    67   33  156 1    
    68   33  157 1    
    69   33  158 1    
    70   34   35 am   BACKBONE|DICT|INTERRES
    71   34  159 1    
    72   35   36 2    
    73   35   37 1    
    74   37   38 1    
    75   37   39 1    
    76   37  160 1    
    77   38  161 1    
    78   38  162 1    
    79   38  163 1    
    80   39   40 am   BACKBONE|DICT|INTERRES
    81   39  164 1    
    82   40   41 2    
    83   40   42 1    
    84   42   43 1    
    85   42   44 1    
    86   42  165 1    
    87   43  166 1    
    88   43  167 1    
    89   43  168 1    
    90   44   45 am   BACKBONE|DICT|INTERRES
    91   44  169 1    
    92   45   46 2    
    93   45   47 1    
    94   47   48 1    
    95   47   49 1    
    96   47  170 1    
    97   48  171 1    
    98   48  172 1    
    99   48  173 1    
   100   49   50 am   BACKBONE|DICT|INTERRES
   101   49  174 1    
   102   50   51 2    
   103   50   52 1    
   104   52   53 1    
   105   52   54 1    
   106   52  175 1    
   107   53  176 1    
   108   53  177 1    
   109   53  178 1    
   110   54   55 am   BACKBONE|DICT|INTERRES
   111   54  179 1    
   112   55   56 2    
   113   55   57 1    
   114   57   58 1    
   115   57   59 1    
   116   57  180 1    
   117   58  181 1    
   118   58  182 1    
   119   58  183 1    
   120   59   60 am   BACKBONE|DICT|INTERRES
   121   59  184 1    
   122   60   61 2    
   123   60   62 1    
   124   62   63 1    
   125   62   64 1    
   126   62  185 1    
   127   63  186 1    
   128   63  187 1    
   129   63  188 1    
   130   64   65 am   BACKBONE|DICT|INTERRES
   131   64  189 1    
   132   65   66 2    
   133   67   68 2    
   134   67   69 am   BACKBONE|DICT|INTERRES
   135   69   70 1    
   136   69  190 1    
   137   70   71 1    
   138   70   72 1    
   139   70  191 1    
   140   71  192 1    
   141   71  193 1    
   142   71  194 1    
   143   72   73 2    
   144   72   74 am   BACKBONE|DICT|INTERRES
   145   74   75 1    
   146   74  195 1    
   147   75   76 1    
   148   75   77 1    
   149   75  196 1    
   150   76  197 1    
   151   76  198 1    
   152   76  199 1    
   153   77   78 2    
   154   77   79 am   BACKBONE|DICT|INTERRES
   155   79   80 1    
   156   79  200 1    
   157   80   81 1    
   158   80   82 1    
   159   80  201 1    
   160   81  202 1    
   161   81  203 1    
   162   81  204 1    
   163   82   83 2    
   164   82   84 am   BACKBONE|DICT|INTERRES
   165   84   85 1    
   166   84  205 1    
   167   85   86 1    
   168   85   87 1    
   169   85  206 1    
   170   86  207 1    
   171   86  208 1    
   172   86  209 1    
   173   87   88 2    
   174   87   89 am   BACKBONE|DICT|INTERRES
   175   89   90 1    
   176   89  210 1    
   177   90   91 1    
   178   90   92 1    
   179   90  211 1    
   180   91  212 1    
   181   91  213 1    
   182   91  214 1    
   183   92   93 2    
   184   92   94 am   BACKBONE|DICT|INTERRES
   185   94   95 1    
   186   94  215 1    
   187   95   96 1    
   188   95   97 1    
   189   95  216 1    
   190   96  217 1    
   191   96  218 1    
   192   96  219 1    
   193   97   98 2    
   194   97   99 am   BACKBONE|DICT|INTERRES
   195   99  100 1    
   196   99  220 1    
   197  100  101 1    
   198  100  102 1    
   199  100  221 1    
   200  101  222 1    
   201  101  223 1    
   202  101  224 1    
   203  102  103 2    
   204  102  104 am   BACKBONE|DICT|INTERRES
   205  104  105 1    
   206  104  225 1    
   207  105  106 1    
   208  105  107 1    
   209  105  226 1    
   210  106  227 1    
   211  106  228 1    
   212  106  229 1    
   213  107  108 2    
   214  107  109 am   BACKBONE|DICT|INTERRES
   215  109  110 1    
   216  109  230 1    
   217  110  111 1    
   218  110  112 1    
   219  110  231 1    
   220  111  232 1    
   221  111  233 1    
   222  111  234 1    
   223  112  113 2    
   224  112  114 am   BACKBONE|DICT|INTERRES
   225  114  115 1    
   226  114  235 1    
   227  115  116 1    
   228  115  117 1    
   229  115  236 1    
   230  116  237 1    
   231  116  238 1    
   232  116  239 1    
   233  117  118 2    
   234  117  119 am   BACKBONE|DICT|INTERRES
   235  119  120 1    
   236  119  240 1    
   237  120  121 1    
   238  120  124 1    
   239  120  241 1    
   240  121  122 am   BACKBONE|DICT|INTERRES
   241  121  123 2    
   242  122  242 1    
   243  122  243 1    
   244  124  125 1    
   245  124  244 1    
   246  124  245 1    
   247  125  126 1    
   248  126  246 1    
   249  126  247 1    
@<TRIPOS>SUBSTRUCTURE
     1 UNK         1 GROUP             0       ****    0 ROOT    
