@<TRIPOS>MOLECULE
3R540
247   249    1
SMALL
USER_CHARGES


@<TRIPOS>ATOM
      1 CA         -2.8656  -19.6467  -47.4996 C.3       0 UNK        -0.1800 
      2 C          -2.3132  -18.2386  -47.6224 C.2       0 UNK         0.5000 
      3 O          -2.6281  -17.3883  -46.7916 O.2       0 UNK        -0.5000 
      4 N          -1.5166  -17.9708  -48.6683 N.am      1 UNK        -0.5000 
      5 CA         -0.8124  -16.7070  -48.9557 C.3       1 UNK         0.1400 
      6 C6          0.1266  -16.2955  -47.7845 C.3       23 UNK        -0.0398 
      7 S7          1.4328  -15.0981  -48.2274 S.3       23 UNK        -0.2404 
      8 C8          2.9414  -16.1245  -48.1778 C.3       23 UNK        -0.0205 
      9 C9          2.8836  -17.3126  -49.1296 C.ar      23 UNK        -0.0193 
     10 C10         2.5453  -17.1254  -50.4728 C.ar      23 UNK        -0.1150 
     11 C11         2.4392  -18.2156  -51.3377 C.ar      23 UNK        -0.0193 
     12 C12         2.7238  -19.4986  -50.8643 C.ar      23 UNK        -0.1150 
     13 C13         3.0853  -19.7001  -49.5285 C.ar      23 UNK        -0.0193 
     14 C14         3.1632  -18.6025  -48.6664 C.ar      23 UNK        -0.1150 
     15 C15         3.4102  -21.1000  -49.0243 C.3       23 UNK        -0.0205 
     16 S16         2.0405  -22.2704  -49.2882 S.3       23 UNK        -0.2404 
     17 C17         0.8134  -21.7293  -48.0517 C.3       23 UNK        -0.0398 
     18 CA          0.4357  -22.9005  -47.1137 C.3       11 UNK         0.1400 
     19 N           1.5251  -23.2873  -46.2149 N.am      11 UNK        -0.5000 
     20 C           1.5966  -24.4746  -45.5957 C.2       10 UNK         0.5000 
     21 O           0.7501  -25.3597  -45.7309 O.2       10 UNK        -0.5000 
     22 CA          2.7761  -24.6945  -44.6269 C.3       10 UNK         0.1400 
     23 CB          3.9472  -25.3691  -45.3559 C.3       10 UNK        -0.1800 
     24 N           3.2534  -23.4643  -43.9886 N.am      10 UNK        -0.5000 
     25 C           2.5128  -22.6681  -43.2054 C.2       9 UNK         0.5000 
     26 O           1.3399  -22.9077  -42.9189 O.2       9 UNK        -0.5000 
     27 CA          3.1545  -21.3595  -42.7004 C.3       9 UNK         0.1400 
     28 CB          4.6837  -21.2797  -42.9043 C.3       9 UNK        -0.1800 
     29 N           2.5016  -20.1884  -43.2901 N.am      9 UNK        -0.5000 
     30 C           2.3605  -19.9155  -44.5954 C.2       8 UNK         0.5000 
     31 O           2.7766  -20.6425  -45.4978 O.2       8 UNK        -0.5000 
     32 CA          1.6339  -18.6095  -44.9612 C.3       8 UNK         0.1400 
     33 CB          0.1145  -18.8113  -44.9765 C.3       8 UNK        -0.1800 
     34 N           1.9571  -17.4940  -44.0754 N.am      8 UNK        -0.5000 
     35 C           3.1538  -16.8945  -44.0072 C.2       7 UNK         0.5000 
     36 O           4.1211  -17.2062  -44.7019 O.2       7 UNK        -0.5000 
     37 CA          3.2899  -15.7578  -42.9811 C.3       7 UNK         0.1400 
     38 CB          2.7373  -14.4398  -43.5492 C.3       7 UNK        -0.1800 
     39 N           2.5984  -16.0873  -41.7348 N.am      7 UNK        -0.5000 
     40 C           3.1127  -16.8686  -40.7737 C.2       6 UNK         0.5000 
     41 O           4.2565  -17.3234  -40.8020 O.2       6 UNK        -0.5000 
     42 CA          2.1966  -17.2109  -39.5816 C.3       6 UNK         0.1400 
     43 CB          2.3837  -16.1887  -38.4501 C.3       6 UNK        -0.1800 
     44 N           0.7788  -17.2708  -39.9397 N.am      6 UNK        -0.5000 
     45 C           0.2291  -18.2006  -40.7334 C.2       5 UNK         0.5000 
     46 O           0.8555  -19.1402  -41.2202 O.2       5 UNK        -0.5000 
     47 CA         -1.2593  -18.0155  -41.0873 C.3       5 UNK         0.1400 
     48 CB         -2.1504  -18.7490  -40.0748 C.3       5 UNK        -0.1800 
     49 N          -1.6678  -16.6093  -41.1722 N.am      5 UNK        -0.5000 
     50 C          -1.1580  -15.7221  -42.0369 C.2       4 UNK         0.5000 
     51 O          -0.2596  -15.9907  -42.8389 O.2       4 UNK        -0.5000 
     52 CA         -1.6853  -14.2795  -41.9304 C.3       4 UNK         0.1400 
     53 CB         -0.8177  -13.4777  -40.9475 C.3       4 UNK        -0.1800 
     54 N          -1.6851  -13.5941  -43.2229 N.am      4 UNK        -0.5000 
     55 C          -2.4578  -13.9296  -44.2632 C.2       3 UNK         0.5000 
     56 O          -3.3187  -14.8126  -44.2131 O.2       3 UNK        -0.5000 
     57 CA         -2.2445  -13.1411  -45.5686 C.3       3 UNK         0.1400 
     58 CB         -0.7552  -12.8754  -45.8725 C.3       3 UNK        -0.1800 
     59 N          -2.8454  -13.8901  -46.6663 N.am      3 UNK        -0.5000 
     60 C          -3.3726  -13.3807  -47.7864 C.2       2 UNK         0.5000 
     61 O          -3.4155  -12.1758  -48.0402 O.2       2 UNK        -0.5000 
     62 CA         -3.9215  -14.4207  -48.7880 C.3       2 UNK         0.1400 
     63 CB         -4.3107  -13.8314  -50.1599 C.3       2 UNK        -0.1800 
     64 N          -2.9980  -15.5549  -48.9040 N.am      2 UNK        -0.5000 
     65 C          -1.7423  -15.5397  -49.3777 C.2       1 UNK         0.5000 
     66 O          -1.3031  -14.6539  -50.1095 O.2       1 UNK        -0.5000 
     67 C          -0.8849  -22.6321  -46.3648 C.2       11 UNK         0.5000 
     68 O          -1.9354  -22.6995  -47.0026 O.2       11 UNK        -0.5000 
     69 N          -0.8404  -22.3875  -45.0432 N.am      12 UNK        -0.5000 
     70 CA         -2.0330  -22.2457  -44.2005 C.3       12 UNK         0.1400 
     71 CB         -1.6467  -21.7136  -42.8106 C.3       12 UNK        -0.1800 
     72 C          -2.7995  -23.5724  -44.0596 C.2       12 UNK         0.5000 
     73 O          -4.0300  -23.5668  -44.0710 O.2       12 UNK        -0.5000 
     74 N          -2.0561  -24.6843  -43.9611 N.am      13 UNK        -0.5000 
     75 CA         -2.6007  -26.0410  -43.8967 C.3       13 UNK         0.1400 
     76 CB         -1.5103  -27.0048  -43.4046 C.3       13 UNK        -0.1800 
     77 C          -3.1693  -26.5024  -45.2505 C.2       13 UNK         0.5000 
     78 O          -4.1883  -27.1930  -45.2798 O.2       13 UNK        -0.5000 
     79 N          -2.5125  -26.0931  -46.3449 N.am      14 UNK        -0.5000 
     80 CA         -2.9495  -26.3516  -47.7183 C.3       14 UNK         0.1400 
     81 CB         -1.7603  -26.1298  -48.6660 C.3       14 UNK        -0.1800 
     82 C          -4.1396  -25.4721  -48.1525 C.2       14 UNK         0.5000 
     83 O          -4.8581  -25.8509  -49.0778 O.2       14 UNK        -0.5000 
     84 N          -4.2979  -24.3091  -47.5010 N.am      15 UNK        -0.5000 
     85 CA         -5.2150  -23.2113  -47.8284 C.3       15 UNK         0.1400 
     86 CB         -6.6864  -23.6410  -47.6579 C.3       15 UNK        -0.1800 
     87 C          -4.9116  -22.5975  -49.2126 C.2       15 UNK         0.5000 
     88 O          -5.8260  -22.2163  -49.9464 O.2       15 UNK        -0.5000 
     89 N          -3.6173  -22.5234  -49.5491 N.am      16 UNK        -0.5000 
     90 CA         -3.0993  -22.0728  -50.8390 C.3       16 UNK         0.1400 
     91 CB         -1.7548  -22.7724  -51.0963 C.3       16 UNK        -0.1800 
     92 C          -3.0041  -20.5364  -50.8884 C.2       16 UNK         0.5000 
     93 O          -1.9077  -19.9726  -50.8683 O.2       16 UNK        -0.5000 
     94 N          -4.1705  -19.8828  -50.8828 N.am      17 UNK        -0.5000 
     95 CA         -4.3229  -18.4343  -50.9947 C.3       17 UNK         0.1400 
     96 CB         -5.7158  -18.0433  -50.4800 C.3       17 UNK        -0.1800 
     97 C          -4.1302  -17.9557  -52.4413 C.2       17 UNK         0.5000 
     98 O          -4.3351  -18.7295  -53.3795 O.2       17 UNK        -0.5000 
     99 N          -3.8001  -16.6678  -52.6052 N.am      18 UNK        -0.5000 
    100 CA        -3.6084  -16.0069  -53.9023 C.3       18 UNK         0.1400 
    101 CB        -3.1568  -14.5584  -53.6703 C.3       18 UNK        -0.1800 
    102 C         -4.8475  -16.0517  -54.8204 C.2       18 UNK         0.5000 
    103 O         -4.6971  -16.1002  -56.0411 O.2       18 UNK        -0.5000 
    104 N         -6.0442  -16.1067  -54.2176 N.am      19 UNK        -0.5000 
    105 CA        -7.3275  -16.3141  -54.8952 C.3       19 UNK         0.1400 
    106 CB        -8.4607  -16.0984  -53.8805 C.3       19 UNK        -0.1800 
    107 C         -7.4611  -17.7005  -55.5633 C.2       19 UNK         0.5000 
    108 O         -8.2411  -17.8427  -56.5050 O.2       19 UNK        -0.5000 
    109 N         -6.6855  -18.6836  -55.0861 N.am      20 UNK        -0.5000 
    110 CA        -6.5682  -20.0337  -55.6388 C.3       20 UNK         0.1400 
    111 CB        -6.6384  -21.0445  -54.4790 C.3       20 UNK        -0.1800 
    112 C         -5.2692  -20.1925  -56.4601 C.2       20 UNK         0.5000 
    113 O         -4.8119  -21.3182  -56.6584 O.2       20 UNK        -0.5000 
    114 N         -4.6925  -19.0648  -56.9070 N.am      21 UNK        -0.5000 
    115 CA        -3.4416  -18.9134  -57.6621 C.3       21 UNK         0.1400 
    116 CB        -3.4598  -19.7259  -58.9742 C.3       21 UNK        -0.1800 
    117 C         -2.1631  -19.1525  -56.8298 C.2       21 UNK         0.5000 
    118 O         -1.0719  -19.1902  -57.4011 O.2       21 UNK        -0.5000 
    119 N         -2.3056  -19.2452  -55.5013 N.am      22 UNK        -0.5000 
    120 CA        -1.2351  -19.4151  -54.5092 C.3       22 UNK         0.1400 
    121 C         -0.5234  -20.8007  -54.5377 C.2       22 UNK         0.5000 
    122 N          0.3750  -21.0509  -53.5954 N.am      22 UNK        -0.7600 
    123 O         -0.7857  -21.6623  -55.3736 O.2       22 UNK        -0.5000 
    124 C124       -0.2418  -18.2147  -54.5057 C.3       23 UNK        -0.0398 
    125 S125        0.1868  -17.6978  -52.8124 S.3       23 UNK        -0.2404 
    126 C126        1.9797  -18.0076  -52.7696 C.3       23 UNK        -0.0205 
    127 H127       -2.8380  -19.9710  -46.4604 H         1 UNK         0.0600 
    128 H128       -2.2788  -20.3491  -48.0875 H         1 UNK         0.0600 
    129 H129       -3.8991  -19.6810  -47.8432 H         1 UNK         0.0600 
    130 H130       -1.3747  -18.6967  -49.3660 H         1 UNK         0.3000 
    131 H131       -0.1908  -16.9279  -49.8236 H         1 UNK         0.0600 
    132 H132        0.6130  -17.1864  -47.3934 H         1 UNK         0.0800 
    133 H133       -0.4455  -15.8861  -46.9513 H         1 UNK         0.0800 
    134 H134        3.7981  -15.5042  -48.4431 H         1 UNK         0.0800 
    135 H135        3.1070  -16.4547  -47.1520 H         1 UNK         0.0800 
    136 H136        2.3217  -16.1326  -50.8377 H         1 UNK         0.1150 
    137 H137        2.6532  -20.3473  -51.5299 H         1 UNK         0.1150 
    138 H138        3.4496  -18.7550  -47.6356 H         1 UNK         0.1150 
    139 H139        4.2879  -21.4652  -49.5589 H         1 UNK         0.0800 
    140 H140        3.6791  -21.0896  -47.9674 H         1 UNK         0.0800 
    141 H141       -0.0558  -21.3650  -48.6006 H         1 UNK         0.0800 
    142 H142        1.1853  -20.8734  -47.4899 H         1 UNK         0.0800 
    143 H143        0.2296  -23.7615  -47.7523 H         1 UNK         0.0600 
    144 H144        2.2280  -22.5805  -46.0251 H         1 UNK         0.3000 
    145 H145        2.4297  -25.3654  -43.8381 H         1 UNK         0.0600 
    146 H146        4.7565  -25.6096  -44.6662 H         1 UNK         0.0600 
    147 H147        4.3527  -24.7307  -46.1420 H         1 UNK         0.0600 
    148 H148        3.6310  -26.3033  -45.8222 H         1 UNK         0.0600 
    149 H149        4.1970  -23.1785  -44.2054 H         1 UNK         0.3000 
    150 H150        2.9585  -21.3158  -41.6281 H         1 UNK         0.0600 
    151 H151        5.1897  -22.1195  -42.4264 H         1 UNK         0.0600 
    152 H152        5.0837  -20.3693  -42.4572 H         1 UNK         0.0600 
    153 H153        4.9634  -21.2745  -43.9583 H         1 UNK         0.0600 
    154 H154        2.0318  -19.5839  -42.6208 H         1 UNK         0.3000 
    155 H155        1.9496  -18.3357  -45.9665 H         1 UNK         0.0600 
    156 H156       -0.1753  -19.5902  -45.6815 H         1 UNK         0.0600 
    157 H157       -0.4016  -17.8957  -45.2629 H         1 UNK         0.0600 
    158 H158       -0.2556  -19.0939  -43.9945 H         1 UNK         0.0600 
    159 H159        1.1994  -17.1242  -43.5097 H         1 UNK         0.3000 
    160 H160        4.3526  -15.6139  -42.7737 H         1 UNK         0.0600 
    161 H161        1.6817  -14.5154  -43.8105 H         1 UNK         0.0600 
    162 H162        3.2745  -14.1530  -44.4541 H         1 UNK         0.0600 
    163 H163        2.8474  -13.6251  -42.8335 H         1 UNK         0.0600 
    164 H164        1.6313  -15.8017  -41.6682 H         1 UNK         0.3000 
    165 H165        2.4936  -18.1934  -39.2085 H         1 UNK         0.0600 
    166 H166        1.7999  -16.4619  -37.5709 H         1 UNK         0.0600 
    167 H167        3.4284  -16.1352  -38.1410 H         1 UNK         0.0600 
    168 H168        2.0806  -15.1871  -38.7577 H         1 UNK         0.0600 
    169 H169        0.1873  -16.5360  -39.5812 H         1 UNK         0.3000 
    170 H170       -1.4239  -18.4645  -42.0679 H         1 UNK         0.0600 
    171 H171       -2.0585  -18.3245  -39.0743 H         1 UNK         0.0600 
    172 H172       -1.8803  -19.8041  -40.0105 H         1 UNK         0.0600 
    173 H173       -3.1999  -18.7018  -40.3659 H         1 UNK         0.0600 
    174 H174       -2.3914  -16.3124  -40.5332 H         1 UNK         0.3000 
    175 H175       -2.7112  -14.3049  -41.5571 H         1 UNK         0.0600 
    176 H176        0.2187  -13.4154  -41.2828 H         1 UNK         0.0600 
    177 H177       -1.1931  -12.4611  -40.8286 H         1 UNK         0.0600 
    178 H178       -0.8154  -13.9379  -39.9585 H         1 UNK         0.0600 
    179 H179       -0.9859  -12.8778  -43.3488 H         1 UNK         0.3000 
    180 H180       -2.7646  -12.1874  -45.4594 H         1 UNK         0.0600 
    181 H181       -0.6211  -12.4505  -46.8675 H         1 UNK         0.0600 
    182 H182       -0.1642  -13.7901  -45.8204 H         1 UNK         0.0600 
    183 H183       -0.3259  -12.1661  -45.1647 H         1 UNK         0.0600 
    184 H184       -2.9184  -14.8860  -46.4943 H         1 UNK         0.3000 
    185 H185       -4.8331  -14.8174  -48.3387 H         1 UNK         0.0600 
    186 H186       -4.7221  -14.5971  -50.8153 H         1 UNK         0.0600 
    187 H187       -5.0771  -13.0642  -50.0455 H         1 UNK         0.0600 
    188 H188       -3.4650  -13.3657  -50.6654 H         1 UNK         0.0600 
    189 H189       -3.1979  -16.3228  -48.2702 H         1 UNK         0.3000 
    190 H190        0.0507  -22.4066  -44.5611 H         1 UNK         0.3000 
    191 H191       -2.6958  -21.5176  -44.6712 H         1 UNK         0.0600 
    192 H192       -0.9838  -20.8540  -42.8719 H         1 UNK         0.0600 
    193 H193       -1.1421  -22.4717  -42.2112 H         1 UNK         0.0600 
    194 H194       -2.5332  -21.4035  -42.2564 H         1 UNK         0.0600 
    195 H195       -1.0496  -24.5978  -43.9738 H         1 UNK         0.3000 
    196 H196       -3.4162  -26.0508  -43.1701 H         1 UNK         0.0600 
    197 H197       -1.1378  -26.7110  -42.4231 H         1 UNK         0.0600 
    198 H198       -0.6618  -27.0398  -44.0887 H         1 UNK         0.0600 
    199 H199       -1.8999  -28.0195  -43.3139 H         1 UNK         0.0600 
    200 H200       -1.6568  -25.5685  -46.2253 H         1 UNK         0.3000 
    201 H201       -3.2585  -27.3963  -47.7943 H         1 UNK         0.0600 
    202 H202       -0.8997  -26.7316  -48.3730 H         1 UNK         0.0600 
    203 H203       -1.4513  -25.0849  -48.6844 H         1 UNK         0.0600 
    204 H204       -2.0204  -26.4089  -49.6878 H         1 UNK         0.0600 
    205 H205       -3.6079  -24.0828  -46.7963 H         1 UNK         0.3000 
    206 H206       -5.0151  -22.4248  -47.0990 H         1 UNK         0.0600 
    207 H207       -6.9847  -24.3788  -48.4030 H         1 UNK         0.0600 
    208 H208       -6.8582  -24.0710  -46.6711 H         1 UNK         0.0600 
    209 H209       -7.3558  -22.7861  -47.7604 H         1 UNK         0.0600 
    210 H210       -2.9336  -22.7821  -48.8469 H         1 UNK         0.3000 
    211 H211       -3.7855  -22.3840  -51.6298 H         1 UNK         0.0600 
    212 H212       -1.0029  -22.5006  -50.3574 H         1 UNK         0.0600 
    213 H213       -1.3644  -22.5090  -52.0780 H         1 UNK         0.0600 
    214 H214       -1.8655  -23.8567  -51.0756 H         1 UNK         0.0600 
    215 H215       -5.0211  -20.4329  -50.8630 H         1 UNK         0.3000 
    216 H216       -3.5729  -17.9485  -50.3737 H         1 UNK         0.0600 
    217 H217       -5.8576  -16.9622  -50.5034 H         1 UNK         0.0600 
    218 H218       -5.8567  -18.3637  -49.4475 H         1 UNK         0.0600 
    219 H219       -6.5078  -18.4930  -51.0808 H         1 UNK         0.0600 
    220 H220       -3.6425  -16.0935  -51.7903 H         1 UNK         0.3000 
    221 H221       -2.8061  -16.5330  -54.4201 H         1 UNK         0.0600 
    222 H222       -3.9275  -13.9706  -53.1710 H         1 UNK         0.0600 
    223 H223       -2.2536  -14.5183  -53.0605 H         1 UNK         0.0600 
    224 H224       -2.9312  -14.0649  -54.6166 H         1 UNK         0.0600 
    225 H225       -6.0718  -16.0572  -53.2105 H         1 UNK         0.3000 
    226 H226       -7.4197  -15.5611  -55.6805 H         1 UNK         0.0600 
    227 H227       -8.4258  -15.0945  -53.4568 H         1 UNK         0.0600 
    228 H228       -9.4367  -16.2160  -54.3533 H         1 UNK         0.0600 
    229 H229       -8.4059  -16.8133  -53.0583 H         1 UNK         0.0600 
    230 H230       -6.0332  -18.4750  -54.3372 H         1 UNK         0.3000 
    231 H231       -7.4006  -20.2383  -56.3147 H         1 UNK         0.0600 
    232 H232       -6.6467  -22.0698  -54.8506 H         1 UNK         0.0600 
    233 H233       -7.5466  -20.9077  -53.8918 H         1 UNK         0.0600 
    234 H234       -5.7868  -20.9472  -53.8048 H         1 UNK         0.0600 
    235 H235       -5.1353  -18.1882  -56.6603 H         1 UNK         0.3000 
    236 H236       -3.4070  -17.8598  -57.9430 H         1 UNK         0.0600 
    237 H237       -3.3831  -20.7977  -58.7912 H         1 UNK         0.0600 
    238 H238       -4.3733  -19.5437  -59.5401 H         1 UNK         0.0600 
    239 H239       -2.6223  -19.4485  -59.6152 H         1 UNK         0.0600 
    240 H240       -3.2405  -19.2145  -55.1126 H         1 UNK         0.3000 
    241 H241       -1.7775  -19.4152  -53.5651 H         1 UNK         0.0600 
    242 H242        0.8440  -21.9426  -53.5876 H         1 UNK         0.3800 
    243 H243        0.5470  -20.3827  -52.8599 H         1 UNK         0.3800 
    244 H244        0.6530  -18.4333  -55.0910 H         1 UNK         0.0800 
    245 H245       -0.6857  -17.3423  -54.9854 H         1 UNK         0.0800 
    246 H246        2.5051  -17.1599  -53.2117 H         1 UNK         0.0800 
    247 H247        2.2325  -18.8785  -53.3758 H         1 UNK         0.0800 
@<TRIPOS>BOND
     1    1    2 1    
     2    1  127 1    
     3    1  128 1    
     4    1  129 1    
     5    2    3 2    
     6    2    4 am   BACKBONE|DICT|INTERRES
     7    4    5 1    
     8    4  130 1    
     9    5    6 1    
    10    5   65 1    
    11    5  131 1    
    12    6    7 1    
    13    6  132 1    
    14    6  133 1    
    15    7    8 1    
    16    8    9 1    
    17    8  134 1    
    18    8  135 1    
    19    9   10 ar   
    20    9   14 ar   
    21   10   11 ar   
    22   10  136 1    
    23   11   12 ar   
    24   11  126 1    
    25   12   13 ar   
    26   12  137 1    
    27   13   14 ar   
    28   13   15 1    
    29   14  138 1    
    30   15   16 1    
    31   15  139 1    
    32   15  140 1    
    33   16   17 1    
    34   17   18 1    
    35   17  141 1    
    36   17  142 1    
    37   18   19 1    
    38   18   67 1    
    39   18  143 1    
    40   19   20 am   BACKBONE|DICT|INTERRES
    41   19  144 1    
    42   20   21 2    
    43   20   22 1    
    44   22   23 1    
    45   22   24 1    
    46   22  145 1    
    47   23  146 1    
    48   23  147 1    
    49   23  148 1    
    50   24   25 am   BACKBONE|DICT|INTERRES
    51   24  149 1    
    52   25   26 2    
    53   25   27 1    
    54   27   28 1    
    55   27   29 1    
    56   27  150 1    
    57   28  151 1    
    58   28  152 1    
    59   28  153 1    
    60   29   30 am   BACKBONE|DICT|INTERRES
    61   29  154 1    
    62   30   31 2    
    63   30   32 1    
    64   32   33 1    
    65   32   34 1    
    66   32  155 1    
    67   33  156 1    
    68   33  157 1    
    69   33  158 1    
    70   34   35 am   BACKBONE|DICT|INTERRES
    71   34  159 1    
    72   35   36 2    
    73   35   37 1    
    74   37   38 1    
    75   37   39 1    
    76   37  160 1    
    77   38  161 1    
    78   38  162 1    
    79   38  163 1    
    80   39   40 am   BACKBONE|DICT|INTERRES
    81   39  164 1    
    82   40   41 2    
    83   40   42 1    
    84   42   43 1    
    85   42   44 1    
    86   42  165 1    
    87   43  166 1    
    88   43  167 1    
    89   43  168 1    
    90   44   45 am   BACKBONE|DICT|INTERRES
    91   44  169 1    
    92   45   46 2    
    93   45   47 1    
    94   47   48 1    
    95   47   49 1    
    96   47  170 1    
    97   48  171 1    
    98   48  172 1    
    99   48  173 1    
   100   49   50 am   BACKBONE|DICT|INTERRES
   101   49  174 1    
   102   50   51 2    
   103   50   52 1    
   104   52   53 1    
   105   52   54 1    
   106   52  175 1    
   107   53  176 1    
   108   53  177 1    
   109   53  178 1    
   110   54   55 am   BACKBONE|DICT|INTERRES
   111   54  179 1    
   112   55   56 2    
   113   55   57 1    
   114   57   58 1    
   115   57   59 1    
   116   57  180 1    
   117   58  181 1    
   118   58  182 1    
   119   58  183 1    
   120   59   60 am   BACKBONE|DICT|INTERRES
   121   59  184 1    
   122   60   61 2    
   123   60   62 1    
   124   62   63 1    
   125   62   64 1    
   126   62  185 1    
   127   63  186 1    
   128   63  187 1    
   129   63  188 1    
   130   64   65 am   BACKBONE|DICT|INTERRES
   131   64  189 1    
   132   65   66 2    
   133   67   68 2    
   134   67   69 am   BACKBONE|DICT|INTERRES
   135   69   70 1    
   136   69  190 1    
   137   70   71 1    
   138   70   72 1    
   139   70  191 1    
   140   71  192 1    
   141   71  193 1    
   142   71  194 1    
   143   72   73 2    
   144   72   74 am   BACKBONE|DICT|INTERRES
   145   74   75 1    
   146   74  195 1    
   147   75   76 1    
   148   75   77 1    
   149   75  196 1    
   150   76  197 1    
   151   76  198 1    
   152   76  199 1    
   153   77   78 2    
   154   77   79 am   BACKBONE|DICT|INTERRES
   155   79   80 1    
   156   79  200 1    
   157   80   81 1    
   158   80   82 1    
   159   80  201 1    
   160   81  202 1    
   161   81  203 1    
   162   81  204 1    
   163   82   83 2    
   164   82   84 am   BACKBONE|DICT|INTERRES
   165   84   85 1    
   166   84  205 1    
   167   85   86 1    
   168   85   87 1    
   169   85  206 1    
   170   86  207 1    
   171   86  208 1    
   172   86  209 1    
   173   87   88 2    
   174   87   89 am   BACKBONE|DICT|INTERRES
   175   89   90 1    
   176   89  210 1    
   177   90   91 1    
   178   90   92 1    
   179   90  211 1    
   180   91  212 1    
   181   91  213 1    
   182   91  214 1    
   183   92   93 2    
   184   92   94 am   BACKBONE|DICT|INTERRES
   185   94   95 1    
   186   94  215 1    
   187   95   96 1    
   188   95   97 1    
   189   95  216 1    
   190   96  217 1    
   191   96  218 1    
   192   96  219 1    
   193   97   98 2    
   194   97   99 am   BACKBONE|DICT|INTERRES
   195   99  100 1    
   196   99  220 1    
   197  100  101 1    
   198  100  102 1    
   199  100  221 1    
   200  101  222 1    
   201  101  223 1    
   202  101  224 1    
   203  102  103 2    
   204  102  104 am   BACKBONE|DICT|INTERRES
   205  104  105 1    
   206  104  225 1    
   207  105  106 1    
   208  105  107 1    
   209  105  226 1    
   210  106  227 1    
   211  106  228 1    
   212  106  229 1    
   213  107  108 2    
   214  107  109 am   BACKBONE|DICT|INTERRES
   215  109  110 1    
   216  109  230 1    
   217  110  111 1    
   218  110  112 1    
   219  110  231 1    
   220  111  232 1    
   221  111  233 1    
   222  111  234 1    
   223  112  113 2    
   224  112  114 am   BACKBONE|DICT|INTERRES
   225  114  115 1    
   226  114  235 1    
   227  115  116 1    
   228  115  117 1    
   229  115  236 1    
   230  116  237 1    
   231  116  238 1    
   232  116  239 1    
   233  117  118 2    
   234  117  119 am   BACKBONE|DICT|INTERRES
   235  119  120 1    
   236  119  240 1    
   237  120  121 1    
   238  120  124 1    
   239  120  241 1    
   240  121  122 am   BACKBONE|DICT|INTERRES
   241  121  123 2    
   242  122  242 1    
   243  122  243 1    
   244  124  125 1    
   245  124  244 1    
   246  124  245 1    
   247  125  126 1    
   248  126  246 1    
   249  126  247 1    
@<TRIPOS>SUBSTRUCTURE
     1 UNK         1 GROUP             0       ****    0 ROOT    
