@<TRIPOS>MOLECULE
3R540
247   249    1
SMALL
USER_CHARGES


@<TRIPOS>ATOM
      1 CA         -8.4226  -14.6233  -50.3979 C.3       0 UNK        -0.1800 
      2 C          -7.5094  -13.4791  -49.9799 C.2       0 UNK         0.5000 
      3 O          -7.9535  -12.5587  -49.2925 O.2       0 UNK        -0.5000 
      4 N          -6.2403  -13.5289  -50.3997 N.am      1 UNK        -0.5000 
      5 CA         -5.1897  -12.5763  -50.0302 C.3       1 UNK         0.1400 
      6 C6         -3.9760  -12.6575  -50.9946 C.3       23 UNK        -0.0398 
      7 S7         -3.2763  -14.3345  -51.2100 S.3       23 UNK        -0.2404 
      8 C8         -1.7758  -14.2214  -50.1900 C.3       23 UNK        -0.0205 
      9 C9         -1.0449  -15.5521  -50.1462 C.ar      23 UNK        -0.0193 
     10 C10        -0.0996  -15.8687  -51.1247 C.ar      23 UNK        -0.1150 
     11 C11         0.5677  -17.1013  -51.1054 C.ar      23 UNK        -0.0193 
     12 C12         0.2825  -18.0067  -50.0771 C.ar      23 UNK        -0.1150 
     13 C13        -0.6564  -17.6985  -49.0892 C.ar      23 UNK        -0.0193 
     14 C14        -1.3184  -16.4696  -49.1304 C.ar      23 UNK        -0.1150 
     15 C15        -0.9383  -18.6760  -47.9616 C.3       23 UNK        -0.0205 
     16 S16        -2.5653  -19.4662  -48.1216 S.3       23 UNK        -0.2404 
     17 C17        -2.8013  -20.1344  -46.4388 C.3       23 UNK        -0.0398 
     18 CA         -2.4654  -21.6452  -46.3427 C.3       11 UNK         0.1400 
     19 N          -1.0648  -21.9009  -45.9894 N.am      11 UNK        -0.5000 
     20 C          -0.4853  -23.1104  -46.0013 C.2       10 UNK         0.5000 
     21 O          -1.0557  -24.1347  -46.3705 O.2       10 UNK        -0.5000 
     22 CA          0.9447  -23.2100  -45.4430 C.3       10 UNK         0.1400 
     23 CB          1.9798  -22.7153  -46.4652 C.3       10 UNK        -0.1800 
     24 N           1.0901  -22.4883  -44.1777 N.am      10 UNK        -0.5000 
     25 C           0.4661  -22.8317  -43.0410 C.2       9 UNK         0.5000 
     26 O          -0.2504  -23.8268  -42.9305 O.2       9 UNK        -0.5000 
     27 CA          0.6293  -21.8839  -41.8389 C.3       9 UNK         0.1400 
     28 CB          1.9025  -22.2130  -41.0456 C.3       9 UNK        -0.1800 
     29 N           0.6431  -20.4767  -42.2399 N.am      9 UNK        -0.5000 
     30 C          -0.4313  -19.8159  -42.6950 C.2       8 UNK         0.5000 
     31 O          -1.5518  -20.3161  -42.7880 O.2       8 UNK        -0.5000 
     32 CA         -0.2058  -18.3739  -43.1879 C.3       8 UNK         0.1400 
     33 CB         -0.2517  -17.3828  -42.0162 C.3       8 UNK        -0.1800 
     34 N           1.0488  -18.1969  -43.9230 N.am      8 UNK        -0.5000 
     35 C           1.3953  -18.8873  -45.0180 C.2       7 UNK         0.5000 
     36 O           0.6684  -19.7263  -45.5432 O.2       7 UNK        -0.5000 
     37 CA          2.8080  -18.6581  -45.5811 C.3       7 UNK         0.1400 
     38 CB          2.8283  -17.4541  -46.5340 C.3       7 UNK        -0.1800 
     39 N           3.8056  -18.4831  -44.5238 N.am      7 UNK        -0.5000 
     40 C           4.1209  -19.4078  -43.6061 C.2       6 UNK         0.5000 
     41 O           3.6380  -20.5407  -43.6016 O.2       6 UNK        -0.5000 
     42 CA          5.0795  -18.9972  -42.4679 C.3       6 UNK         0.1400 
     43 CB          6.5505  -19.2413  -42.8547 C.3       6 UNK        -0.1800 
     44 N           4.8565  -17.6337  -41.9594 N.am      6 UNK        -0.5000 
     45 C           5.0831  -16.4671  -42.5773 C.2       5 UNK         0.5000 
     46 O           5.6229  -16.3639  -43.6815 O.2       5 UNK        -0.5000 
     47 CA          4.5621  -15.2023  -41.8657 C.3       5 UNK         0.1400 
     48 CB          5.6993  -14.4972  -41.1118 C.3       5 UNK        -0.1800 
     49 N           3.9588  -14.2643  -42.8164 N.am      5 UNK        -0.5000 
     50 C           2.9195  -14.5520  -43.6121 C.2       4 UNK         0.5000 
     51 O           2.2769  -15.6035  -43.5337 O.2       4 UNK        -0.5000 
     52 CA          2.5878  -13.5113  -44.7008 C.3       4 UNK         0.1400 
     53 CB          3.7503  -13.3795  -45.7005 C.3       4 UNK        -0.1800 
     54 N           1.3888  -13.8842  -45.4496 N.am      4 UNK        -0.5000 
     55 C           0.1333  -13.6550  -45.0534 C.2       3 UNK         0.5000 
     56 O          -0.1686  -13.0100  -44.0457 O.2       3 UNK        -0.5000 
     57 CA         -0.9655  -14.2941  -45.9213 C.3       3 UNK         0.1400 
     58 CB         -1.3227  -15.6876  -45.3878 C.3       3 UNK        -0.1800 
     59 N          -2.1774  -13.4804  -45.9638 N.am      3 UNK        -0.5000 
     60 C          -2.2974  -12.3455  -46.6598 C.2       2 UNK         0.5000 
     61 O          -1.3982  -11.8651  -47.3537 O.2       2 UNK        -0.5000 
     62 CA         -3.6713  -11.6538  -46.6171 C.3       2 UNK         0.1400 
     63 CB         -3.5522  -10.2064  -46.1135 C.3       2 UNK        -0.1800 
     64 N          -4.2702  -11.6548  -47.9511 N.am      2 UNK        -0.5000 
     65 C          -4.7626  -12.7446  -48.5550 C.2       1 UNK         0.5000 
     66 O          -4.8577  -13.8438  -48.0018 O.2       1 UNK        -0.5000 
     67 C          -3.4413  -22.3742  -45.3980 C.2       11 UNK         0.5000 
     68 O          -4.4224  -22.9325  -45.8854 O.2       11 UNK        -0.5000 
     69 N          -3.1595  -22.3981  -44.0875 N.am      12 UNK        -0.5000 
     70 CA         -3.9578  -23.1314  -43.1012 C.3       12 UNK         0.1400 
     71 CB         -3.4769  -22.7994  -41.6808 C.3       12 UNK        -0.1800 
     72 C          -3.9543  -24.6531  -43.3431 C.2       12 UNK         0.5000 
     73 O          -5.0131  -25.2783  -43.2781 O.2       12 UNK        -0.5000 
     74 N          -2.7765  -25.2120  -43.6536 N.am      13 UNK        -0.5000 
     75 CA         -2.5911  -26.6254  -43.9844 C.3       13 UNK         0.1400 
     76 CB         -1.0904  -26.9546  -43.9822 C.3       13 UNK        -0.1800 
     77 C          -3.2321  -27.0178  -45.3294 C.2       13 UNK         0.5000 
     78 O          -3.8564  -28.0754  -45.4207 O.2       13 UNK        -0.5000 
     79 N          -3.0707  -26.1598  -46.3449 N.am      14 UNK        -0.5000 
     80 CA         -3.5579  -26.3730  -47.7093 C.3       14 UNK         0.1400 
     81 CB         -2.7096  -25.5215  -48.6670 C.3       14 UNK        -0.1800 
     82 C          -5.0532  -26.0535  -47.9024 C.2       14 UNK         0.5000 
     83 O          -5.5786  -26.3212  -48.9824 O.2       14 UNK        -0.5000 
     84 N          -5.7005  -25.4555  -46.8913 N.am      15 UNK        -0.5000 
     85 CA         -7.0717  -24.9304  -46.9084 C.3       15 UNK         0.1400 
     86 CB         -8.1050  -26.0662  -47.0602 C.3       15 UNK        -0.1800 
     87 C          -7.2335  -23.8055  -47.9539 C.2       15 UNK         0.5000 
     88 O          -8.1310  -23.8483  -48.7962 O.2       15 UNK        -0.5000 
     89 N          -6.3093  -22.8382  -47.8835 N.am      16 UNK        -0.5000 
     90 CA         -6.1384  -21.6422  -48.7158 C.3       16 UNK         0.1400 
     91 CB         -7.4068  -20.7663  -48.7172 C.3       16 UNK        -0.1800 
     92 C          -5.6227  -21.9076  -50.1442 C.2       16 UNK         0.5000 
     93 O          -5.3374  -20.9458  -50.8572 O.2       16 UNK        -0.5000 
     94 N          -5.4582  -23.1781  -50.5434 N.am      17 UNK        -0.5000 
     95 CA         -5.0022  -23.5708  -51.8823 C.3       17 UNK         0.1400 
     96 CB         -5.1961  -25.0817  -52.0713 C.3       17 UNK        -0.1800 
     97 C          -3.5491  -23.1616  -52.1965 C.2       17 UNK         0.5000 
     98 O          -3.2017  -23.0305  -53.3701 O.2       17 UNK        -0.5000 
     99 N          -2.7378  -22.9203  -51.1550 N.am      18 UNK        -0.5000 
    100 CA        -1.3638  -22.4203  -51.2604 C.3       18 UNK         0.1400 
    101 CB        -0.6875  -22.4714  -49.8816 C.3       18 UNK        -0.1800 
    102 C         -1.2640  -21.0041  -51.8633 C.2       18 UNK         0.5000 
    103 O         -0.2117  -20.6592  -52.4001 O.2       18 UNK        -0.5000 
    104 N         -2.3586  -20.2273  -51.8171 N.am      19 UNK        -0.5000 
    105 CA        -2.4650  -18.8992  -52.4261 C.3       19 UNK         0.1400 
    106 CB        -3.7946  -18.2510  -52.0172 C.3       19 UNK        -0.1800 
    107 C         -2.3084  -18.9087  -53.9589 C.2       19 UNK         0.5000 
    108 O         -1.8689  -17.9083  -54.5260 O.2       19 UNK        -0.5000 
    109 N         -2.6225  -20.0448  -54.6020 N.am      20 UNK        -0.5000 
    110 CA        -2.4802  -20.2576  -56.0439 C.3       20 UNK         0.1400 
    111 CB        -3.1131  -21.6038  -56.4239 C.3       20 UNK        -0.1800 
    112 C         -1.0214  -20.1903  -56.5366 C.2       20 UNK         0.5000 
    113 O         -0.7926  -19.8070  -57.6845 O.2       20 UNK        -0.5000 
    114 N         -0.0568  -20.5088  -55.6586 N.am      21 UNK        -0.5000 
    115 CA         1.3815  -20.4133  -55.9311 C.3       21 UNK         0.1400 
    116 CB         2.1566  -21.0958  -54.7938 C.3       21 UNK        -0.1800 
    117 C          1.8727  -18.9633  -56.1225 C.2       21 UNK         0.5000 
    118 O          2.9129  -18.7537  -56.7475 O.2       21 UNK        -0.5000 
    119 N          1.1078  -17.9992  -55.5988 N.am      22 UNK        -0.5000 
    120 CA         1.3163  -16.5545  -55.7549 C.3       22 UNK         0.1400 
    121 C          0.4897  -15.9457  -56.9280 C.2       22 UNK         0.5000 
    122 N         -0.2341  -16.7262  -57.7240 N.am      22 UNK        -0.7600 
    123 O          0.5220  -14.7366  -57.1403 O.2       22 UNK        -0.5000 
    124 C124        1.0542  -15.8161  -54.4165 C.3       23 UNK        -0.0398 
    125 S125        2.3282  -16.1851  -53.1577 S.3       23 UNK        -0.2404 
    126 C126        1.5576  -17.5300  -52.1897 C.3       23 UNK        -0.0205 
    127 H127       -7.8971  -15.3598  -51.0064 H         1 UNK         0.0600 
    128 H128       -9.2631  -14.2410  -50.9771 H         1 UNK         0.0600 
    129 H129       -8.8163  -15.1297  -49.5166 H         1 UNK         0.0600 
    130 H130       -5.9212  -14.3277  -50.9294 H         1 UNK         0.3000 
    131 H131       -5.6138  -11.5744  -50.1283 H         1 UNK         0.0600 
    132 H132       -3.1898  -11.9642  -50.6901 H         1 UNK         0.0800 
    133 H133       -4.2894  -12.3145  -51.9814 H         1 UNK         0.0800 
    134 H134       -2.0455  -13.9163  -49.1792 H         1 UNK         0.0800 
    135 H135       -1.1192  -13.4446  -50.5848 H         1 UNK         0.0800 
    136 H136        0.0930  -15.1488  -51.9049 H         1 UNK         0.1150 
    137 H137        0.7835  -18.9646  -50.0558 H         1 UNK         0.1150 
    138 H138       -2.0550  -16.2310  -48.3765 H         1 UNK         0.1150 
    139 H139       -0.1761  -19.4553  -47.9356 H         1 UNK         0.0800 
    140 H140       -0.8798  -18.1408  -47.0149 H         1 UNK         0.0800 
    141 H141       -3.8491  -19.9435  -46.1975 H         1 UNK         0.0800 
    142 H142       -2.2304  -19.5584  -45.7091 H         1 UNK         0.0800 
    143 H143       -2.6309  -22.0955  -47.3233 H         1 UNK         0.0600 
    144 H144       -0.5038  -21.0996  -45.7059 H         1 UNK         0.3000 
    145 H145        1.1501  -24.2643  -45.2461 H         1 UNK         0.0600 
    146 H146        2.9920  -22.7803  -46.0657 H         1 UNK         0.0600 
    147 H147        1.9466  -23.3226  -47.3705 H         1 UNK         0.0600 
    148 H148        1.8033  -21.6832  -46.7644 H         1 UNK         0.0600 
    149 H149        1.6593  -21.6519  -44.1880 H         1 UNK         0.3000 
    150 H150       -0.2249  -22.0378  -41.1764 H         1 UNK         0.0600 
    151 H151        1.8787  -23.2425  -40.6860 H         1 UNK         0.0600 
    152 H152        2.0028  -21.5669  -40.1735 H         1 UNK         0.0600 
    153 H153        2.8011  -22.1015  -41.6521 H         1 UNK         0.0600 
    154 H154        1.5394  -20.0129  -42.2504 H         1 UNK         0.3000 
    155 H155       -1.0250  -18.1375  -43.8686 H         1 UNK         0.0600 
    156 H156        0.5732  -17.5434  -41.3212 H         1 UNK         0.0600 
    157 H157       -1.1817  -17.4821  -41.4550 H         1 UNK         0.0600 
    158 H158       -0.1939  -16.3528  -42.3691 H         1 UNK         0.0600 
    159 H159        1.6651  -17.4548  -43.6031 H         1 UNK         0.3000 
    160 H160        3.0835  -19.5467  -46.1524 H         1 UNK         0.0600 
    161 H161        2.5638  -16.5303  -46.0222 H         1 UNK         0.0600 
    162 H162        2.1178  -17.5911  -47.3505 H         1 UNK         0.0600 
    163 H163        3.8140  -17.3201  -46.9796 H         1 UNK         0.0600 
    164 H164        4.2617  -17.5792  -44.4564 H         1 UNK         0.3000 
    165 H165        4.8560  -19.6573  -41.6281 H         1 UNK         0.0600 
    166 H166        6.8466  -18.6680  -43.7333 H         1 UNK         0.0600 
    167 H167        7.2225  -18.9775  -42.0381 H         1 UNK         0.0600 
    168 H168        6.7180  -20.2938  -43.0865 H         1 UNK         0.0600 
    169 H169        4.3935  -17.5979  -41.0616 H         1 UNK         0.3000 
    170 H170        3.7915  -15.4901  -41.1475 H         1 UNK         0.0600 
    171 H171        6.4884  -14.1691  -41.7899 H         1 UNK         0.0600 
    172 H172        5.3339  -13.6230  -40.5727 H         1 UNK         0.0600 
    173 H173        6.1538  -15.1641  -40.3780 H         1 UNK         0.0600 
    174 H174        4.4543  -13.3968  -42.9588 H         1 UNK         0.3000 
    175 H175        2.4275  -12.5458  -44.2164 H         1 UNK         0.0600 
    176 H176        3.9877  -14.3347  -46.1710 H         1 UNK         0.0600 
    177 H177        3.5117  -12.6673  -46.4908 H         1 UNK         0.0600 
    178 H178        4.6576  -13.0221  -45.2125 H         1 UNK         0.0600 
    179 H179        1.5426  -14.4501  -46.2702 H         1 UNK         0.3000 
    180 H180       -0.5909  -14.4031  -46.9417 H         1 UNK         0.0600 
    181 H181       -2.1043  -16.1581  -45.9840 H         1 UNK         0.0600 
    182 H182       -1.6688  -15.6465  -44.3544 H         1 UNK         0.0600 
    183 H183       -0.4502  -16.3393  -45.4191 H         1 UNK         0.0600 
    184 H184       -2.9584  -13.8071  -45.4142 H         1 UNK         0.3000 
    185 H185       -4.3298  -12.1961  -45.9349 H         1 UNK         0.0600 
    186 H186       -4.5306   -9.7300  -46.0482 H         1 UNK         0.0600 
    187 H187       -3.1093  -10.1773  -45.1171 H         1 UNK         0.0600 
    188 H188       -2.9262   -9.5990  -46.7685 H         1 UNK         0.0600 
    189 H189       -4.1982  -10.7914  -48.4695 H         1 UNK         0.3000 
    190 H190       -2.3721  -21.8641  -43.7337 H         1 UNK         0.3000 
    191 H191       -4.9903  -22.7872  -43.1920 H         1 UNK         0.0600 
    192 H192       -4.0820  -23.3151  -40.9342 H         1 UNK         0.0600 
    193 H193       -3.5531  -21.7311  -41.4782 H         1 UNK         0.0600 
    194 H194       -2.4407  -23.0975  -41.5244 H         1 UNK         0.0600 
    195 H195       -1.9420  -24.6332  -43.6438 H         1 UNK         0.3000 
    196 H196       -3.0684  -27.2203  -43.2028 H         1 UNK         0.0600 
    197 H197       -0.5474  -26.3647  -44.7216 H         1 UNK         0.0600 
    198 H198       -0.6457  -26.7561  -43.0069 H         1 UNK         0.0600 
    199 H199       -0.9198  -28.0074  -44.2104 H         1 UNK         0.0600 
    200 H200       -2.4880  -25.3378  -46.2019 H         1 UNK         0.3000 
    201 H201       -3.4133  -27.4230  -47.9717 H         1 UNK         0.0600 
    202 H202       -2.9742  -25.7103  -49.7067 H         1 UNK         0.0600 
    203 H203       -2.8445  -24.4564  -48.4770 H         1 UNK         0.0600 
    204 H204       -1.6488  -25.7494  -48.5621 H         1 UNK         0.0600 
    205 H205       -5.1592  -25.2309  -46.0668 H         1 UNK         0.3000 
    206 H206       -7.2334  -24.4689  -45.9330 H         1 UNK         0.0600 
    207 H207       -7.9626  -26.8314  -46.2971 H         1 UNK         0.0600 
    208 H208       -9.1203  -25.6834  -46.9511 H         1 UNK         0.0600 
    209 H209       -8.0436  -26.5496  -48.0354 H         1 UNK         0.0600 
    210 H210       -5.6129  -22.9336  -47.1430 H         1 UNK         0.3000 
    211 H211       -5.3524  -21.0655  -48.2266 H         1 UNK         0.0600 
    212 H212       -7.2168  -19.8076  -49.2014 H         1 UNK         0.0600 
    213 H213       -7.7418  -20.5547  -47.7019 H         1 UNK         0.0600 
    214 H214       -8.2295  -21.2407  -49.2525 H         1 UNK         0.0600 
    215 H215       -5.7304  -23.9235  -49.9171 H         1 UNK         0.3000 
    216 H216       -5.6404  -23.0606  -52.6068 H         1 UNK         0.0600 
    217 H217       -4.5571  -25.6591  -51.4047 H         1 UNK         0.0600 
    218 H218       -4.9547  -25.3801  -53.0923 H         1 UNK         0.0600 
    219 H219       -6.2290  -25.3753  -51.8827 H         1 UNK         0.0600 
    220 H220       -3.1112  -23.0369  -50.2262 H         1 UNK         0.3000 
    221 H221       -0.8191  -23.0913  -51.9277 H         1 UNK         0.0600 
    222 H222       -0.6745  -23.4842  -49.4798 H         1 UNK         0.0600 
    223 H223       -1.1919  -21.8295  -49.1624 H         1 UNK         0.0600 
    224 H224        0.3487  -22.1360  -49.9424 H         1 UNK         0.0600 
    225 H225       -3.1954  -20.5815  -51.3703 H         1 UNK         0.3000 
    226 H226       -1.6614  -18.2849  -52.0270 H         1 UNK         0.0600 
    227 H227       -4.6496  -18.8133  -52.3937 H         1 UNK         0.0600 
    228 H228       -3.8829  -18.1854  -50.9323 H         1 UNK         0.0600 
    229 H229       -3.8689  -17.2362  -52.4098 H         1 UNK         0.0600 
    230 H230       -2.9429  -20.8371  -54.0594 H         1 UNK         0.3000 
    231 H231       -3.0342  -19.4648  -56.5507 H         1 UNK         0.0600 
    232 H232       -2.5860  -22.4397  -55.9625 H         1 UNK         0.0600 
    233 H233       -3.0865  -21.7562  -57.5036 H         1 UNK         0.0600 
    234 H234       -4.1571  -21.6530  -56.1140 H         1 UNK         0.0600 
    235 H235       -0.3201  -20.7719  -54.7174 H         1 UNK         0.3000 
    236 H236        1.5846  -20.9552  -56.8570 H         1 UNK         0.0600 
    237 H237        2.0322  -20.5668  -53.8485 H         1 UNK         0.0600 
    238 H238        1.8274  -22.1249  -54.6499 H         1 UNK         0.0600 
    239 H239        3.2247  -21.1232  -55.0130 H         1 UNK         0.0600 
    240 H240        0.2440  -18.2613  -55.1414 H         1 UNK         0.3000 
    241 H241        2.3579  -16.3742  -56.0264 H         1 UNK         0.0600 
    242 H242       -0.7524  -16.3089  -58.4808 H         1 UNK         0.3800 
    243 H243       -0.2656  -17.7289  -57.5928 H         1 UNK         0.3800 
    244 H244        0.0611  -16.0580  -54.0360 H         1 UNK         0.0800 
    245 H245        1.0661  -14.7347  -54.5613 H         1 UNK         0.0800 
    246 H246        1.0564  -18.2255  -52.8627 H         1 UNK         0.0800 
    247 H247        2.3663  -18.0939  -51.7227 H         1 UNK         0.0800 
@<TRIPOS>BOND
     1    1    2 1    
     2    1  127 1    
     3    1  128 1    
     4    1  129 1    
     5    2    3 2    
     6    2    4 am   BACKBONE|DICT|INTERRES
     7    4    5 1    
     8    4  130 1    
     9    5    6 1    
    10    5   65 1    
    11    5  131 1    
    12    6    7 1    
    13    6  132 1    
    14    6  133 1    
    15    7    8 1    
    16    8    9 1    
    17    8  134 1    
    18    8  135 1    
    19    9   10 ar   
    20    9   14 ar   
    21   10   11 ar   
    22   10  136 1    
    23   11   12 ar   
    24   11  126 1    
    25   12   13 ar   
    26   12  137 1    
    27   13   14 ar   
    28   13   15 1    
    29   14  138 1    
    30   15   16 1    
    31   15  139 1    
    32   15  140 1    
    33   16   17 1    
    34   17   18 1    
    35   17  141 1    
    36   17  142 1    
    37   18   19 1    
    38   18   67 1    
    39   18  143 1    
    40   19   20 am   BACKBONE|DICT|INTERRES
    41   19  144 1    
    42   20   21 2    
    43   20   22 1    
    44   22   23 1    
    45   22   24 1    
    46   22  145 1    
    47   23  146 1    
    48   23  147 1    
    49   23  148 1    
    50   24   25 am   BACKBONE|DICT|INTERRES
    51   24  149 1    
    52   25   26 2    
    53   25   27 1    
    54   27   28 1    
    55   27   29 1    
    56   27  150 1    
    57   28  151 1    
    58   28  152 1    
    59   28  153 1    
    60   29   30 am   BACKBONE|DICT|INTERRES
    61   29  154 1    
    62   30   31 2    
    63   30   32 1    
    64   32   33 1    
    65   32   34 1    
    66   32  155 1    
    67   33  156 1    
    68   33  157 1    
    69   33  158 1    
    70   34   35 am   BACKBONE|DICT|INTERRES
    71   34  159 1    
    72   35   36 2    
    73   35   37 1    
    74   37   38 1    
    75   37   39 1    
    76   37  160 1    
    77   38  161 1    
    78   38  162 1    
    79   38  163 1    
    80   39   40 am   BACKBONE|DICT|INTERRES
    81   39  164 1    
    82   40   41 2    
    83   40   42 1    
    84   42   43 1    
    85   42   44 1    
    86   42  165 1    
    87   43  166 1    
    88   43  167 1    
    89   43  168 1    
    90   44   45 am   BACKBONE|DICT|INTERRES
    91   44  169 1    
    92   45   46 2    
    93   45   47 1    
    94   47   48 1    
    95   47   49 1    
    96   47  170 1    
    97   48  171 1    
    98   48  172 1    
    99   48  173 1    
   100   49   50 am   BACKBONE|DICT|INTERRES
   101   49  174 1    
   102   50   51 2    
   103   50   52 1    
   104   52   53 1    
   105   52   54 1    
   106   52  175 1    
   107   53  176 1    
   108   53  177 1    
   109   53  178 1    
   110   54   55 am   BACKBONE|DICT|INTERRES
   111   54  179 1    
   112   55   56 2    
   113   55   57 1    
   114   57   58 1    
   115   57   59 1    
   116   57  180 1    
   117   58  181 1    
   118   58  182 1    
   119   58  183 1    
   120   59   60 am   BACKBONE|DICT|INTERRES
   121   59  184 1    
   122   60   61 2    
   123   60   62 1    
   124   62   63 1    
   125   62   64 1    
   126   62  185 1    
   127   63  186 1    
   128   63  187 1    
   129   63  188 1    
   130   64   65 am   BACKBONE|DICT|INTERRES
   131   64  189 1    
   132   65   66 2    
   133   67   68 2    
   134   67   69 am   BACKBONE|DICT|INTERRES
   135   69   70 1    
   136   69  190 1    
   137   70   71 1    
   138   70   72 1    
   139   70  191 1    
   140   71  192 1    
   141   71  193 1    
   142   71  194 1    
   143   72   73 2    
   144   72   74 am   BACKBONE|DICT|INTERRES
   145   74   75 1    
   146   74  195 1    
   147   75   76 1    
   148   75   77 1    
   149   75  196 1    
   150   76  197 1    
   151   76  198 1    
   152   76  199 1    
   153   77   78 2    
   154   77   79 am   BACKBONE|DICT|INTERRES
   155   79   80 1    
   156   79  200 1    
   157   80   81 1    
   158   80   82 1    
   159   80  201 1    
   160   81  202 1    
   161   81  203 1    
   162   81  204 1    
   163   82   83 2    
   164   82   84 am   BACKBONE|DICT|INTERRES
   165   84   85 1    
   166   84  205 1    
   167   85   86 1    
   168   85   87 1    
   169   85  206 1    
   170   86  207 1    
   171   86  208 1    
   172   86  209 1    
   173   87   88 2    
   174   87   89 am   BACKBONE|DICT|INTERRES
   175   89   90 1    
   176   89  210 1    
   177   90   91 1    
   178   90   92 1    
   179   90  211 1    
   180   91  212 1    
   181   91  213 1    
   182   91  214 1    
   183   92   93 2    
   184   92   94 am   BACKBONE|DICT|INTERRES
   185   94   95 1    
   186   94  215 1    
   187   95   96 1    
   188   95   97 1    
   189   95  216 1    
   190   96  217 1    
   191   96  218 1    
   192   96  219 1    
   193   97   98 2    
   194   97   99 am   BACKBONE|DICT|INTERRES
   195   99  100 1    
   196   99  220 1    
   197  100  101 1    
   198  100  102 1    
   199  100  221 1    
   200  101  222 1    
   201  101  223 1    
   202  101  224 1    
   203  102  103 2    
   204  102  104 am   BACKBONE|DICT|INTERRES
   205  104  105 1    
   206  104  225 1    
   207  105  106 1    
   208  105  107 1    
   209  105  226 1    
   210  106  227 1    
   211  106  228 1    
   212  106  229 1    
   213  107  108 2    
   214  107  109 am   BACKBONE|DICT|INTERRES
   215  109  110 1    
   216  109  230 1    
   217  110  111 1    
   218  110  112 1    
   219  110  231 1    
   220  111  232 1    
   221  111  233 1    
   222  111  234 1    
   223  112  113 2    
   224  112  114 am   BACKBONE|DICT|INTERRES
   225  114  115 1    
   226  114  235 1    
   227  115  116 1    
   228  115  117 1    
   229  115  236 1    
   230  116  237 1    
   231  116  238 1    
   232  116  239 1    
   233  117  118 2    
   234  117  119 am   BACKBONE|DICT|INTERRES
   235  119  120 1    
   236  119  240 1    
   237  120  121 1    
   238  120  124 1    
   239  120  241 1    
   240  121  122 am   BACKBONE|DICT|INTERRES
   241  121  123 2    
   242  122  242 1    
   243  122  243 1    
   244  124  125 1    
   245  124  244 1    
   246  124  245 1    
   247  125  126 1    
   248  126  246 1    
   249  126  247 1    
@<TRIPOS>SUBSTRUCTURE
     1 UNK         1 GROUP             0       ****    0 ROOT    
