@<TRIPOS>MOLECULE
3R540
247   249    1
SMALL
USER_CHARGES


@<TRIPOS>ATOM
      1 CA         -1.5182  -12.0923  -52.7751 C.3       0 UNK        -0.1800 
      2 C          -1.0274  -12.7417  -51.4889 C.2       0 UNK         0.5000 
      3 O           0.1233  -13.1739  -51.4232 O.2       0 UNK        -0.5000 
      4 N          -1.8974  -12.8206  -50.4745 N.am      1 UNK        -0.5000 
      5 CA         -1.5973  -13.3924  -49.1606 C.3       1 UNK         0.1400 
      6 C6         -2.8971  -13.7490  -48.3959 C.3       23 UNK        -0.0398 
      7 S7         -2.6377  -14.9357  -47.0316 S.3       23 UNK        -0.2404 
      8 C8         -2.9602  -16.5303  -47.8564 C.3       23 UNK        -0.0205 
      9 C9         -1.8259  -16.9006  -48.7983 C.ar      23 UNK        -0.0193 
     10 C10        -1.9445  -16.6708  -50.1715 C.ar      23 UNK        -0.1150 
     11 C11        -0.8687  -16.9213  -51.0265 C.ar      23 UNK        -0.0193 
     12 C12         0.3215  -17.4350  -50.5045 C.ar      23 UNK        -0.1150 
     13 C13         0.4447  -17.6913  -49.1364 C.ar      23 UNK        -0.0193 
     14 C14        -0.6336  -17.4226  -48.2902 C.ar      23 UNK        -0.1150 
     15 C15         1.7563  -18.2187  -48.5706 C.3       23 UNK        -0.0205 
     16 S16         1.5688  -19.8067  -47.7004 S.3       23 UNK        -0.2404 
     17 C17         0.9955  -20.9119  -49.0415 C.3       23 UNK        -0.0398 
     18 CA          0.0457  -22.0335  -48.5558 C.3       11 UNK         0.1400 
     19 N           0.6632  -22.8527  -47.5085 N.am      11 UNK        -0.5000 
     20 C           0.1419  -23.9634  -46.9724 C.2       10 UNK         0.5000 
     21 O          -0.9205  -24.4675  -47.3382 O.2       10 UNK        -0.5000 
     22 CA          0.9012  -24.5799  -45.7820 C.3       10 UNK         0.1400 
     23 CB          1.8587  -25.6756  -46.2710 C.3       10 UNK        -0.1800 
     24 N           1.6453  -23.6138  -44.9611 N.am      10 UNK        -0.5000 
     25 C           1.1097  -22.5535  -44.3405 C.2       9 UNK         0.5000 
     26 O          -0.0647  -22.2049  -44.4787 O.2       9 UNK        -0.5000 
     27 CA          2.0398  -21.7217  -43.4456 C.3       9 UNK         0.1400 
     28 CB          2.5865  -20.5143  -44.2189 C.3       9 UNK        -0.1800 
     29 N           1.2974  -21.2495  -42.2787 N.am      9 UNK        -0.5000 
     30 C           1.0885  -21.9801  -41.1747 C.2       8 UNK         0.5000 
     31 O           1.5951  -23.0901  -41.0000 O.2       8 UNK        -0.5000 
     32 CA          0.1380  -21.4062  -40.0984 C.3       8 UNK         0.1400 
     33 CB          0.5786  -21.7691  -38.6643 C.3       8 UNK        -0.1800 
     34 N          -0.1237  -19.9671  -40.2207 N.am      8 UNK        -0.5000 
     35 C           0.7485  -18.9596  -40.0749 C.2       7 UNK         0.5000 
     36 O           1.9364  -19.0999  -39.7779 O.2       7 UNK        -0.5000 
     37 CA          0.1887  -17.5507  -40.3527 C.3       7 UNK         0.1400 
     38 CB          0.5265  -16.5767  -39.2128 C.3       7 UNK        -0.1800 
     39 N           0.6807  -16.9977  -41.6140 N.am      7 UNK        -0.5000 
     40 C           0.5523  -17.5594  -42.8253 C.2       6 UNK         0.5000 
     41 O          -0.0047  -18.6398  -43.0198 O.2       6 UNK        -0.5000 
     42 CA          1.1203  -16.7848  -44.0302 C.3       6 UNK         0.1400 
     43 CB         -0.0197  -16.1337  -44.8250 C.3       6 UNK        -0.1800 
     44 N           2.0801  -15.7487  -43.6493 N.am      6 UNK        -0.5000 
     45 C           3.3555  -15.9737  -43.3039 C.2       5 UNK         0.5000 
     46 O           3.8789  -17.0874  -43.3139 O.2       5 UNK        -0.5000 
     47 CA          4.1863  -14.7498  -42.8704 C.3       5 UNK         0.1400 
     48 CB          5.1551  -14.3278  -43.9848 C.3       5 UNK        -0.1800 
     49 N           3.3513  -13.6040  -42.4948 N.am      5 UNK        -0.5000 
     50 C           2.7534  -13.4762  -41.3021 C.2       4 UNK         0.5000 
     51 O           2.8611  -14.2970  -40.3918 O.2       4 UNK        -0.5000 
     52 CA          1.8513  -12.2451  -41.1148 C.3       4 UNK         0.1400 
     53 CB          2.6895  -10.9774  -40.8902 C.3       4 UNK        -0.1800 
     54 N           0.9486  -12.0378  -42.2475 N.am      4 UNK        -0.5000 
     55 C          -0.0756  -12.8365  -42.5704 C.2       3 UNK         0.5000 
     56 O          -0.3488  -13.8706  -41.9620 O.2       3 UNK        -0.5000 
     57 CA         -0.9284  -12.4270  -43.7867 C.3       3 UNK         0.1400 
     58 CB         -1.5147  -11.0089  -43.6368 C.3       3 UNK        -0.1800 
     59 N          -0.2357  -12.5887  -45.0699 N.am      3 UNK        -0.5000 
     60 C           0.8556  -11.9522  -45.5223 C.2       2 UNK         0.5000 
     61 O           1.4753  -11.1034  -44.8802 O.2       2 UNK        -0.5000 
     62 CA          1.3563  -12.3376  -46.9282 C.3       2 UNK         0.1400 
     63 CB          2.6129  -13.2136  -46.8248 C.3       2 UNK        -0.1800 
     64 N           0.3586  -13.0446  -47.7335 N.am      2 UNK        -0.5000 
     65 C          -0.6770  -12.4600  -48.3493 C.2       1 UNK         0.5000 
     66 O          -0.9236  -11.2531  -48.2895 O.2       1 UNK        -0.5000 
     67 C          -1.3467  -21.4837  -48.1617 C.2       11 UNK         0.5000 
     68 O          -2.2097  -21.3488  -49.0301 O.2       11 UNK        -0.5000 
     69 N          -1.5472  -21.2204  -46.8635 N.am      12 UNK        -0.5000 
     70 CA         -2.8028  -20.7582  -46.2826 C.3       12 UNK         0.1400 
     71 CB         -2.4985  -19.6206  -45.2961 C.3       12 UNK        -0.1800 
     72 C          -3.5280  -21.9000  -45.5531 C.2       12 UNK         0.5000 
     73 O          -4.7426  -22.0348  -45.6927 O.2       12 UNK        -0.5000 
     74 N          -2.7790  -22.6881  -44.7714 N.am      13 UNK        -0.5000 
     75 CA         -3.3118  -23.6951  -43.8556 C.3       13 UNK         0.1400 
     76 CB         -2.2314  -24.0536  -42.8230 C.3       13 UNK        -0.1800 
     77 C          -3.8355  -24.9643  -44.5484 C.2       13 UNK         0.5000 
     78 O          -4.7679  -25.5792  -44.0285 O.2       13 UNK        -0.5000 
     79 N          -3.2304  -25.3446  -45.6814 N.am      14 UNK        -0.5000 
     80 CA         -3.5706  -26.5583  -46.4239 C.3       14 UNK         0.1400 
     81 CB         -2.3508  -27.4948  -46.4688 C.3       14 UNK        -0.1800 
     82 C          -4.0629  -26.2217  -47.8370 C.2       14 UNK         0.5000 
     83 O          -5.1299  -26.6922  -48.2329 O.2       14 UNK        -0.5000 
     84 N          -3.2837  -25.4206  -48.5763 N.am      15 UNK        -0.5000 
     85 CA         -3.5620  -25.0822  -49.9737 C.3       15 UNK         0.1400 
     86 CB         -2.2541  -24.6623  -50.6564 C.3       15 UNK        -0.1800 
     87 C          -4.6340  -23.9892  -50.1425 C.2       15 UNK         0.5000 
     88 O          -5.2477  -23.9113  -51.2093 O.2       15 UNK        -0.5000 
     89 N          -4.8237  -23.1687  -49.0968 N.am      16 UNK        -0.5000 
     90 CA         -5.8084  -22.0871  -48.9714 C.3       16 UNK         0.1400 
     91 CB         -7.2143  -22.6869  -48.7661 C.3       16 UNK        -0.1800 
     92 C          -5.7593  -21.0610  -50.1227 C.2       16 UNK         0.5000 
     93 O          -6.8082  -20.6127  -50.5890 O.2       16 UNK        -0.5000 
     94 N          -4.5430  -20.7513  -50.5978 N.am      17 UNK        -0.5000 
     95 CA         -4.1823  -19.9180  -51.7556 C.3       17 UNK         0.1400 
     96 CB         -4.6760  -18.4722  -51.5705 C.3       17 UNK        -0.1800 
     97 C          -4.6312  -20.4779  -53.1254 C.2       17 UNK         0.5000 
     98 O          -3.9186  -20.3038  -54.1147 O.2       17 UNK        -0.5000 
     99 N          -5.7923  -21.1405  -53.1720 N.am      18 UNK        -0.5000 
    100 CA        -6.4201  -21.7205  -54.3553 C.3       18 UNK         0.1400 
    101 CB        -7.8169  -22.2405  -53.9825 C.3       18 UNK        -0.1800 
    102 C         -5.5750  -22.8288  -55.0011 C.2       18 UNK         0.5000 
    103 O         -5.2862  -22.7484  -56.1952 O.2       18 UNK        -0.5000 
    104 N         -5.1516  -23.8195  -54.2021 N.am      19 UNK        -0.5000 
    105 CA        -4.3156  -24.9301  -54.6735 C.3       19 UNK         0.1400 
    106 CB        -4.4499  -26.1240  -53.7192 C.3       19 UNK        -0.1800 
    107 C         -2.8401  -24.5259  -54.8614 C.2       19 UNK         0.5000 
    108 O         -2.1103  -25.2110  -55.5780 O.2       19 UNK        -0.5000 
    109 N         -2.4390  -23.4024  -54.2494 N.am      20 UNK        -0.5000 
    110 CA        -1.1506  -22.7418  -54.4679 C.3       20 UNK         0.1400 
    111 CB        -0.8118  -21.8897  -53.2336 C.3       20 UNK        -0.1800 
    112 C         -1.1361  -21.8886  -55.7563 C.2       20 UNK         0.5000 
    113 O         -0.0685  -21.4173  -56.1494 O.2       20 UNK        -0.5000 
    114 N         -2.3092  -21.7181  -56.3887 N.am      21 UNK        -0.5000 
    115 CA        -2.5747  -20.9653  -57.6159 C.3       21 UNK         0.1400 
    116 CB        -1.8643  -21.6132  -58.8230 C.3       21 UNK        -0.1800 
    117 C         -2.2864  -19.4575  -57.4720 C.2       21 UNK         0.5000 
    118 O         -1.7743  -18.8369  -58.4064 O.2       21 UNK        -0.5000 
    119 N         -2.6260  -18.8939  -56.3068 N.am      22 UNK        -0.5000 
    120 CA        -2.4090  -17.4792  -55.9674 C.3       22 UNK         0.1400 
    121 C         -3.6315  -16.7825  -55.3032 C.2       22 UNK         0.5000 
    122 N         -4.7732  -17.4424  -55.1516 N.am      22 UNK        -0.7600 
    123 O         -3.5562  -15.6089  -54.9499 O.2       22 UNK        -0.5000 
    124 C124       -1.0798  -17.2756  -55.1967 C.3       23 UNK        -0.0398 
    125 S125       -1.0434  -18.0602  -53.5463 S.3       23 UNK        -0.2404 
    126 C126       -0.9661  -16.5756  -52.5017 C.3       23 UNK        -0.0205 
    127 H127       -1.4819  -12.8111  -53.5941 H         1 UNK         0.0600 
    128 H128       -2.5438  -11.7338  -52.6833 H         1 UNK         0.0600 
    129 H129       -0.8835  -11.2449  -53.0343 H         1 UNK         0.0600 
    130 H130       -2.8141  -12.4096  -50.5775 H         1 UNK         0.3000 
    131 H131       -1.0417  -14.3120  -49.3424 H         1 UNK         0.0600 
    132 H132       -3.6273  -14.1809  -49.0814 H         1 UNK         0.0800 
    133 H133       -3.3705  -12.8513  -47.9939 H         1 UNK         0.0800 
    134 H134       -3.9116  -16.4892  -48.3889 H         1 UNK         0.0800 
    135 H135       -3.0739  -17.3045  -47.0986 H         1 UNK         0.0800 
    136 H136       -2.8566  -16.2484  -50.5684 H         1 UNK         0.1150 
    137 H137        1.1554  -17.6202  -51.1669 H         1 UNK         0.1150 
    138 H138       -0.5328  -17.6059  -47.2322 H         1 UNK         0.1150 
    139 H139        2.5026  -18.3349  -49.3580 H         1 UNK         0.0800 
    140 H140        2.1579  -17.4828  -47.8727 H         1 UNK         0.0800 
    141 H141        0.5151  -20.3327  -49.8316 H         1 UNK         0.0800 
    142 H142        1.8776  -21.3570  -49.5035 H         1 UNK         0.0800 
    143 H143       -0.1104  -22.6967  -49.4065 H         1 UNK         0.0600 
    144 H144        1.5241  -22.4950  -47.1214 H         1 UNK         0.3000 
    145 H145        0.1551  -25.0482  -45.1375 H         1 UNK         0.0600 
    146 H146        2.3209  -26.1988  -45.4338 H         1 UNK         0.0600 
    147 H147        1.3286  -26.4219  -46.8647 H         1 UNK         0.0600 
    148 H148        2.6552  -25.2656  -46.8934 H         1 UNK         0.0600 
    149 H149        2.6225  -23.8203  -44.8112 H         1 UNK         0.3000 
    150 H150        2.8815  -22.3366  -43.1201 H         1 UNK         0.0600 
    151 H151        3.2189  -20.8341  -45.0478 H         1 UNK         0.0600 
    152 H152        3.1889  -19.8709  -43.5773 H         1 UNK         0.0600 
    153 H153        1.7812  -19.9109  -44.6378 H         1 UNK         0.0600 
    154 H154        0.7942  -20.3751  -42.3938 H         1 UNK         0.3000 
    155 H155       -0.8225  -21.8932  -40.2718 H         1 UNK         0.0600 
    156 H156       -0.1119  -21.3641  -37.9245 H         1 UNK         0.0600 
    157 H157        1.5753  -21.3899  -38.4374 H         1 UNK         0.0600 
    158 H158        0.6031  -22.8502  -38.5235 H         1 UNK         0.0600 
    159 H159       -1.0603  -19.7321  -40.5192 H         1 UNK         0.3000 
    160 H160       -0.8990  -17.6113  -40.4261 H         1 UNK         0.0600 
    161 H161        1.6034  -16.4414  -39.1045 H         1 UNK         0.0600 
    162 H162        0.1436  -16.9432  -38.2597 H         1 UNK         0.0600 
    163 H163        0.0835  -15.5957  -39.3877 H         1 UNK         0.0600 
    164 H164        1.1477  -16.1046  -41.5526 H         1 UNK         0.3000 
    165 H165        1.6193  -17.5048  -44.6818 H         1 UNK         0.0600 
    166 H166       -0.5361  -15.3746  -44.2401 H         1 UNK         0.0600 
    167 H167        0.3467  -15.6703  -45.7408 H         1 UNK         0.0600 
    168 H168       -0.7687  -16.8724  -45.1076 H         1 UNK         0.0600 
    169 H169        1.7278  -14.8066  -43.5812 H         1 UNK         0.3000 
    170 H170        4.7833  -15.0497  -42.0062 H         1 UNK         0.0600 
    171 H171        5.8420  -15.1390  -44.2297 H         1 UNK         0.0600 
    172 H172        4.6283  -14.0621  -44.8996 H         1 UNK         0.0600 
    173 H173        5.7592  -13.4725  -43.6818 H         1 UNK         0.0600 
    174 H174        3.2192  -12.8808  -43.1874 H         1 UNK         0.3000 
    175 H175        1.2428  -12.4114  -40.2231 H         1 UNK         0.0600 
    176 H176        3.2920  -10.7297  -41.7650 H         1 UNK         0.0600 
    177 H177        2.0535  -10.1202  -40.6689 H         1 UNK         0.0600 
    178 H178        3.3696  -11.1031  -40.0467 H         1 UNK         0.0600 
    179 H179        1.1543  -11.2651  -42.8715 H         1 UNK         0.3000 
    180 H180       -1.7728  -13.1177  -43.8184 H         1 UNK         0.0600 
    181 H181       -2.0741  -10.9165  -42.7050 H         1 UNK         0.0600 
    182 H182       -0.7447  -10.2374  -43.6318 H         1 UNK         0.0600 
    183 H183       -2.2031  -10.7841  -44.4516 H         1 UNK         0.0600 
    184 H184       -0.6497  -13.2697  -45.6905 H         1 UNK         0.3000 
    185 H185        1.6273  -11.4139  -47.4441 H         1 UNK         0.0600 
    186 H186        2.4211  -14.1376  -46.2778 H         1 UNK         0.0600 
    187 H187        2.9923  -13.4796  -47.8117 H         1 UNK         0.0600 
    188 H188        3.4103  -12.6783  -46.3088 H         1 UNK         0.0600 
    189 H189        0.4958  -14.0386  -47.8477 H         1 UNK         0.3000 
    190 H190       -0.7942  -21.4025  -46.2093 H         1 UNK         0.3000 
    191 H191       -3.4618  -20.3681  -47.0610 H         1 UNK         0.0600 
    192 H192       -3.4176  -19.1786  -44.9101 H         1 UNK         0.0600 
    193 H193       -1.9271  -18.8285  -45.7747 H         1 UNK         0.0600 
    194 H194       -1.9163  -19.9694  -44.4421 H         1 UNK         0.0600 
    195 H195       -1.7813  -22.4961  -44.6931 H         1 UNK         0.3000 
    196 H196       -4.1508  -23.2480  -43.3179 H         1 UNK         0.0600 
    197 H197       -2.6126  -24.7623  -42.0869 H         1 UNK         0.0600 
    198 H198       -1.8965  -23.1695  -42.2804 H         1 UNK         0.0600 
    199 H199       -1.3584  -24.5065  -43.2932 H         1 UNK         0.0600 
    200 H200       -2.4827  -24.7760  -46.0612 H         1 UNK         0.3000 
    201 H201       -4.3780  -27.1019  -45.9291 H         1 UNK         0.0600 
    202 H202       -2.0413  -27.7820  -45.4638 H         1 UNK         0.0600 
    203 H203       -1.4945  -27.0336  -46.9607 H         1 UNK         0.0600 
    204 H204       -2.5843  -28.4118  -47.0111 H         1 UNK         0.0600 
    205 H205       -2.4055  -25.0836  -48.1869 H         1 UNK         0.3000 
    206 H206       -3.9286  -25.9824  -50.4699 H         1 UNK         0.0600 
    207 H207       -1.4760  -25.4150  -50.5286 H         1 UNK         0.0600 
    208 H208       -2.3974  -24.5209  -51.7261 H         1 UNK         0.0600 
    209 H209       -1.8855  -23.7222  -50.2550 H         1 UNK         0.0600 
    210 H210       -4.2386  -23.3174  -48.2881 H         1 UNK         0.3000 
    211 H211       -5.5522  -21.5278  -48.0733 H         1 UNK         0.0600 
    212 H212       -7.5529  -23.2294  -49.6496 H         1 UNK         0.0600 
    213 H213       -7.9484  -21.9085  -48.5553 H         1 UNK         0.0600 
    214 H214       -7.2262  -23.3780  -47.9231 H         1 UNK         0.0600 
    215 H215       -3.7450  -21.1552  -50.1109 H         1 UNK         0.3000 
    216 H216       -3.0921  -19.8901  -51.7635 H         1 UNK         0.0600 
    217 H217       -5.7558  -18.3900  -51.6965 H         1 UNK         0.0600 
    218 H218       -4.2094  -17.8093  -52.2999 H         1 UNK         0.0600 
    219 H219       -4.4273  -18.0959  -50.5789 H         1 UNK         0.0600 
    220 H220       -6.3203  -21.1913  -52.3057 H         1 UNK         0.3000 
    221 H221       -6.5392  -20.9225  -55.0909 H         1 UNK         0.0600 
    222 H222       -7.7692  -23.0017  -53.2024 H         1 UNK         0.0600 
    223 H223       -8.4526  -21.4324  -53.6201 H         1 UNK         0.0600 
    224 H224       -8.3142  -22.6831  -54.8465 H         1 UNK         0.0600 
    225 H225       -5.3862  -23.8047  -53.2128 H         1 UNK         0.3000 
    226 H226       -4.6875  -25.2500  -55.6494 H         1 UNK         0.0600 
    227 H227       -5.4922  -26.4195  -53.5983 H         1 UNK         0.0600 
    228 H228       -3.9072  -26.9900  -54.0999 H         1 UNK         0.0600 
    229 H229       -4.0492  -25.8966  -52.7354 H         1 UNK         0.0600 
    230 H230       -3.1160  -22.8974  -53.6969 H         1 UNK         0.3000 
    231 H231       -0.3758  -23.5039  -54.5734 H         1 UNK         0.0600 
    232 H232       -1.5367  -21.0912  -53.0857 H         1 UNK         0.0600 
    233 H233       -0.7858  -22.4935  -52.3268 H         1 UNK         0.0600 
    234 H234        0.1673  -21.4209  -53.3391 H         1 UNK         0.0600 
    235 H235       -3.1309  -22.1284  -55.9649 H         1 UNK         0.3000 
    236 H236       -3.6484  -21.0467  -57.7899 H         1 UNK         0.0600 
    237 H237       -2.1041  -22.6739  -58.8977 H         1 UNK         0.0600 
    238 H238       -2.1760  -21.1449  -59.7573 H         1 UNK         0.0600 
    239 H239       -0.7802  -21.5178  -58.7561 H         1 UNK         0.0600 
    240 H240       -3.0114  -19.4716  -55.5630 H         1 UNK         0.3000 
    241 H241       -2.3044  -16.9252  -56.9017 H         1 UNK         0.0600 
    242 H242       -4.8482  -18.4091  -55.4241 H         1 UNK         0.3800 
    243 H243       -5.5632  -16.9712  -54.7413 H         1 UNK         0.3800 
    244 H244       -0.8580  -16.2108  -55.1099 H         1 UNK         0.0800 
    245 H245       -0.2570  -17.6929  -55.7786 H         1 UNK         0.0800 
    246 H246       -1.8435  -15.9556  -52.6930 H         1 UNK         0.0800 
    247 H247       -0.0983  -15.9764  -52.7819 H         1 UNK         0.0800 
@<TRIPOS>BOND
     1    1    2 1    
     2    1  127 1    
     3    1  128 1    
     4    1  129 1    
     5    2    3 2    
     6    2    4 am   BACKBONE|DICT|INTERRES
     7    4    5 1    
     8    4  130 1    
     9    5    6 1    
    10    5   65 1    
    11    5  131 1    
    12    6    7 1    
    13    6  132 1    
    14    6  133 1    
    15    7    8 1    
    16    8    9 1    
    17    8  134 1    
    18    8  135 1    
    19    9   10 ar   
    20    9   14 ar   
    21   10   11 ar   
    22   10  136 1    
    23   11   12 ar   
    24   11  126 1    
    25   12   13 ar   
    26   12  137 1    
    27   13   14 ar   
    28   13   15 1    
    29   14  138 1    
    30   15   16 1    
    31   15  139 1    
    32   15  140 1    
    33   16   17 1    
    34   17   18 1    
    35   17  141 1    
    36   17  142 1    
    37   18   19 1    
    38   18   67 1    
    39   18  143 1    
    40   19   20 am   BACKBONE|DICT|INTERRES
    41   19  144 1    
    42   20   21 2    
    43   20   22 1    
    44   22   23 1    
    45   22   24 1    
    46   22  145 1    
    47   23  146 1    
    48   23  147 1    
    49   23  148 1    
    50   24   25 am   BACKBONE|DICT|INTERRES
    51   24  149 1    
    52   25   26 2    
    53   25   27 1    
    54   27   28 1    
    55   27   29 1    
    56   27  150 1    
    57   28  151 1    
    58   28  152 1    
    59   28  153 1    
    60   29   30 am   BACKBONE|DICT|INTERRES
    61   29  154 1    
    62   30   31 2    
    63   30   32 1    
    64   32   33 1    
    65   32   34 1    
    66   32  155 1    
    67   33  156 1    
    68   33  157 1    
    69   33  158 1    
    70   34   35 am   BACKBONE|DICT|INTERRES
    71   34  159 1    
    72   35   36 2    
    73   35   37 1    
    74   37   38 1    
    75   37   39 1    
    76   37  160 1    
    77   38  161 1    
    78   38  162 1    
    79   38  163 1    
    80   39   40 am   BACKBONE|DICT|INTERRES
    81   39  164 1    
    82   40   41 2    
    83   40   42 1    
    84   42   43 1    
    85   42   44 1    
    86   42  165 1    
    87   43  166 1    
    88   43  167 1    
    89   43  168 1    
    90   44   45 am   BACKBONE|DICT|INTERRES
    91   44  169 1    
    92   45   46 2    
    93   45   47 1    
    94   47   48 1    
    95   47   49 1    
    96   47  170 1    
    97   48  171 1    
    98   48  172 1    
    99   48  173 1    
   100   49   50 am   BACKBONE|DICT|INTERRES
   101   49  174 1    
   102   50   51 2    
   103   50   52 1    
   104   52   53 1    
   105   52   54 1    
   106   52  175 1    
   107   53  176 1    
   108   53  177 1    
   109   53  178 1    
   110   54   55 am   BACKBONE|DICT|INTERRES
   111   54  179 1    
   112   55   56 2    
   113   55   57 1    
   114   57   58 1    
   115   57   59 1    
   116   57  180 1    
   117   58  181 1    
   118   58  182 1    
   119   58  183 1    
   120   59   60 am   BACKBONE|DICT|INTERRES
   121   59  184 1    
   122   60   61 2    
   123   60   62 1    
   124   62   63 1    
   125   62   64 1    
   126   62  185 1    
   127   63  186 1    
   128   63  187 1    
   129   63  188 1    
   130   64   65 am   BACKBONE|DICT|INTERRES
   131   64  189 1    
   132   65   66 2    
   133   67   68 2    
   134   67   69 am   BACKBONE|DICT|INTERRES
   135   69   70 1    
   136   69  190 1    
   137   70   71 1    
   138   70   72 1    
   139   70  191 1    
   140   71  192 1    
   141   71  193 1    
   142   71  194 1    
   143   72   73 2    
   144   72   74 am   BACKBONE|DICT|INTERRES
   145   74   75 1    
   146   74  195 1    
   147   75   76 1    
   148   75   77 1    
   149   75  196 1    
   150   76  197 1    
   151   76  198 1    
   152   76  199 1    
   153   77   78 2    
   154   77   79 am   BACKBONE|DICT|INTERRES
   155   79   80 1    
   156   79  200 1    
   157   80   81 1    
   158   80   82 1    
   159   80  201 1    
   160   81  202 1    
   161   81  203 1    
   162   81  204 1    
   163   82   83 2    
   164   82   84 am   BACKBONE|DICT|INTERRES
   165   84   85 1    
   166   84  205 1    
   167   85   86 1    
   168   85   87 1    
   169   85  206 1    
   170   86  207 1    
   171   86  208 1    
   172   86  209 1    
   173   87   88 2    
   174   87   89 am   BACKBONE|DICT|INTERRES
   175   89   90 1    
   176   89  210 1    
   177   90   91 1    
   178   90   92 1    
   179   90  211 1    
   180   91  212 1    
   181   91  213 1    
   182   91  214 1    
   183   92   93 2    
   184   92   94 am   BACKBONE|DICT|INTERRES
   185   94   95 1    
   186   94  215 1    
   187   95   96 1    
   188   95   97 1    
   189   95  216 1    
   190   96  217 1    
   191   96  218 1    
   192   96  219 1    
   193   97   98 2    
   194   97   99 am   BACKBONE|DICT|INTERRES
   195   99  100 1    
   196   99  220 1    
   197  100  101 1    
   198  100  102 1    
   199  100  221 1    
   200  101  222 1    
   201  101  223 1    
   202  101  224 1    
   203  102  103 2    
   204  102  104 am   BACKBONE|DICT|INTERRES
   205  104  105 1    
   206  104  225 1    
   207  105  106 1    
   208  105  107 1    
   209  105  226 1    
   210  106  227 1    
   211  106  228 1    
   212  106  229 1    
   213  107  108 2    
   214  107  109 am   BACKBONE|DICT|INTERRES
   215  109  110 1    
   216  109  230 1    
   217  110  111 1    
   218  110  112 1    
   219  110  231 1    
   220  111  232 1    
   221  111  233 1    
   222  111  234 1    
   223  112  113 2    
   224  112  114 am   BACKBONE|DICT|INTERRES
   225  114  115 1    
   226  114  235 1    
   227  115  116 1    
   228  115  117 1    
   229  115  236 1    
   230  116  237 1    
   231  116  238 1    
   232  116  239 1    
   233  117  118 2    
   234  117  119 am   BACKBONE|DICT|INTERRES
   235  119  120 1    
   236  119  240 1    
   237  120  121 1    
   238  120  124 1    
   239  120  241 1    
   240  121  122 am   BACKBONE|DICT|INTERRES
   241  121  123 2    
   242  122  242 1    
   243  122  243 1    
   244  124  125 1    
   245  124  244 1    
   246  124  245 1    
   247  125  126 1    
   248  126  246 1    
   249  126  247 1    
@<TRIPOS>SUBSTRUCTURE
     1 UNK         1 GROUP             0       ****    0 ROOT    
