@<TRIPOS>MOLECULE
3R540
247   249    1
SMALL
USER_CHARGES


@<TRIPOS>ATOM
      1 CA          4.0519  -12.5566  -42.0827 C.3       0 UNK        -0.1800 
      2 C           3.3841  -13.0083  -43.3719 C.2       0 UNK         0.5000 
      3 O           2.2732  -12.5673  -43.6734 O.2       0 UNK        -0.5000 
      4 N           4.0555  -13.8727  -44.1459 N.am      1 UNK        -0.5000 
      5 CA          3.5798  -14.4620  -45.4065 C.3       1 UNK         0.1400 
      6 C6          4.2856  -15.8139  -45.7007 C.3       23 UNK        -0.0398 
      7 S7          3.1997  -17.0321  -46.5213 S.3       23 UNK        -0.2404 
      8 C8          3.7948  -16.9352  -48.2366 C.3       23 UNK        -0.0205 
      9 C9          3.2935  -18.0986  -49.0778 C.ar      23 UNK        -0.0193 
     10 C10         1.9985  -18.0807  -49.6028 C.ar      23 UNK        -0.1150 
     11 C11         1.5506  -19.1255  -50.4151 C.ar      23 UNK        -0.0193 
     12 C12         2.4072  -20.1899  -50.7058 C.ar      23 UNK        -0.1150 
     13 C13         3.7027  -20.2244  -50.1834 C.ar      23 UNK        -0.0193 
     14 C14         4.1372  -19.1771  -49.3640 C.ar      23 UNK        -0.1150 
     15 C15         4.6479  -21.3704  -50.5297 C.3       23 UNK        -0.0205 
     16 S16         3.9410  -23.0219  -50.2106 S.3       23 UNK        -0.2404 
     17 C17         3.6759  -22.9574  -48.4078 C.3       23 UNK        -0.0398 
     18 CA          2.3956  -23.6883  -47.9358 C.3       11 UNK         0.1400 
     19 N           2.4290  -23.8512  -46.4818 N.am      11 UNK        -0.5000 
     20 C           1.5476  -24.5316  -45.7380 C.2       10 UNK         0.5000 
     21 O           0.6299  -25.2008  -46.2073 O.2       10 UNK        -0.5000 
     22 CA          1.6823  -24.3806  -44.2093 C.3       10 UNK         0.1400 
     23 CB          2.4776  -25.5544  -43.6203 C.3       10 UNK        -0.1800 
     24 N           2.3152  -23.1168  -43.8130 N.am      10 UNK        -0.5000 
     25 C           1.8051  -21.9009  -44.0518 C.2       9 UNK         0.5000 
     26 O           0.7157  -21.7095  -44.5989 O.2       9 UNK        -0.5000 
     27 CA          2.7090  -20.7123  -43.7111 C.3       9 UNK         0.1400 
     28 CB          3.6242  -20.3806  -44.9025 C.3       9 UNK        -0.1800 
     29 N           1.8905  -19.5463  -43.4003 N.am      9 UNK        -0.5000 
     30 C           2.1279  -18.6950  -42.3968 C.2       8 UNK         0.5000 
     31 O           3.0906  -18.7962  -41.6342 O.2       8 UNK        -0.5000 
     32 CA          1.1484  -17.5201  -42.2006 C.3       8 UNK         0.1400 
     33 CB          1.8039  -16.2142  -42.6650 C.3       8 UNK        -0.1800 
     34 N          -0.1507  -17.6592  -42.8691 N.am      8 UNK        -0.5000 
     35 C          -1.0833  -18.5604  -42.5331 C.2       7 UNK         0.5000 
     36 O          -0.8989  -19.4285  -41.6790 O.2       7 UNK        -0.5000 
     37 CA         -2.4546  -18.4953  -43.2282 C.3       7 UNK         0.1400 
     38 CB         -3.5292  -17.9773  -42.2552 C.3       7 UNK        -0.1800 
     39 N          -2.4944  -17.6854  -44.4534 N.am      7 UNK        -0.5000 
     40 C          -3.2666  -18.0026  -45.5055 C.2       6 UNK         0.5000 
     41 O          -3.8835  -19.0632  -45.5876 O.2       6 UNK        -0.5000 
     42 CA         -3.4247  -16.9844  -46.6524 C.3       6 UNK         0.1400 
     43 CB         -4.8131  -16.3289  -46.5930 C.3       6 UNK        -0.1800 
     44 N          -2.4152  -15.9313  -46.6365 N.am      6 UNK        -0.5000 
     45 C          -1.2137  -16.0120  -47.2191 C.2       5 UNK         0.5000 
     46 O          -0.8741  -16.9469  -47.9401 O.2       5 UNK        -0.5000 
     47 CA         -0.2149  -14.8614  -46.9680 C.3       5 UNK         0.1400 
     48 CB          0.0972  -14.1291  -48.2822 C.3       5 UNK        -0.1800 
     49 N          -0.6152  -13.8708  -45.9583 N.am      5 UNK        -0.5000 
     50 C          -0.8747  -14.1130  -44.6652 C.2       4 UNK         0.5000 
     51 O          -0.8647  -15.2455  -44.1796 O.2       4 UNK        -0.5000 
     52 CA         -1.2313  -12.8947  -43.7947 C.3       4 UNK         0.1400 
     53 CB         -1.0594  -13.1693  -42.2901 C.3       4 UNK        -0.1800 
     54 N          -0.4015  -11.7510  -44.1667 N.am      4 UNK        -0.5000 
     55 C          -0.8435  -10.5624  -44.5958 C.2       3 UNK         0.5000 
     56 O          -2.0336  -10.2825  -44.7420 O.2       3 UNK        -0.5000 
     57 CA          0.2317   -9.5135  -44.9355 C.3       3 UNK         0.1400 
     58 CB          0.6823   -8.7759  -43.6652 C.3       3 UNK        -0.1800 
     59 N           1.4014  -10.1094  -45.5829 N.am      3 UNK        -0.5000 
     60 C           1.4465  -10.4962  -46.8667 C.2       2 UNK         0.5000 
     61 O           0.5191  -10.3503  -47.6623 O.2       2 UNK        -0.5000 
     62 CA          2.7191  -11.2308  -47.3072 C.3       2 UNK         0.1400 
     63 CB          3.9394  -10.2945  -47.3552 C.3       2 UNK        -0.1800 
     64 N           2.9406  -12.3260  -46.3740 N.am      2 UNK        -0.5000 
     65 C           3.6298  -13.4490  -46.5763 C.2       1 UNK         0.5000 
     66 O           4.2727  -13.6818  -47.6001 O.2       1 UNK        -0.5000 
     67 C           1.1006  -22.9872  -48.4169 C.2       11 UNK         0.5000 
     68 O           0.5567  -23.3621  -49.4562 O.2       11 UNK        -0.5000 
     69 N           0.5975  -22.0224  -47.6315 N.am      12 UNK        -0.5000 
     70 CA         -0.6663  -21.3387  -47.8978 C.3       12 UNK         0.1400 
     71 CB         -0.7010  -20.0020  -47.1522 C.3       12 UNK        -0.1800 
     72 C          -1.8750  -22.2062  -47.5182 C.2       12 UNK         0.5000 
     73 O          -2.8576  -22.2355  -48.2607 O.2       12 UNK        -0.5000 
     74 N          -1.7689  -22.9359  -46.3979 N.am      13 UNK        -0.5000 
     75 CA         -2.7757  -23.8955  -45.9362 C.3       13 UNK         0.1400 
     76 CB         -2.3992  -24.4175  -44.5425 C.3       13 UNK        -0.1800 
     77 C          -2.9793  -25.0573  -46.9282 C.2       13 UNK         0.5000 
     78 O          -4.1198  -25.4418  -47.1855 O.2       13 UNK        -0.5000 
     79 N          -1.8792  -25.5390  -47.5248 N.am      14 UNK        -0.5000 
     80 CA         -1.8559  -26.5386  -48.5967 C.3       14 UNK         0.1400 
     81 CB         -0.4011  -26.9492  -48.8696 C.3       14 UNK        -0.1800 
     82 C          -2.5384  -26.0707  -49.8992 C.2       14 UNK         0.5000 
     83 O          -3.0233  -26.9079  -50.6601 O.2       14 UNK        -0.5000 
     84 N          -2.6109  -24.7493  -50.1103 N.am      15 UNK        -0.5000 
     85 CA         -3.3562  -24.0968  -51.1884 C.3       15 UNK         0.1400 
     86 CB         -2.6050  -22.8222  -51.6148 C.3       15 UNK        -0.1800 
     87 C          -4.8197  -23.7996  -50.7904 C.2       15 UNK         0.5000 
     88 O          -5.4503  -22.9368  -51.4040 O.2       15 UNK        -0.5000 
     89 N          -5.3368  -24.4973  -49.7675 N.am      16 UNK        -0.5000 
     90 CA         -6.6778  -24.3777  -49.1841 C.3       16 UNK         0.1400 
     91 CB         -7.7651  -24.7702  -50.2058 C.3       16 UNK        -0.1800 
     92 C          -6.9162  -22.9970  -48.5422 C.2       16 UNK         0.5000 
     93 O          -8.0011  -22.4316  -48.6762 O.2       16 UNK        -0.5000 
     94 N          -5.8758  -22.4826  -47.8713 N.am      17 UNK        -0.5000 
     95 CA         -5.7612  -21.1325  -47.3122 C.3       17 UNK         0.1400 
     96 CB         -6.8153  -20.8736  -46.2147 C.3       17 UNK        -0.1800 
     97 C          -5.7451  -20.0664  -48.4269 C.2       17 UNK         0.5000 
     98 O          -6.4800  -19.0799  -48.3578 O.2       17 UNK        -0.5000 
     99 N          -4.9083  -20.3190  -49.4463 N.am      18 UNK        -0.5000 
    100 CA        -4.7211  -19.5281  -50.6681 C.3       18 UNK         0.1400 
    101 CB        -3.9983  -18.2045  -50.3403 C.3       18 UNK        -0.1800 
    102 C         -6.0322  -19.3233  -51.4609 C.2       18 UNK         0.5000 
    103 O         -6.3820  -18.1893  -51.7969 O.2       18 UNK        -0.5000 
    104 N         -6.7440  -20.4277  -51.7212 N.am      19 UNK        -0.5000 
    105 CA        -8.0249  -20.4461  -52.4312 C.3       19 UNK         0.1400 
    106 CB        -9.1510  -20.7896  -51.4447 C.3       19 UNK        -0.1800 
    107 C         -8.0257  -21.4320  -53.6106 C.2       19 UNK         0.5000 
    108 O         -8.6314  -21.1312  -54.6401 O.2       19 UNK        -0.5000 
    109 N         -7.3544  -22.5823  -53.4604 N.am      20 UNK        -0.5000 
    110 CA        -7.2155  -23.5998  -54.5080 C.3       20 UNK         0.1400 
    111 CB        -7.0655  -24.9804  -53.8497 C.3       20 UNK        -0.1800 
    112 C         -6.0213  -23.3160  -55.4384 C.2       20 UNK         0.5000 
    113 O         -5.9655  -23.8547  -56.5445 O.2       20 UNK        -0.5000 
    114 N         -5.0950  -22.4755  -54.9723 N.am      21 UNK        -0.5000 
    115 CA        -3.9020  -21.9995  -55.6562 C.3       21 UNK         0.1400 
    116 CB        -2.8083  -23.0864  -55.6217 C.3       21 UNK        -0.1800 
    117 C         -3.4618  -20.7029  -54.9558 C.2       21 UNK         0.5000 
    118 O         -4.1449  -20.2458  -54.0348 O.2       21 UNK        -0.5000 
    119 N         -2.3195  -20.1452  -55.3745 N.am      22 UNK        -0.5000 
    120 CA        -1.6949  -18.9454  -54.7836 C.3       22 UNK         0.1400 
    121 C         -2.3792  -17.5959  -55.1681 C.2       22 UNK         0.5000 
    122 N         -3.2740  -17.5648  -56.1484 N.am      22 UNK        -0.7600 
    123 O         -2.0785  -16.5528  -54.5948 O.2       22 UNK        -0.5000 
    124 C124       -1.4631  -19.0959  -53.2495 C.3       23 UNK        -0.0398 
    125 S125        0.1353  -18.4408  -52.6786 S.3       23 UNK        -0.2404 
    126 C126        0.1463  -19.1119  -50.9888 C.3       23 UNK        -0.0205 
    127 H127        3.4299  -12.8237  -41.2284 H         1 UNK         0.0600 
    128 H128        4.1809  -11.4744  -42.0873 H         1 UNK         0.0600 
    129 H129        5.0308  -13.0175  -41.9495 H         1 UNK         0.0600 
    130 H130        4.9824  -14.1555  -43.8608 H         1 UNK         0.3000 
    131 H131        2.5198  -14.6727  -45.2602 H         1 UNK         0.0600 
    132 H132        4.5802  -16.2848  -44.7616 H         1 UNK         0.0800 
    133 H133        5.2173  -15.6807  -46.2526 H         1 UNK         0.0800 
    134 H134        4.8855  -16.9124  -48.2472 H         1 UNK         0.0800 
    135 H135        3.4628  -15.9961  -48.6810 H         1 UNK         0.0800 
    136 H136        1.3419  -17.2507  -49.3833 H         1 UNK         0.1150 
    137 H137        2.0645  -20.9930  -51.3434 H         1 UNK         0.1150 
    138 H138        5.1410  -19.1898  -48.9630 H         1 UNK         0.1150 
    139 H139        4.9063  -21.2993  -51.5869 H         1 UNK         0.0800 
    140 H140        5.5850  -21.2799  -49.9782 H         1 UNK         0.0800 
    141 H141        3.6694  -21.9232  -48.0604 H         1 UNK         0.0800 
    142 H142        4.5528  -23.4172  -47.9495 H         1 UNK         0.0800 
    143 H143        2.3974  -24.6924  -48.3655 H         1 UNK         0.0600 
    144 H144        3.1558  -23.3496  -45.9947 H         1 UNK         0.3000 
    145 H145        0.6774  -24.3988  -43.7840 H         1 UNK         0.0600 
    146 H146        2.5164  -25.4984  -42.5323 H         1 UNK         0.0600 
    147 H147        2.0143  -26.5078  -43.8787 H         1 UNK         0.0600 
    148 H148        3.5022  -25.5754  -43.9935 H         1 UNK         0.0600 
    149 H149        3.2174  -23.1908  -43.3644 H         1 UNK         0.3000 
    150 H150        3.3226  -20.9893  -42.8513 H         1 UNK         0.0600 
    151 H151        4.2710  -21.2223  -45.1519 H         1 UNK         0.0600 
    152 H152        4.2707  -19.5324  -44.6764 H         1 UNK         0.0600 
    153 H153        3.0492  -20.1295  -45.7953 H         1 UNK         0.0600 
    154 H154        1.0462  -19.4464  -43.9468 H         1 UNK         0.3000 
    155 H155        0.9627  -17.4392  -41.1276 H         1 UNK         0.0600 
    156 H156        1.9242  -16.2112  -43.7463 H         1 UNK         0.0600 
    157 H157        2.7905  -16.0783  -42.2199 H         1 UNK         0.0600 
    158 H158        1.2042  -15.3487  -42.3884 H         1 UNK         0.0600 
    159 H159       -0.3840  -16.9213  -43.5263 H         1 UNK         0.3000 
    160 H160       -2.6917  -19.5338  -43.4696 H         1 UNK         0.0600 
    161 H161       -3.3578  -16.9327  -41.9923 H         1 UNK         0.0600 
    162 H162       -3.5362  -18.5538  -41.3293 H         1 UNK         0.0600 
    163 H163       -4.5259  -18.0547  -42.6900 H         1 UNK         0.0600 
    164 H164       -1.9968  -16.8009  -44.4433 H         1 UNK         0.3000 
    165 H165       -3.3541  -17.5418  -47.5871 H         1 UNK         0.0600 
    166 H166       -4.9718  -15.6660  -47.4437 H         1 UNK         0.0600 
    167 H167       -5.6029  -17.0809  -46.6194 H         1 UNK         0.0600 
    168 H168       -4.9458  -15.7463  -45.6807 H         1 UNK         0.0600 
    169 H169       -2.6126  -15.1215  -46.0687 H         1 UNK         0.3000 
    170 H170        0.7037  -15.3309  -46.6157 H         1 UNK         0.0600 
    171 H171        0.4423  -14.8236  -49.0493 H         1 UNK         0.0600 
    172 H172       -0.7821  -13.6164  -48.6738 H         1 UNK         0.0600 
    173 H173        0.8835  -13.3895  -48.1467 H         1 UNK         0.0600 
    174 H174       -0.6808  -12.9145  -46.2761 H         1 UNK         0.3000 
    175 H175       -2.2857  -12.6832  -43.9810 H         1 UNK         0.0600 
    176 H176       -0.0190  -13.3727  -42.0363 H         1 UNK         0.0600 
    177 H177       -1.3826  -12.3129  -41.6984 H         1 UNK         0.0600 
    178 H178       -1.6543  -14.0259  -41.9703 H         1 UNK         0.0600 
    179 H179        0.5994  -11.8980  -44.0572 H         1 UNK         0.3000 
    180 H180       -0.2125   -8.7825  -45.6147 H         1 UNK         0.0600 
    181 H181        1.1527   -9.4529  -42.9506 H         1 UNK         0.0600 
    182 H182       -0.1658   -8.3071  -43.1645 H         1 UNK         0.0600 
    183 H183        1.3967   -7.9867  -43.9003 H         1 UNK         0.0600 
    184 H184        2.2101  -10.2553  -44.9963 H         1 UNK         0.3000 
    185 H185        2.5489  -11.6393  -48.3053 H         1 UNK         0.0600 
    186 H186        3.7542   -9.4474  -48.0167 H         1 UNK         0.0600 
    187 H187        4.1860   -9.8971  -46.3701 H         1 UNK         0.0600 
    188 H188        4.8194  -10.8148  -47.7334 H         1 UNK         0.0600 
    189 H189        2.4708  -12.2469  -45.4761 H         1 UNK         0.3000 
    190 H190        1.0468  -21.8068  -46.7516 H         1 UNK         0.3000 
    191 H191       -0.7314  -21.1285  -48.9658 H         1 UNK         0.0600 
    192 H192        0.1741  -19.3948  -47.3855 H         1 UNK         0.0600 
    193 H193       -1.5820  -19.4351  -47.4508 H         1 UNK         0.0600 
    194 H194       -0.7464  -20.1286  -46.0708 H         1 UNK         0.0600 
    195 H195       -0.9342  -22.8364  -45.8354 H         1 UNK         0.3000 
    196 H196       -3.7234  -23.3603  -45.8492 H         1 UNK         0.0600 
    197 H197       -3.1972  -25.0393  -44.1351 H         1 UNK         0.0600 
    198 H198       -2.2350  -23.5981  -43.8424 H         1 UNK         0.0600 
    199 H199       -1.4962  -25.0264  -44.5679 H         1 UNK         0.0600 
    200 H200       -0.9731  -25.2155  -47.1949 H         1 UNK         0.3000 
    201 H201       -2.3982  -27.4172  -48.2417 H         1 UNK         0.0600 
    202 H202        0.0666  -27.3616  -47.9754 H         1 UNK         0.0600 
    203 H203        0.1996  -26.1016  -49.2007 H         1 UNK         0.0600 
    204 H204       -0.3480  -27.7136  -49.6458 H         1 UNK         0.0600 
    205 H205       -2.1997  -24.1312  -49.4233 H         1 UNK         0.3000 
    206 H206       -3.3967  -24.7599  -52.0547 H         1 UNK         0.0600 
    207 H207       -1.5896  -23.0537  -51.9370 H         1 UNK         0.0600 
    208 H208       -3.1047  -22.3324  -52.4494 H         1 UNK         0.0600 
    209 H209       -2.5376  -22.0952  -50.8073 H         1 UNK         0.0600 
    210 H210       -4.7260  -25.1447  -49.2856 H         1 UNK         0.3000 
    211 H211       -6.7193  -25.1016  -48.3690 H         1 UNK         0.0600 
    212 H212       -7.8532  -24.0383  -51.0076 H         1 UNK         0.0600 
    213 H213       -8.7416  -24.8419  -49.7257 H         1 UNK         0.0600 
    214 H214       -7.5530  -25.7399  -50.6558 H         1 UNK         0.0600 
    215 H215       -5.0177  -23.0180  -47.8695 H         1 UNK         0.3000 
    216 H216       -4.7840  -21.0942  -46.8331 H         1 UNK         0.0600 
    217 H217       -6.6211  -19.9250  -45.7130 H         1 UNK         0.0600 
    218 H218       -6.7918  -21.6536  -45.4539 H         1 UNK         0.0600 
    219 H219       -7.8267  -20.8249  -46.6181 H         1 UNK         0.0600 
    220 H220       -4.3393  -21.1538  -49.3717 H         1 UNK         0.3000 
    221 H221       -4.0632  -20.1097  -51.3143 H         1 UNK         0.0600 
    222 H222       -3.0364  -18.3888  -49.8618 H         1 UNK         0.0600 
    223 H223       -3.8060  -17.6259  -51.2440 H         1 UNK         0.0600 
    224 H224       -4.5916  -17.5745  -49.6775 H         1 UNK         0.0600 
    225 H225       -6.3591  -21.3240  -51.4358 H         1 UNK         0.3000 
    226 H226       -8.2373  -19.4602  -52.8496 H         1 UNK         0.0600 
    227 H227       -9.1629  -20.0977  -50.6021 H         1 UNK         0.0600 
    228 H228      -10.1260  -20.7323  -51.9299 H         1 UNK         0.0600 
    229 H229       -9.0424  -21.7985  -51.0469 H         1 UNK         0.0600 
    230 H230       -6.8324  -22.7517  -52.6053 H         1 UNK         0.3000 
    231 H231       -8.1175  -23.6169  -55.1233 H         1 UNK         0.0600 
    232 H232       -6.1813  -25.0326  -53.2142 H         1 UNK         0.0600 
    233 H233       -6.9737  -25.7642  -54.6026 H         1 UNK         0.0600 
    234 H234       -7.9354  -25.2212  -53.2390 H         1 UNK         0.0600 
    235 H235       -5.2560  -22.0170  -54.0832 H         1 UNK         0.3000 
    236 H236       -4.1528  -21.7578  -56.6908 H         1 UNK         0.0600 
    237 H237       -3.1525  -24.0096  -56.0878 H         1 UNK         0.0600 
    238 H238       -1.9160  -22.7725  -56.1636 H         1 UNK         0.0600 
    239 H239       -2.5076  -23.3238  -54.6012 H         1 UNK         0.0600 
    240 H240       -1.8175  -20.5657  -56.1436 H         1 UNK         0.3000 
    241 H241       -0.7172  -18.8983  -55.2642 H         1 UNK         0.0600 
    242 H242       -3.5283  -18.4066  -56.6393 H         1 UNK         0.3800 
    243 H243       -3.7048  -16.6885  -56.3983 H         1 UNK         0.3800 
    244 H244       -2.2693  -18.6344  -52.6798 H         1 UNK         0.0800 
    245 H245       -1.4777  -20.1513  -52.9748 H         1 UNK         0.0800 
    246 H246       -0.5217  -18.5249  -50.3558 H         1 UNK         0.0800 
    247 H247       -0.2446  -20.1299  -50.9956 H         1 UNK         0.0800 
@<TRIPOS>BOND
     1    1    2 1    
     2    1  127 1    
     3    1  128 1    
     4    1  129 1    
     5    2    3 2    
     6    2    4 am   BACKBONE|DICT|INTERRES
     7    4    5 1    
     8    4  130 1    
     9    5    6 1    
    10    5   65 1    
    11    5  131 1    
    12    6    7 1    
    13    6  132 1    
    14    6  133 1    
    15    7    8 1    
    16    8    9 1    
    17    8  134 1    
    18    8  135 1    
    19    9   10 ar   
    20    9   14 ar   
    21   10   11 ar   
    22   10  136 1    
    23   11   12 ar   
    24   11  126 1    
    25   12   13 ar   
    26   12  137 1    
    27   13   14 ar   
    28   13   15 1    
    29   14  138 1    
    30   15   16 1    
    31   15  139 1    
    32   15  140 1    
    33   16   17 1    
    34   17   18 1    
    35   17  141 1    
    36   17  142 1    
    37   18   19 1    
    38   18   67 1    
    39   18  143 1    
    40   19   20 am   BACKBONE|DICT|INTERRES
    41   19  144 1    
    42   20   21 2    
    43   20   22 1    
    44   22   23 1    
    45   22   24 1    
    46   22  145 1    
    47   23  146 1    
    48   23  147 1    
    49   23  148 1    
    50   24   25 am   BACKBONE|DICT|INTERRES
    51   24  149 1    
    52   25   26 2    
    53   25   27 1    
    54   27   28 1    
    55   27   29 1    
    56   27  150 1    
    57   28  151 1    
    58   28  152 1    
    59   28  153 1    
    60   29   30 am   BACKBONE|DICT|INTERRES
    61   29  154 1    
    62   30   31 2    
    63   30   32 1    
    64   32   33 1    
    65   32   34 1    
    66   32  155 1    
    67   33  156 1    
    68   33  157 1    
    69   33  158 1    
    70   34   35 am   BACKBONE|DICT|INTERRES
    71   34  159 1    
    72   35   36 2    
    73   35   37 1    
    74   37   38 1    
    75   37   39 1    
    76   37  160 1    
    77   38  161 1    
    78   38  162 1    
    79   38  163 1    
    80   39   40 am   BACKBONE|DICT|INTERRES
    81   39  164 1    
    82   40   41 2    
    83   40   42 1    
    84   42   43 1    
    85   42   44 1    
    86   42  165 1    
    87   43  166 1    
    88   43  167 1    
    89   43  168 1    
    90   44   45 am   BACKBONE|DICT|INTERRES
    91   44  169 1    
    92   45   46 2    
    93   45   47 1    
    94   47   48 1    
    95   47   49 1    
    96   47  170 1    
    97   48  171 1    
    98   48  172 1    
    99   48  173 1    
   100   49   50 am   BACKBONE|DICT|INTERRES
   101   49  174 1    
   102   50   51 2    
   103   50   52 1    
   104   52   53 1    
   105   52   54 1    
   106   52  175 1    
   107   53  176 1    
   108   53  177 1    
   109   53  178 1    
   110   54   55 am   BACKBONE|DICT|INTERRES
   111   54  179 1    
   112   55   56 2    
   113   55   57 1    
   114   57   58 1    
   115   57   59 1    
   116   57  180 1    
   117   58  181 1    
   118   58  182 1    
   119   58  183 1    
   120   59   60 am   BACKBONE|DICT|INTERRES
   121   59  184 1    
   122   60   61 2    
   123   60   62 1    
   124   62   63 1    
   125   62   64 1    
   126   62  185 1    
   127   63  186 1    
   128   63  187 1    
   129   63  188 1    
   130   64   65 am   BACKBONE|DICT|INTERRES
   131   64  189 1    
   132   65   66 2    
   133   67   68 2    
   134   67   69 am   BACKBONE|DICT|INTERRES
   135   69   70 1    
   136   69  190 1    
   137   70   71 1    
   138   70   72 1    
   139   70  191 1    
   140   71  192 1    
   141   71  193 1    
   142   71  194 1    
   143   72   73 2    
   144   72   74 am   BACKBONE|DICT|INTERRES
   145   74   75 1    
   146   74  195 1    
   147   75   76 1    
   148   75   77 1    
   149   75  196 1    
   150   76  197 1    
   151   76  198 1    
   152   76  199 1    
   153   77   78 2    
   154   77   79 am   BACKBONE|DICT|INTERRES
   155   79   80 1    
   156   79  200 1    
   157   80   81 1    
   158   80   82 1    
   159   80  201 1    
   160   81  202 1    
   161   81  203 1    
   162   81  204 1    
   163   82   83 2    
   164   82   84 am   BACKBONE|DICT|INTERRES
   165   84   85 1    
   166   84  205 1    
   167   85   86 1    
   168   85   87 1    
   169   85  206 1    
   170   86  207 1    
   171   86  208 1    
   172   86  209 1    
   173   87   88 2    
   174   87   89 am   BACKBONE|DICT|INTERRES
   175   89   90 1    
   176   89  210 1    
   177   90   91 1    
   178   90   92 1    
   179   90  211 1    
   180   91  212 1    
   181   91  213 1    
   182   91  214 1    
   183   92   93 2    
   184   92   94 am   BACKBONE|DICT|INTERRES
   185   94   95 1    
   186   94  215 1    
   187   95   96 1    
   188   95   97 1    
   189   95  216 1    
   190   96  217 1    
   191   96  218 1    
   192   96  219 1    
   193   97   98 2    
   194   97   99 am   BACKBONE|DICT|INTERRES
   195   99  100 1    
   196   99  220 1    
   197  100  101 1    
   198  100  102 1    
   199  100  221 1    
   200  101  222 1    
   201  101  223 1    
   202  101  224 1    
   203  102  103 2    
   204  102  104 am   BACKBONE|DICT|INTERRES
   205  104  105 1    
   206  104  225 1    
   207  105  106 1    
   208  105  107 1    
   209  105  226 1    
   210  106  227 1    
   211  106  228 1    
   212  106  229 1    
   213  107  108 2    
   214  107  109 am   BACKBONE|DICT|INTERRES
   215  109  110 1    
   216  109  230 1    
   217  110  111 1    
   218  110  112 1    
   219  110  231 1    
   220  111  232 1    
   221  111  233 1    
   222  111  234 1    
   223  112  113 2    
   224  112  114 am   BACKBONE|DICT|INTERRES
   225  114  115 1    
   226  114  235 1    
   227  115  116 1    
   228  115  117 1    
   229  115  236 1    
   230  116  237 1    
   231  116  238 1    
   232  116  239 1    
   233  117  118 2    
   234  117  119 am   BACKBONE|DICT|INTERRES
   235  119  120 1    
   236  119  240 1    
   237  120  121 1    
   238  120  124 1    
   239  120  241 1    
   240  121  122 am   BACKBONE|DICT|INTERRES
   241  121  123 2    
   242  122  242 1    
   243  122  243 1    
   244  124  125 1    
   245  124  244 1    
   246  124  245 1    
   247  125  126 1    
   248  126  246 1    
   249  126  247 1    
@<TRIPOS>SUBSTRUCTURE
     1 UNK         1 GROUP             0       ****    0 ROOT    
