@<TRIPOS>MOLECULE
3R540
247   249    1
SMALL
USER_CHARGES


@<TRIPOS>ATOM
      1 CA         -1.2072  -13.0641  -50.8949 C.3       0 UNK        -0.1800 
      2 C           0.1491  -13.3679  -50.2760 C.2       0 UNK         0.5000 
      3 O           1.1788  -13.0215  -50.8545 O.2       0 UNK        -0.5000 
      4 N           0.1508  -13.9893  -49.0939 N.am      1 UNK        -0.5000 
      5 CA          1.3427  -14.3338  -48.3237 C.3       1 UNK         0.1400 
      6 C6          2.0355  -15.6080  -48.8830 C.3       23 UNK        -0.0398 
      7 S7          3.8456  -15.5919  -48.6417 S.3       23 UNK        -0.2404 
      8 C8          4.2532  -17.3749  -48.5549 C.3       23 UNK        -0.0205 
      9 C9          3.6918  -18.2408  -49.6850 C.ar      23 UNK        -0.0193 
     10 C10         3.4337  -17.7229  -50.9588 C.ar      23 UNK        -0.1150 
     11 C11         2.8585  -18.5149  -51.9553 C.ar      23 UNK        -0.0193 
     12 C12         2.6214  -19.8690  -51.6969 C.ar      23 UNK        -0.1150 
     13 C13         2.9233  -20.4222  -50.4470 C.ar      23 UNK        -0.0193 
     14 C14         3.4436  -19.5961  -49.4453 C.ar      23 UNK        -0.1150 
     15 C15         2.7737  -21.9197  -50.1893 C.3       23 UNK        -0.0205 
     16 S16         1.1951  -22.6387  -50.7573 S.3       23 UNK        -0.2404 
     17 C17         0.0627  -22.2823  -49.3743 C.3       23 UNK        -0.0398 
     18 CA         -0.0713  -23.4814  -48.4034 C.3       11 UNK         0.1400 
     19 N           1.1772  -23.7840  -47.6959 N.am      11 UNK        -0.5000 
     20 C           1.4172  -24.9291  -47.0425 C.2       10 UNK         0.5000 
     21 O           0.6104  -25.8550  -46.9756 O.2       10 UNK        -0.5000 
     22 CA          2.7686  -25.0598  -46.3158 C.3       10 UNK         0.1400 
     23 CB          3.8223  -25.6609  -47.2577 C.3       10 UNK        -0.1800 
     24 N           3.2759  -23.7987  -45.7756 N.am      10 UNK        -0.5000 
     25 C           2.6816  -23.0631  -44.8260 C.2       9 UNK         0.5000 
     26 O           1.6142  -23.3735  -44.2954 O.2       9 UNK        -0.5000 
     27 CA          3.3761  -21.7425  -44.4201 C.3       9 UNK         0.1400 
     28 CB          4.7808  -21.5622  -45.0380 C.3       9 UNK        -0.1800 
     29 N           2.5744  -20.5479  -44.7078 N.am      9 UNK        -0.5000 
     30 C           1.9337  -20.2449  -45.8440 C.2       8 UNK         0.5000 
     31 O           1.8321  -21.0301  -46.7882 O.2       8 UNK        -0.5000 
     32 CA          1.3168  -18.8323  -45.9645 C.3       8 UNK         0.1400 
     33 CB          0.2895  -18.7637  -47.1068 C.3       8 UNK        -0.1800 
     34 N           0.7135  -18.2909  -44.7396 N.am      8 UNK        -0.5000 
     35 C           1.3838  -17.8167  -43.6771 C.2       7 UNK         0.5000 
     36 O           2.5994  -17.9554  -43.5343 O.2       7 UNK        -0.5000 
     37 CA          0.5967  -17.0551  -42.5885 C.3       7 UNK         0.1400 
     38 CB          0.9947  -15.5704  -42.5749 C.3       7 UNK        -0.1800 
     39 N          -0.8540  -17.1469  -42.7438 N.am      7 UNK        -0.5000 
     40 C          -1.5958  -18.1908  -42.3482 C.2       6 UNK         0.5000 
     41 O          -1.1333  -19.1508  -41.7321 O.2       6 UNK        -0.5000 
     42 CA         -3.1012  -18.1769  -42.6974 C.3       6 UNK         0.1400 
     43 CB         -3.9420  -17.9181  -41.4377 C.3       6 UNK        -0.1800 
     44 N          -3.4727  -17.1929  -43.7164 N.am      6 UNK        -0.5000 
     45 C          -3.0499  -17.1844  -44.9885 C.2       5 UNK         0.5000 
     46 O          -2.3512  -18.0723  -45.4717 O.2       5 UNK        -0.5000 
     47 CA         -3.4208  -15.9561  -45.8450 C.3       5 UNK         0.1400 
     48 CB         -4.5411  -16.3031  -46.8373 C.3       5 UNK        -0.1800 
     49 N          -3.8205  -14.7800  -45.0618 N.am      5 UNK        -0.5000 
     50 C          -3.0234  -14.1125  -44.2170 C.2       4 UNK         0.5000 
     51 O          -1.8523  -14.4255  -43.9918 O.2       4 UNK        -0.5000 
     52 CA         -3.6286  -12.8684  -43.5441 C.3       4 UNK         0.1400 
     53 CB         -3.0644  -12.6472  -42.1301 C.3       4 UNK        -0.1800 
     54 N          -3.3103  -11.7125  -44.3709 N.am      4 UNK        -0.5000 
     55 C          -3.9922  -11.3420  -45.4630 C.2       3 UNK         0.5000 
     56 O          -5.1107  -11.7676  -45.7536 O.2       3 UNK        -0.5000 
     57 CA         -3.2551  -10.3883  -46.4254 C.3       3 UNK         0.1400 
     58 CB         -3.4974   -8.9227  -46.0346 C.3       3 UNK        -0.1800 
     59 N          -1.8109  -10.6516  -46.4648 N.am      3 UNK        -0.5000 
     60 C          -1.2629  -11.8035  -46.8812 C.2       2 UNK         0.5000 
     61 O          -1.9177  -12.7132  -47.3955 O.2       2 UNK        -0.5000 
     62 CA          0.2526  -11.9958  -46.6664 C.3       2 UNK         0.1400 
     63 CB          0.8622  -11.0067  -45.6531 C.3       2 UNK        -0.1800 
     64 N           0.4871  -13.3550  -46.1744 N.am      2 UNK        -0.5000 
     65 C           0.9578  -14.4270  -46.8290 C.2       1 UNK         0.5000 
     66 O           1.0538  -15.5042  -46.2491 O.2       1 UNK        -0.5000 
     67 C          -1.2186  -23.2596  -47.4013 C.2       11 UNK         0.5000 
     68 O          -2.3241  -23.7575  -47.6185 O.2       11 UNK        -0.5000 
     69 N          -0.9163  -22.5691  -46.2933 N.am      12 UNK        -0.5000 
     70 CA         -1.8326  -22.3779  -45.1720 C.3       12 UNK         0.1400 
     71 CB         -1.2770  -21.3138  -44.2205 C.3       12 UNK        -0.1800 
     72 C          -2.1141  -23.6891  -44.4195 C.2       12 UNK         0.5000 
     73 O          -3.2731  -23.9711  -44.1179 O.2       12 UNK        -0.5000 
     74 N          -1.0634  -24.4842  -44.1678 N.am      13 UNK        -0.5000 
     75 CA         -1.1430  -25.7912  -43.5079 C.3       13 UNK         0.1400 
     76 CB          0.2738  -26.3215  -43.2453 C.3       13 UNK        -0.1800 
     77 C          -1.9703  -26.8229  -44.2990 C.2       13 UNK         0.5000 
     78 O          -2.7157  -27.5958  -43.6964 O.2       13 UNK        -0.5000 
     79 N          -1.8541  -26.7904  -45.6334 N.am      14 UNK        -0.5000 
     80 CA         -2.6504  -27.5935  -46.5636 C.3       14 UNK         0.1400 
     81 CB         -1.9429  -27.6102  -47.9285 C.3       14 UNK        -0.1800 
     82 C          -4.1000  -27.0917  -46.7286 C.2       14 UNK         0.5000 
     83 O          -4.9129  -27.8072  -47.3154 O.2       14 UNK        -0.5000 
     84 N          -4.3884  -25.8725  -46.2454 N.am      15 UNK        -0.5000 
     85 CA         -5.6322  -25.1127  -46.4159 C.3       15 UNK         0.1400 
     86 CB         -6.8075  -25.7993  -45.6901 C.3       15 UNK        -0.1800 
     87 C          -5.9312  -24.7969  -47.8975 C.2       15 UNK         0.5000 
     88 O          -7.0933  -24.7460  -48.3058 O.2       15 UNK        -0.5000 
     89 N          -4.8660  -24.5890  -48.6801 N.am      16 UNK        -0.5000 
     90 CA         -4.9025  -24.2894  -50.1037 C.3       16 UNK         0.1400 
     91 CB         -3.6619  -24.9148  -50.7656 C.3       16 UNK        -0.1800 
     92 C          -4.9648  -22.7662  -50.2818 C.2       16 UNK         0.5000 
     93 O          -3.9455  -22.1342  -50.5601 O.2       16 UNK        -0.5000 
     94 N          -6.1604  -22.1967  -50.0812 N.am      17 UNK        -0.5000 
     95 CA         -6.4250  -20.7544  -50.0899 C.3       17 UNK         0.1400 
     96 CB         -7.9120  -20.5089  -49.7952 C.3       17 UNK        -0.1800 
     97 C          -6.0052  -20.0415  -51.3895 C.2       17 UNK         0.5000 
     98 O          -5.4724  -18.9351  -51.3267 O.2       17 UNK        -0.5000 
     99 N          -6.2070  -20.7031  -52.5373 N.am      18 UNK        -0.5000 
    100 CA        -5.7956  -20.2099  -53.8538 C.3       18 UNK         0.1400 
    101 CB        -6.4426  -21.0761  -54.9444 C.3       18 UNK        -0.1800 
    102 C         -4.2655  -20.1729  -54.0306 C.2       18 UNK         0.5000 
    103 O         -3.7521  -19.2653  -54.6868 O.2       18 UNK        -0.5000 
    104 N         -3.5666  -21.1442  -53.4263 N.am      19 UNK        -0.5000 
    105 CA        -2.1072  -21.2241  -53.4169 C.3       19 UNK         0.1400 
    106 CB        -1.6639  -22.6623  -53.1147 C.3       19 UNK        -0.1800 
    107 C         -1.4990  -20.2329  -52.4126 C.2       19 UNK         0.5000 
    108 O         -0.4891  -19.6111  -52.7272 O.2       19 UNK        -0.5000 
    109 N         -2.1533  -20.0546  -51.2562 N.am      20 UNK        -0.5000 
    110 CA        -1.8017  -19.0663  -50.2334 C.3       20 UNK         0.1400 
    111 CB        -2.6433  -19.3255  -48.9751 C.3       20 UNK        -0.1800 
    112 C         -1.9775  -17.6139  -50.7185 C.2       20 UNK         0.5000 
    113 O         -1.1939  -16.7450  -50.3401 O.2       20 UNK        -0.5000 
    114 N         -2.9844  -17.3891  -51.5742 N.am      21 UNK        -0.5000 
    115 CA        -3.2030  -16.1464  -52.3164 C.3       21 UNK         0.1400 
    116 CB        -4.6735  -16.0883  -52.7584 C.3       21 UNK        -0.1800 
    117 C         -2.2662  -15.9946  -53.5352 C.2       21 UNK         0.5000 
    118 O         -2.2266  -14.9174  -54.1312 O.2       21 UNK        -0.5000 
    119 N         -1.5395  -17.0642  -53.8821 N.am      22 UNK        -0.5000 
    120 CA        -0.5655  -17.1636  -54.9796 C.3       22 UNK         0.1400 
    121 C         -1.2003  -17.0449  -56.3963 C.2       22 UNK         0.5000 
    122 N         -2.4197  -17.5312  -56.5966 N.am      22 UNK        -0.7600 
    123 O         -0.5866  -16.5311  -57.3284 O.2       22 UNK        -0.5000 
    124 C124        0.6905  -16.2678  -54.7762 C.3       23 UNK        -0.0398 
    125 S125        1.4266  -16.4361  -53.1123 S.3       23 UNK        -0.2404 
    126 C126        2.4929  -17.9048  -53.3047 C.3       23 UNK        -0.0205 
    127 H127       -2.0222  -13.4858  -50.3059 H         1 UNK         0.0600 
    128 H128       -1.2595  -13.4795  -51.9009 H         1 UNK         0.0600 
    129 H129       -1.3572  -11.9865  -50.9609 H         1 UNK         0.0600 
    130 H130       -0.7305  -14.1918  -48.6368 H         1 UNK         0.3000 
    131 H131        2.0466  -13.5039  -48.4102 H         1 UNK         0.0600 
    132 H132        1.8699  -15.6700  -49.9589 H         1 UNK         0.0800 
    133 H133        1.6013  -16.5245  -48.4824 H         1 UNK         0.0800 
    134 H134        5.3388  -17.4785  -48.5518 H         1 UNK         0.0800 
    135 H135        3.9102  -17.7538  -47.5928 H         1 UNK         0.0800 
    136 H136        3.6427  -16.6855  -51.1753 H         1 UNK         0.1150 
    137 H137        2.2043  -20.4960  -52.4721 H         1 UNK         0.1150 
    138 H138        3.6756  -20.0155  -48.4765 H         1 UNK         0.1150 
    139 H139        3.5828  -22.4284  -50.7144 H         1 UNK         0.0800 
    140 H140        2.9145  -22.1455  -49.1324 H         1 UNK         0.0800 
    141 H141       -0.9095  -22.0568  -49.8142 H         1 UNK         0.0800 
    142 H142        0.3794  -21.3745  -48.8613 H         1 UNK         0.0800 
    143 H143       -0.3386  -24.3592  -48.9965 H         1 UNK         0.0600 
    144 H144        1.8423  -23.0248  -47.6179 H         1 UNK         0.3000 
    145 H145        2.6305  -25.7465  -45.4792 H         1 UNK         0.0600 
    146 H146        4.7622  -25.8413  -46.7358 H         1 UNK         0.0600 
    147 H147        3.4862  -26.6181  -47.6589 H         1 UNK         0.0600 
    148 H148        4.0271  -25.0041  -48.1042 H         1 UNK         0.0600 
    149 H149        4.1407  -23.4577  -46.1686 H         1 UNK         0.3000 
    150 H150        3.4921  -21.7840  -43.3364 H         1 UNK         0.0600 
    151 H151        5.4353  -22.3998  -44.7929 H         1 UNK         0.0600 
    152 H152        5.2604  -20.6633  -44.6504 H         1 UNK         0.0600 
    153 H153        4.7419  -21.4675  -46.1241 H         1 UNK         0.0600 
    154 H154        2.6107  -19.8135  -44.0078 H         1 UNK         0.3000 
    155 H155        2.1351  -18.1640  -46.2323 H         1 UNK         0.0600 
    156 H156       -0.5141  -19.4851  -46.9588 H         1 UNK         0.0600 
    157 H157        0.7574  -18.9814  -48.0674 H         1 UNK         0.0600 
    158 H158       -0.1575  -17.7729  -47.1870 H         1 UNK         0.0600 
    159 H159       -0.2883  -18.1468  -44.7767 H         1 UNK         0.3000 
    160 H160        0.8771  -17.4850  -41.6247 H         1 UNK         0.0600 
    161 H161        0.7693  -15.0872  -43.5257 H         1 UNK         0.0600 
    162 H162        2.0636  -15.4520  -42.3934 H         1 UNK         0.0600 
    163 H163        0.4688  -15.0263  -41.7902 H         1 UNK         0.0600 
    164 H164       -1.3004  -16.3785  -43.2319 H         1 UNK         0.3000 
    165 H165       -3.3548  -19.1661  -43.0829 H         1 UNK         0.0600 
    166 H166       -5.0086  -17.9841  -41.6537 H         1 UNK         0.0600 
    167 H167       -3.7238  -18.6542  -40.6627 H         1 UNK         0.0600 
    168 H168       -3.7432  -16.9311  -41.0181 H         1 UNK         0.0600 
    169 H169       -4.0443  -16.4212  -43.4074 H         1 UNK         0.3000 
    170 H170       -2.5304  -15.6854  -46.4172 H         1 UNK         0.0600 
    171 H171       -4.2685  -17.1597  -47.4546 H         1 UNK         0.0600 
    172 H172       -5.4706  -16.5514  -46.3237 H         1 UNK         0.0600 
    173 H173       -4.7401  -15.4705  -47.5124 H         1 UNK         0.0600 
    174 H174       -4.7519  -14.4251  -45.2290 H         1 UNK         0.3000 
    175 H175       -4.7110  -12.9911  -43.4652 H         1 UNK         0.0600 
    176 H176       -1.9857  -12.4850  -42.1408 H         1 UNK         0.0600 
    177 H177       -3.5264  -11.7818  -41.6548 H         1 UNK         0.0600 
    178 H178       -3.2599  -13.5112  -41.4939 H         1 UNK         0.0600 
    179 H179       -2.3914  -11.3180  -44.2374 H         1 UNK         0.3000 
    180 H180       -3.6571  -10.5494  -47.4279 H         1 UNK         0.0600 
    181 H181       -3.0338   -8.2423  -46.7492 H         1 UNK         0.0600 
    182 H182       -3.0967   -8.6964  -45.0457 H         1 UNK         0.0600 
    183 H183       -4.5642   -8.6958  -46.0165 H         1 UNK         0.0600 
    184 H184       -1.2109   -9.9413  -46.0710 H         1 UNK         0.3000 
    185 H185        0.7425  -11.8232  -47.6239 H         1 UNK         0.0600 
    186 H186        1.9214  -11.2143  -45.4987 H         1 UNK         0.0600 
    187 H187        0.7928   -9.9772  -46.0065 H         1 UNK         0.0600 
    188 H188        0.3720  -11.0652  -44.6802 H         1 UNK         0.0600 
    189 H189        0.1540  -13.5185  -45.2347 H         1 UNK         0.3000 
    190 H190        0.0287  -22.2234  -46.1838 H         1 UNK         0.3000 
    191 H191       -2.7818  -22.0110  -45.5688 H         1 UNK         0.0600 
    192 H192       -1.9342  -21.1880  -43.3600 H         1 UNK         0.0600 
    193 H193       -1.2025  -20.3488  -44.7172 H         1 UNK         0.0600 
    194 H194       -0.2893  -21.5738  -43.8405 H         1 UNK         0.0600 
    195 H195       -0.1320  -24.1464  -44.3967 H         1 UNK         0.3000 
    196 H196       -1.6338  -25.6428  -42.5439 H         1 UNK         0.0600 
    197 H197        0.8104  -26.5060  -44.1755 H         1 UNK         0.0600 
    198 H198        0.8578  -25.6164  -42.6536 H         1 UNK         0.0600 
    199 H199        0.2420  -27.2619  -42.6939 H         1 UNK         0.0600 
    200 H200       -1.1594  -26.1782  -46.0497 H         1 UNK         0.3000 
    201 H201       -2.6973  -28.6179  -46.1888 H         1 UNK         0.0600 
    202 H202       -1.8552  -26.6062  -48.3464 H         1 UNK         0.0600 
    203 H203       -2.4897  -28.2192  -48.6494 H         1 UNK         0.0600 
    204 H204       -0.9395  -28.0282  -47.8474 H         1 UNK         0.0600 
    205 H205       -3.6514  -25.3749  -45.7618 H         1 UNK         0.3000 
    206 H206       -5.4655  -24.1495  -45.9319 H         1 UNK         0.0600 
    207 H207       -6.5591  -26.0068  -44.6492 H         1 UNK         0.0600 
    208 H208       -7.6922  -25.1618  -45.6909 H         1 UNK         0.0600 
    209 H209       -7.0846  -26.7412  -46.1640 H         1 UNK         0.0600 
    210 H210       -3.9492  -24.5312  -48.2431 H         1 UNK         0.3000 
    211 H211       -5.7896  -24.7310  -50.5625 H         1 UNK         0.0600 
    212 H212       -3.6505  -24.7164  -51.8376 H         1 UNK         0.0600 
    213 H213       -3.6526  -25.9970  -50.6352 H         1 UNK         0.0600 
    214 H214       -2.7350  -24.5233  -50.3443 H         1 UNK         0.0600 
    215 H215       -6.9323  -22.7948  -49.8180 H         1 UNK         0.3000 
    216 H216       -5.8447  -20.3161  -49.2762 H         1 UNK         0.0600 
    217 H217       -8.5531  -20.9632  -50.5517 H         1 UNK         0.0600 
    218 H218       -8.1350  -19.4413  -49.7731 H         1 UNK         0.0600 
    219 H219       -8.1947  -20.9185  -48.8253 H         1 UNK         0.0600 
    220 H220       -6.6500  -21.6094  -52.5023 H         1 UNK         0.3000 
    221 H221       -6.1657  -19.1885  -53.9658 H         1 UNK         0.0600 
    222 H222       -7.5303  -21.0475  -54.8771 H         1 UNK         0.0600 
    223 H223       -6.1281  -22.1180  -54.8720 H         1 UNK         0.0600 
    224 H224       -6.1701  -20.7191  -55.9385 H         1 UNK         0.0600 
    225 H225       -4.0578  -21.8083  -52.8452 H         1 UNK         0.3000 
    226 H226       -1.7404  -20.9639  -54.4124 H         1 UNK         0.0600 
    227 H227       -1.8957  -22.9512  -52.0902 H         1 UNK         0.0600 
    228 H228       -2.1420  -23.3763  -53.7852 H         1 UNK         0.0600 
    229 H229       -0.5864  -22.7664  -53.2448 H         1 UNK         0.0600 
    230 H230       -2.9445  -20.6611  -51.0530 H         1 UNK         0.3000 
    231 H231       -0.7481  -19.2052  -49.9833 H         1 UNK         0.0600 
    232 H232       -3.7093  -19.2377  -49.1814 H         1 UNK         0.0600 
    233 H233       -2.4059  -18.6048  -48.1929 H         1 UNK         0.0600 
    234 H234       -2.4603  -20.3212  -48.5705 H         1 UNK         0.0600 
    235 H235       -3.6472  -18.1373  -51.7477 H         1 UNK         0.3000 
    236 H236       -3.0160  -15.3046  -51.6484 H         1 UNK         0.0600 
    237 H237       -5.3453  -16.1419  -51.9015 H         1 UNK         0.0600 
    238 H238       -4.8900  -15.1568  -53.2828 H         1 UNK         0.0600 
    239 H239       -4.9219  -16.9100  -53.4310 H         1 UNK         0.0600 
    240 H240       -1.6090  -17.8936  -53.3084 H         1 UNK         0.3000 
    241 H241       -0.2108  -18.1932  -54.9467 H         1 UNK         0.0600 
    242 H242       -2.8382  -17.4634  -57.5103 H         1 UNK         0.3800 
    243 H243       -2.9130  -18.0173  -55.8511 H         1 UNK         0.3800 
    244 H244        0.4302  -15.2186  -54.9227 H         1 UNK         0.0800 
    245 H245        1.4530  -16.4987  -55.5217 H         1 UNK         0.0800 
    246 H246        3.4027  -17.6277  -53.8384 H         1 UNK         0.0800 
    247 H247        1.9763  -18.6423  -53.9203 H         1 UNK         0.0800 
@<TRIPOS>BOND
     1    1    2 1    
     2    1  127 1    
     3    1  128 1    
     4    1  129 1    
     5    2    3 2    
     6    2    4 am   BACKBONE|DICT|INTERRES
     7    4    5 1    
     8    4  130 1    
     9    5    6 1    
    10    5   65 1    
    11    5  131 1    
    12    6    7 1    
    13    6  132 1    
    14    6  133 1    
    15    7    8 1    
    16    8    9 1    
    17    8  134 1    
    18    8  135 1    
    19    9   10 ar   
    20    9   14 ar   
    21   10   11 ar   
    22   10  136 1    
    23   11   12 ar   
    24   11  126 1    
    25   12   13 ar   
    26   12  137 1    
    27   13   14 ar   
    28   13   15 1    
    29   14  138 1    
    30   15   16 1    
    31   15  139 1    
    32   15  140 1    
    33   16   17 1    
    34   17   18 1    
    35   17  141 1    
    36   17  142 1    
    37   18   19 1    
    38   18   67 1    
    39   18  143 1    
    40   19   20 am   BACKBONE|DICT|INTERRES
    41   19  144 1    
    42   20   21 2    
    43   20   22 1    
    44   22   23 1    
    45   22   24 1    
    46   22  145 1    
    47   23  146 1    
    48   23  147 1    
    49   23  148 1    
    50   24   25 am   BACKBONE|DICT|INTERRES
    51   24  149 1    
    52   25   26 2    
    53   25   27 1    
    54   27   28 1    
    55   27   29 1    
    56   27  150 1    
    57   28  151 1    
    58   28  152 1    
    59   28  153 1    
    60   29   30 am   BACKBONE|DICT|INTERRES
    61   29  154 1    
    62   30   31 2    
    63   30   32 1    
    64   32   33 1    
    65   32   34 1    
    66   32  155 1    
    67   33  156 1    
    68   33  157 1    
    69   33  158 1    
    70   34   35 am   BACKBONE|DICT|INTERRES
    71   34  159 1    
    72   35   36 2    
    73   35   37 1    
    74   37   38 1    
    75   37   39 1    
    76   37  160 1    
    77   38  161 1    
    78   38  162 1    
    79   38  163 1    
    80   39   40 am   BACKBONE|DICT|INTERRES
    81   39  164 1    
    82   40   41 2    
    83   40   42 1    
    84   42   43 1    
    85   42   44 1    
    86   42  165 1    
    87   43  166 1    
    88   43  167 1    
    89   43  168 1    
    90   44   45 am   BACKBONE|DICT|INTERRES
    91   44  169 1    
    92   45   46 2    
    93   45   47 1    
    94   47   48 1    
    95   47   49 1    
    96   47  170 1    
    97   48  171 1    
    98   48  172 1    
    99   48  173 1    
   100   49   50 am   BACKBONE|DICT|INTERRES
   101   49  174 1    
   102   50   51 2    
   103   50   52 1    
   104   52   53 1    
   105   52   54 1    
   106   52  175 1    
   107   53  176 1    
   108   53  177 1    
   109   53  178 1    
   110   54   55 am   BACKBONE|DICT|INTERRES
   111   54  179 1    
   112   55   56 2    
   113   55   57 1    
   114   57   58 1    
   115   57   59 1    
   116   57  180 1    
   117   58  181 1    
   118   58  182 1    
   119   58  183 1    
   120   59   60 am   BACKBONE|DICT|INTERRES
   121   59  184 1    
   122   60   61 2    
   123   60   62 1    
   124   62   63 1    
   125   62   64 1    
   126   62  185 1    
   127   63  186 1    
   128   63  187 1    
   129   63  188 1    
   130   64   65 am   BACKBONE|DICT|INTERRES
   131   64  189 1    
   132   65   66 2    
   133   67   68 2    
   134   67   69 am   BACKBONE|DICT|INTERRES
   135   69   70 1    
   136   69  190 1    
   137   70   71 1    
   138   70   72 1    
   139   70  191 1    
   140   71  192 1    
   141   71  193 1    
   142   71  194 1    
   143   72   73 2    
   144   72   74 am   BACKBONE|DICT|INTERRES
   145   74   75 1    
   146   74  195 1    
   147   75   76 1    
   148   75   77 1    
   149   75  196 1    
   150   76  197 1    
   151   76  198 1    
   152   76  199 1    
   153   77   78 2    
   154   77   79 am   BACKBONE|DICT|INTERRES
   155   79   80 1    
   156   79  200 1    
   157   80   81 1    
   158   80   82 1    
   159   80  201 1    
   160   81  202 1    
   161   81  203 1    
   162   81  204 1    
   163   82   83 2    
   164   82   84 am   BACKBONE|DICT|INTERRES
   165   84   85 1    
   166   84  205 1    
   167   85   86 1    
   168   85   87 1    
   169   85  206 1    
   170   86  207 1    
   171   86  208 1    
   172   86  209 1    
   173   87   88 2    
   174   87   89 am   BACKBONE|DICT|INTERRES
   175   89   90 1    
   176   89  210 1    
   177   90   91 1    
   178   90   92 1    
   179   90  211 1    
   180   91  212 1    
   181   91  213 1    
   182   91  214 1    
   183   92   93 2    
   184   92   94 am   BACKBONE|DICT|INTERRES
   185   94   95 1    
   186   94  215 1    
   187   95   96 1    
   188   95   97 1    
   189   95  216 1    
   190   96  217 1    
   191   96  218 1    
   192   96  219 1    
   193   97   98 2    
   194   97   99 am   BACKBONE|DICT|INTERRES
   195   99  100 1    
   196   99  220 1    
   197  100  101 1    
   198  100  102 1    
   199  100  221 1    
   200  101  222 1    
   201  101  223 1    
   202  101  224 1    
   203  102  103 2    
   204  102  104 am   BACKBONE|DICT|INTERRES
   205  104  105 1    
   206  104  225 1    
   207  105  106 1    
   208  105  107 1    
   209  105  226 1    
   210  106  227 1    
   211  106  228 1    
   212  106  229 1    
   213  107  108 2    
   214  107  109 am   BACKBONE|DICT|INTERRES
   215  109  110 1    
   216  109  230 1    
   217  110  111 1    
   218  110  112 1    
   219  110  231 1    
   220  111  232 1    
   221  111  233 1    
   222  111  234 1    
   223  112  113 2    
   224  112  114 am   BACKBONE|DICT|INTERRES
   225  114  115 1    
   226  114  235 1    
   227  115  116 1    
   228  115  117 1    
   229  115  236 1    
   230  116  237 1    
   231  116  238 1    
   232  116  239 1    
   233  117  118 2    
   234  117  119 am   BACKBONE|DICT|INTERRES
   235  119  120 1    
   236  119  240 1    
   237  120  121 1    
   238  120  124 1    
   239  120  241 1    
   240  121  122 am   BACKBONE|DICT|INTERRES
   241  121  123 2    
   242  122  242 1    
   243  122  243 1    
   244  124  125 1    
   245  124  244 1    
   246  124  245 1    
   247  125  126 1    
   248  126  246 1    
   249  126  247 1    
@<TRIPOS>SUBSTRUCTURE
     1 UNK         1 GROUP             0       ****    0 ROOT    
