@<TRIPOS>MOLECULE
3R540
247   249    1
SMALL
USER_CHARGES


@<TRIPOS>ATOM
      1 CA          0.5229  -13.8323  -41.0087 C.3       0 UNK        -0.1800 
      2 C          -0.4707  -13.3175  -42.0411 C.2       0 UNK         0.5000 
      3 O          -1.2847  -12.4474  -41.7300 O.2       0 UNK        -0.5000 
      4 N          -0.4111  -13.8581  -43.2624 N.am      1 UNK        -0.5000 
      5 CA         -1.2430  -13.4525  -44.4005 C.3       1 UNK         0.1400 
      6 C6         -1.2701  -14.5498  -45.4908 C.3       23 UNK        -0.0398 
      7 S7         -2.3580  -15.9427  -45.0472 S.3       23 UNK        -0.2404 
      8 C8         -3.1093  -16.3349  -46.6662 C.3       23 UNK        -0.0205 
      9 C9         -2.0930  -16.6496  -47.7630 C.ar      23 UNK        -0.0193 
     10 C10        -2.2985  -16.1762  -49.0617 C.ar      23 UNK        -0.1150 
     11 C11        -1.3824  -16.4607  -50.0795 C.ar      23 UNK        -0.0193 
     12 C12        -0.2424  -17.2165  -49.7903 C.ar      23 UNK        -0.1150 
     13 C13        -0.0344  -17.7137  -48.5009 C.ar      23 UNK        -0.0193 
     14 C14        -0.9616  -17.4249  -47.4975 C.ar      23 UNK        -0.1150 
     15 C15         1.1971  -18.5455  -48.1755 C.3       23 UNK        -0.0205 
     16 S16         0.9552  -20.3241  -48.4826 S.3       23 UNK        -0.2404 
     17 C17        -0.4360  -20.7281  -47.3755 C.3       23 UNK        -0.0398 
     18 CA         -0.4125  -22.2061  -46.9284 C.3       11 UNK         0.1400 
     19 N           0.6808  -22.4866  -45.9901 N.am      11 UNK        -0.5000 
     20 C           1.0298  -23.7071  -45.5571 C.2       10 UNK         0.5000 
     21 O           0.4290  -24.7376  -45.8610 O.2       10 UNK        -0.5000 
     22 CA          2.2298  -23.7841  -44.6013 C.3       10 UNK         0.1400 
     23 CB          3.5520  -23.6071  -45.3647 C.3       10 UNK        -0.1800 
     24 N           2.1251  -22.7662  -43.5586 N.am      10 UNK        -0.5000 
     25 C           1.4950  -22.9430  -42.3893 C.2       9 UNK         0.5000 
     26 O           1.0007  -24.0136  -42.0345 O.2       9 UNK        -0.5000 
     27 CA          1.3832  -21.7181  -41.4579 C.3       9 UNK         0.1400 
     28 CB          2.5622  -21.6814  -40.4741 C.3       9 UNK        -0.1800 
     29 N           1.3186  -20.4389  -42.1666 N.am      9 UNK        -0.5000 
     30 C           0.3340  -20.0754  -43.0007 C.2       8 UNK         0.5000 
     31 O          -0.6394  -20.7802  -43.2592 O.2       8 UNK        -0.5000 
     32 CA          0.4912  -18.7212  -43.7151 C.3       8 UNK         0.1400 
     33 CB         -0.0465  -17.5951  -42.8225 C.3       8 UNK        -0.1800 
     34 N           1.8653  -18.3982  -44.1066 N.am      8 UNK        -0.5000 
     35 C           2.7335  -19.2024  -44.7418 C.2       7 UNK         0.5000 
     36 O           2.4386  -20.3210  -45.1632 O.2       7 UNK        -0.5000 
     37 CA          4.1809  -18.6958  -44.9135 C.3       7 UNK         0.1400 
     38 CB          4.4449  -18.3443  -46.3821 C.3       7 UNK        -0.1800 
     39 N           4.5066  -17.5363  -44.0776 N.am      7 UNK        -0.5000 
     40 C           4.5027  -17.5276  -42.7358 C.2       6 UNK         0.5000 
     41 O           4.3181  -18.5368  -42.0534 O.2       6 UNK        -0.5000 
     42 CA          4.6787  -16.1684  -42.0298 C.3       6 UNK         0.1400 
     43 CB          6.0630  -16.0821  -41.3690 C.3       6 UNK        -0.1800 
     44 N           4.4946  -14.9941  -42.8875 N.am      6 UNK        -0.5000 
     45 C           3.3769  -14.6372  -43.5369 C.2       5 UNK         0.5000 
     46 O           2.3396  -15.3041  -43.5385 O.2       5 UNK        -0.5000 
     47 CA          3.4231  -13.3082  -44.3201 C.3       5 UNK         0.1400 
     48 CB          4.6681  -12.4417  -44.0232 C.3       5 UNK        -0.1800 
     49 N           3.2792  -13.4914  -45.7676 N.am      5 UNK        -0.5000 
     50 C           4.0313  -14.2574  -46.5724 C.2       4 UNK         0.5000 
     51 O           4.9248  -14.9980  -46.1572 O.2       4 UNK        -0.5000 
     52 CA          3.8059  -14.1549  -48.1008 C.3       4 UNK         0.1400 
     53 CB          3.4378  -15.5189  -48.7146 C.3       4 UNK        -0.1800 
     54 N           2.8672  -13.1153  -48.5531 N.am      4 UNK        -0.5000 
     55 C           1.5422  -13.0739  -48.3682 C.2       3 UNK         0.5000 
     56 O           0.9159  -13.8937  -47.6969 O.2       3 UNK        -0.5000 
     57 CA          0.7851  -11.9225  -49.0434 C.3       3 UNK         0.1400 
     58 CB          0.1452  -12.4019  -50.3559 C.3       3 UNK        -0.1800 
     59 N          -0.2662  -11.4957  -48.1296 N.am      3 UNK        -0.5000 
     60 C          -0.3631  -10.2926  -47.5542 C.2       2 UNK         0.5000 
     61 O           0.3250   -9.3209  -47.8693 O.2       2 UNK        -0.5000 
     62 CA         -1.3874  -10.1598  -46.4075 C.3       2 UNK         0.1400 
     63 CB         -2.7110   -9.5835  -46.9332 C.3       2 UNK        -0.1800 
     64 N          -1.6593  -11.4229  -45.7096 N.am      2 UNK        -0.5000 
     65 C          -0.7590  -12.1107  -44.9914 C.2       1 UNK         0.5000 
     66 O           0.4046  -11.7374  -44.8269 O.2       1 UNK        -0.5000 
     67 C          -1.7967  -22.6350  -46.4008 C.2       11 UNK         0.5000 
     68 O          -2.6394  -23.0327  -47.2056 O.2       11 UNK        -0.5000 
     69 N          -2.0056  -22.5997  -45.0762 N.am      12 UNK        -0.5000 
     70 CA         -3.2276  -23.0558  -44.4073 C.3       12 UNK         0.1400 
     71 CB         -3.1183  -22.7924  -42.8981 C.3       12 UNK        -0.1800 
     72 C          -3.5728  -24.5358  -44.6644 C.2       12 UNK         0.5000 
     73 O          -4.7556  -24.8722  -44.7156 O.2       12 UNK        -0.5000 
     74 N          -2.5542  -25.3844  -44.8711 N.am      13 UNK        -0.5000 
     75 CA         -2.7209  -26.8014  -45.2093 C.3       13 UNK         0.1400 
     76 CB         -1.3843  -27.5327  -45.0147 C.3       13 UNK        -0.1800 
     77 C          -3.2562  -27.0193  -46.6392 C.2       13 UNK         0.5000 
     78 O          -3.9015  -28.0360  -46.8959 O.2       13 UNK        -0.5000 
     79 N          -2.9995  -26.0548  -47.5324 N.am      14 UNK        -0.5000 
     80 CA         -3.5045  -26.0156  -48.9059 C.3       14 UNK         0.1400 
     81 CB         -2.4011  -25.4324  -49.8050 C.3       14 UNK        -0.1800 
     82 C          -4.7989  -25.1836  -49.0277 C.2       14 UNK         0.5000 
     83 O          -5.3593  -25.1040  -50.1207 O.2       14 UNK        -0.5000 
     84 N          -5.2317  -24.5612  -47.9192 N.am      15 UNK        -0.5000 
     85 CA         -6.3235  -23.5887  -47.8036 C.3       15 UNK         0.1400 
     86 CB         -7.6905  -24.2492  -48.0770 C.3       15 UNK        -0.1800 
     87 C          -6.0725  -22.2972  -48.6161 C.2       15 UNK         0.5000 
     88 O          -7.0200  -21.6702  -49.0953 O.2       15 UNK        -0.5000 
     89 N          -4.7894  -21.9181  -48.7267 N.am      16 UNK        -0.5000 
     90 CA         -4.2463  -20.7283  -49.3827 C.3       16 UNK         0.1400 
     91 CB         -4.4221  -19.4997  -48.4659 C.3       16 UNK        -0.1800 
     92 C          -4.7856  -20.5327  -50.8140 C.2       16 UNK         0.5000 
     93 O          -4.5042  -21.3601  -51.6812 O.2       16 UNK        -0.5000 
     94 N          -5.5539  -19.4573  -51.0386 N.am      17 UNK        -0.5000 
     95 CA         -6.1268  -19.0500  -52.3250 C.3       17 UNK         0.1400 
     96 CB         -6.9135  -17.7465  -52.1265 C.3       17 UNK        -0.1800 
     97 C          -7.0054  -20.1124  -53.0148 C.2       17 UNK         0.5000 
     98 O          -7.1182  -20.0895  -54.2411 O.2       17 UNK        -0.5000 
     99 N          -7.5675  -21.0528  -52.2405 N.am      18 UNK        -0.5000 
    100 CA        -8.3300  -22.2003  -52.7405 C.3       18 UNK         0.1400 
    101 CB        -8.9531  -22.9448  -51.5529 C.3       18 UNK        -0.1800 
    102 C         -7.4986  -23.1721  -53.6054 C.2       18 UNK         0.5000 
    103 O         -8.0765  -23.9008  -54.4125 O.2       18 UNK        -0.5000 
    104 N         -6.1659  -23.1494  -53.4535 N.am      19 UNK        -0.5000 
    105 CA        -5.2201  -23.9127  -54.2686 C.3       19 UNK         0.1400 
    106 CB        -3.8995  -24.0497  -53.4941 C.3       19 UNK        -0.1800 
    107 C         -4.9611  -23.2864  -55.6551 C.2       19 UNK         0.5000 
    108 O         -4.2397  -23.8889  -56.4506 O.2       19 UNK        -0.5000 
    109 N         -5.4947  -22.0798  -55.9115 N.am      20 UNK        -0.5000 
    110 CA        -5.3641  -21.2388  -57.1131 C.3       20 UNK         0.1400 
    111 CB        -5.8460  -21.9688  -58.3811 C.3       20 UNK        -0.1800 
    112 C         -3.9589  -20.6343  -57.3085 C.2       20 UNK         0.5000 
    113 O         -3.8478  -19.4602  -57.6614 O.2       20 UNK        -0.5000 
    114 N         -2.9140  -21.4200  -57.0229 N.am      21 UNK        -0.5000 
    115 CA        -1.5127  -20.9977  -56.9503 C.3       21 UNK         0.1400 
    116 CB        -0.6243  -22.2476  -57.0537 C.3       21 UNK        -0.1800 
    117 C         -1.1843  -20.2032  -55.6661 C.2       21 UNK         0.5000 
    118 O         -0.0905  -19.6461  -55.5636 O.2       21 UNK        -0.5000 
    119 N         -2.1338  -20.1632  -54.7223 N.am      22 UNK        -0.5000 
    120 CA        -2.0421  -19.5570  -53.3879 C.3       22 UNK         0.1400 
    121 C         -1.1890  -20.3870  -52.3842 C.2       22 UNK         0.5000 
    122 N         -1.0348  -19.9101  -51.1587 N.am      22 UNK        -0.7600 
    123 O         -0.6849  -21.4662  -52.6873 O.2       22 UNK        -0.5000 
    124 C124       -1.6781  -18.0402  -53.4239 C.3       23 UNK        -0.0398 
    125 S125       -2.7906  -17.0248  -52.3909 S.3       23 UNK        -0.2404 
    126 C126       -1.6355  -15.9450  -51.4863 C.3       23 UNK        -0.0205 
    127 H127        1.3558  -13.1363  -40.9091 H         1 UNK         0.0600 
    128 H128        0.9210  -14.8085  -41.2861 H         1 UNK         0.0600 
    129 H129        0.0408  -13.9326  -40.0361 H         1 UNK         0.0600 
    130 H130        0.3225  -14.5263  -43.4673 H         1 UNK         0.3000 
    131 H131       -2.2625  -13.2946  -44.0413 H         1 UNK         0.0600 
    132 H132       -0.2676  -14.9411  -45.6713 H         1 UNK         0.0800 
    133 H133       -1.6130  -14.1483  -46.4460 H         1 UNK         0.0800 
    134 H134       -3.7439  -15.4989  -46.9638 H         1 UNK         0.0800 
    135 H135       -3.7685  -17.1949  -46.5449 H         1 UNK         0.0800 
    136 H136       -3.1779  -15.5892  -49.2868 H         1 UNK         0.1150 
    137 H137        0.4757  -17.4315  -50.5694 H         1 UNK         0.1150 
    138 H138       -0.7974  -17.7959  -46.4993 H         1 UNK         0.1150 
    139 H139        2.0419  -18.2065  -48.7758 H         1 UNK         0.0800 
    140 H140        1.4800  -18.3906  -47.1361 H         1 UNK         0.0800 
    141 H141       -1.3540  -20.4885  -47.9148 H         1 UNK         0.0800 
    142 H142       -0.4126  -20.0801  -46.5008 H         1 UNK         0.0800 
    143 H143       -0.2320  -22.8200  -47.8138 H         1 UNK         0.0600 
    144 H144        1.2505  -21.6920  -45.7114 H         1 UNK         0.3000 
    145 H145        2.2379  -24.7776  -44.1476 H         1 UNK         0.0600 
    146 H146        4.4070  -23.6937  -44.6942 H         1 UNK         0.0600 
    147 H147        3.6127  -22.6374  -45.8598 H         1 UNK         0.0600 
    148 H148        3.6621  -24.3735  -46.1328 H         1 UNK         0.0600 
    149 H149        2.4399  -21.8361  -43.8089 H         1 UNK         0.3000 
    150 H150        0.4606  -21.8271  -40.8839 H         1 UNK         0.0600 
    151 H151        2.6330  -22.6137  -39.9122 H         1 UNK         0.0600 
    152 H152        3.5117  -21.5349  -40.9910 H         1 UNK         0.0600 
    153 H153        2.4471  -20.8744  -39.7503 H         1 UNK         0.0600 
    154 H154        2.0978  -19.8076  -42.0361 H         1 UNK         0.3000 
    155 H155       -0.1108  -18.7577  -44.6209 H         1 UNK         0.0600 
    156 H156        0.5382  -17.4894  -41.9078 H         1 UNK         0.0600 
    157 H157       -1.0826  -17.7801  -42.5357 H         1 UNK         0.0600 
    158 H158       -0.0217  -16.6406  -43.3443 H         1 UNK         0.0600 
    159 H159        2.1910  -17.4771  -43.8377 H         1 UNK         0.3000 
    160 H160        4.8467  -19.5129  -44.6291 H         1 UNK         0.0600 
    161 H161        3.7907  -17.5381  -46.7098 H         1 UNK         0.0600 
    162 H162        4.2635  -19.2014  -47.0323 H         1 UNK         0.0600 
    163 H163        5.4761  -18.0268  -46.5377 H         1 UNK         0.0600 
    164 H164        4.6615  -16.6606  -44.5630 H         1 UNK         0.3000 
    165 H165        3.9213  -16.1196  -41.2449 H         1 UNK         0.0600 
    166 H166        6.1649  -15.1690  -40.7822 H         1 UNK         0.0600 
    167 H167        6.8629  -16.0975  -42.1104 H         1 UNK         0.0600 
    168 H168        6.2276  -16.9208  -40.6911 H         1 UNK         0.0600 
    169 H169        5.2986  -14.3908  -42.9821 H         1 UNK         0.3000 
    170 H170        2.5551  -12.7443  -43.9836 H         1 UNK         0.0600 
    171 H171        4.7639  -12.2374  -42.9559 H         1 UNK         0.0600 
    172 H172        5.5916  -12.9136  -44.3609 H         1 UNK         0.0600 
    173 H173        4.5934  -11.4762  -44.5239 H         1 UNK         0.0600 
    174 H174        2.5122  -12.9887  -46.1923 H         1 UNK         0.3000 
    175 H175        4.7720  -13.8668  -48.5177 H         1 UNK         0.0600 
    176 H176        2.5419  -15.9333  -48.2531 H         1 UNK         0.0600 
    177 H177        3.2560  -15.4377  -49.7863 H         1 UNK         0.0600 
    178 H178        4.2462  -16.2375  -48.5806 H         1 UNK         0.0600 
    179 H179        3.2909  -12.3733  -49.0931 H         1 UNK         0.3000 
    180 H180        1.4787  -11.1064  -49.2562 H         1 UNK         0.0600 
    181 H181       -0.5365  -13.2372  -50.1893 H         1 UNK         0.0600 
    182 H182        0.9060  -12.7349  -51.0629 H         1 UNK         0.0600 
    183 H183       -0.4178  -11.6007  -50.8347 H         1 UNK         0.0600 
    184 H184       -0.8278  -12.2473  -47.7564 H         1 UNK         0.3000 
    185 H185       -0.9737   -9.4583  -45.6800 H         1 UNK         0.0600 
    186 H186       -3.1855  -10.2544  -47.6505 H         1 UNK         0.0600 
    187 H187       -3.4155   -9.4061  -46.1204 H         1 UNK         0.0600 
    188 H188       -2.5493   -8.6284  -47.4348 H         1 UNK         0.0600 
    189 H189       -2.5990  -11.7833  -45.7952 H         1 UNK         0.3000 
    190 H190       -1.2938  -22.1928  -44.4765 H         1 UNK         0.3000 
    191 H191       -4.0553  -22.4599  -44.7971 H         1 UNK         0.0600 
    192 H192       -3.9899  -23.1759  -42.3658 H         1 UNK         0.0600 
    193 H193       -3.0611  -21.7244  -42.6889 H         1 UNK         0.0600 
    194 H194       -2.2342  -23.2673  -42.4704 H         1 UNK         0.0600 
    195 H195       -1.6060  -25.0289  -44.8609 H         1 UNK         0.3000 
    196 H196       -3.4459  -27.2330  -44.5159 H         1 UNK         0.0600 
    197 H197       -0.6261  -27.1805  -45.7146 H         1 UNK         0.0600 
    198 H198       -0.9999  -27.3943  -44.0040 H         1 UNK         0.0600 
    199 H199       -1.5016  -28.6052  -45.1744 H         1 UNK         0.0600 
    200 H200       -2.4853  -25.2375  -47.2286 H         1 UNK         0.3000 
    201 H201       -3.7275  -27.0270  -49.2511 H         1 UNK         0.0600 
    202 H202       -2.1907  -24.3897  -49.5636 H         1 UNK         0.0600 
    203 H203       -2.6898  -25.4738  -50.8551 H         1 UNK         0.0600 
    204 H204       -1.4720  -25.9938  -49.7051 H         1 UNK         0.0600 
    205 H205       -4.6999  -24.7089  -47.0726 H         1 UNK         0.3000 
    206 H206       -6.3272  -23.2713  -46.7600 H         1 UNK         0.0600 
    207 H207       -7.8715  -25.0670  -47.3797 H         1 UNK         0.0600 
    208 H208       -8.5072  -23.5368  -47.9558 H         1 UNK         0.0600 
    209 H209       -7.7556  -24.6568  -49.0845 H         1 UNK         0.0600 
    210 H210       -4.0911  -22.5105  -48.2847 H         1 UNK         0.3000 
    211 H211       -3.1764  -20.9064  -49.4930 H         1 UNK         0.0600 
    212 H212       -3.9939  -18.6055  -48.9197 H         1 UNK         0.0600 
    213 H213       -3.9092  -19.6504  -47.5158 H         1 UNK         0.0600 
    214 H214       -5.4708  -19.2981  -48.2446 H         1 UNK         0.0600 
    215 H215       -5.7553  -18.8533  -50.2555 H         1 UNK         0.3000 
    216 H216       -5.2959  -18.8412  -53.0004 H         1 UNK         0.0600 
    217 H217       -7.7384  -17.8781  -51.4252 H         1 UNK         0.0600 
    218 H218       -7.3355  -17.3960  -53.0694 H         1 UNK         0.0600 
    219 H219       -6.2702  -16.9524  -51.7464 H         1 UNK         0.0600 
    220 H220       -7.3959  -21.0257  -51.2419 H         1 UNK         0.3000 
    221 H221       -9.1383  -21.8147  -53.3651 H         1 UNK         0.0600 
    222 H222       -9.5600  -22.2803  -50.9378 H         1 UNK         0.0600 
    223 H223       -8.1819  -23.3807  -50.9196 H         1 UNK         0.0600 
    224 H224       -9.5971  -23.7569  -51.8925 H         1 UNK         0.0600 
    225 H225       -5.7574  -22.5284  -52.7609 H         1 UNK         0.3000 
    226 H226       -5.6249  -24.9139  -54.4294 H         1 UNK         0.0600 
    227 H227       -3.3928  -23.0903  -53.3827 H         1 UNK         0.0600 
    228 H228       -4.0707  -24.4543  -52.4974 H         1 UNK         0.0600 
    229 H229       -3.2119  -24.7241  -54.0057 H         1 UNK         0.0600 
    230 H230       -6.0547  -21.6591  -55.1783 H         1 UNK         0.3000 
    231 H231       -6.0406  -20.3985  -56.9485 H         1 UNK         0.0600 
    232 H232       -5.1943  -22.8002  -58.6501 H         1 UNK         0.0600 
    233 H233       -5.8690  -21.2884  -59.2330 H         1 UNK         0.0600 
    234 H234       -6.8547  -22.3606  -58.2505 H         1 UNK         0.0600 
    235 H235       -3.1160  -22.3866  -56.7824 H         1 UNK         0.3000 
    236 H236       -1.2980  -20.3496  -57.8023 H         1 UNK         0.0600 
    237 H237       -0.8117  -22.7897  -57.9808 H         1 UNK         0.0600 
    238 H238        0.4331  -21.9798  -57.0430 H         1 UNK         0.0600 
    239 H239       -0.7985  -22.9325  -56.2226 H         1 UNK         0.0600 
    240 H240       -2.9787  -20.6828  -54.9026 H         1 UNK         0.3000 
    241 H241       -3.0606  -19.6502  -53.0193 H         1 UNK         0.0600 
    242 H242       -1.4111  -19.0138  -50.8909 H         1 UNK         0.3800 
    243 H243       -0.4583  -20.4219  -50.5081 H         1 UNK         0.3800 
    244 H244       -1.7742  -17.6463  -54.4364 H         1 UNK         0.0800 
    245 H245       -0.6340  -17.8764  -53.1524 H         1 UNK         0.0800 
    246 H246       -0.6995  -15.8297  -52.0345 H         1 UNK         0.0800 
    247 H247       -2.0706  -14.9462  -51.4289 H         1 UNK         0.0800 
@<TRIPOS>BOND
     1    1    2 1    
     2    1  127 1    
     3    1  128 1    
     4    1  129 1    
     5    2    3 2    
     6    2    4 am   BACKBONE|DICT|INTERRES
     7    4    5 1    
     8    4  130 1    
     9    5    6 1    
    10    5   65 1    
    11    5  131 1    
    12    6    7 1    
    13    6  132 1    
    14    6  133 1    
    15    7    8 1    
    16    8    9 1    
    17    8  134 1    
    18    8  135 1    
    19    9   10 ar   
    20    9   14 ar   
    21   10   11 ar   
    22   10  136 1    
    23   11   12 ar   
    24   11  126 1    
    25   12   13 ar   
    26   12  137 1    
    27   13   14 ar   
    28   13   15 1    
    29   14  138 1    
    30   15   16 1    
    31   15  139 1    
    32   15  140 1    
    33   16   17 1    
    34   17   18 1    
    35   17  141 1    
    36   17  142 1    
    37   18   19 1    
    38   18   67 1    
    39   18  143 1    
    40   19   20 am   BACKBONE|DICT|INTERRES
    41   19  144 1    
    42   20   21 2    
    43   20   22 1    
    44   22   23 1    
    45   22   24 1    
    46   22  145 1    
    47   23  146 1    
    48   23  147 1    
    49   23  148 1    
    50   24   25 am   BACKBONE|DICT|INTERRES
    51   24  149 1    
    52   25   26 2    
    53   25   27 1    
    54   27   28 1    
    55   27   29 1    
    56   27  150 1    
    57   28  151 1    
    58   28  152 1    
    59   28  153 1    
    60   29   30 am   BACKBONE|DICT|INTERRES
    61   29  154 1    
    62   30   31 2    
    63   30   32 1    
    64   32   33 1    
    65   32   34 1    
    66   32  155 1    
    67   33  156 1    
    68   33  157 1    
    69   33  158 1    
    70   34   35 am   BACKBONE|DICT|INTERRES
    71   34  159 1    
    72   35   36 2    
    73   35   37 1    
    74   37   38 1    
    75   37   39 1    
    76   37  160 1    
    77   38  161 1    
    78   38  162 1    
    79   38  163 1    
    80   39   40 am   BACKBONE|DICT|INTERRES
    81   39  164 1    
    82   40   41 2    
    83   40   42 1    
    84   42   43 1    
    85   42   44 1    
    86   42  165 1    
    87   43  166 1    
    88   43  167 1    
    89   43  168 1    
    90   44   45 am   BACKBONE|DICT|INTERRES
    91   44  169 1    
    92   45   46 2    
    93   45   47 1    
    94   47   48 1    
    95   47   49 1    
    96   47  170 1    
    97   48  171 1    
    98   48  172 1    
    99   48  173 1    
   100   49   50 am   BACKBONE|DICT|INTERRES
   101   49  174 1    
   102   50   51 2    
   103   50   52 1    
   104   52   53 1    
   105   52   54 1    
   106   52  175 1    
   107   53  176 1    
   108   53  177 1    
   109   53  178 1    
   110   54   55 am   BACKBONE|DICT|INTERRES
   111   54  179 1    
   112   55   56 2    
   113   55   57 1    
   114   57   58 1    
   115   57   59 1    
   116   57  180 1    
   117   58  181 1    
   118   58  182 1    
   119   58  183 1    
   120   59   60 am   BACKBONE|DICT|INTERRES
   121   59  184 1    
   122   60   61 2    
   123   60   62 1    
   124   62   63 1    
   125   62   64 1    
   126   62  185 1    
   127   63  186 1    
   128   63  187 1    
   129   63  188 1    
   130   64   65 am   BACKBONE|DICT|INTERRES
   131   64  189 1    
   132   65   66 2    
   133   67   68 2    
   134   67   69 am   BACKBONE|DICT|INTERRES
   135   69   70 1    
   136   69  190 1    
   137   70   71 1    
   138   70   72 1    
   139   70  191 1    
   140   71  192 1    
   141   71  193 1    
   142   71  194 1    
   143   72   73 2    
   144   72   74 am   BACKBONE|DICT|INTERRES
   145   74   75 1    
   146   74  195 1    
   147   75   76 1    
   148   75   77 1    
   149   75  196 1    
   150   76  197 1    
   151   76  198 1    
   152   76  199 1    
   153   77   78 2    
   154   77   79 am   BACKBONE|DICT|INTERRES
   155   79   80 1    
   156   79  200 1    
   157   80   81 1    
   158   80   82 1    
   159   80  201 1    
   160   81  202 1    
   161   81  203 1    
   162   81  204 1    
   163   82   83 2    
   164   82   84 am   BACKBONE|DICT|INTERRES
   165   84   85 1    
   166   84  205 1    
   167   85   86 1    
   168   85   87 1    
   169   85  206 1    
   170   86  207 1    
   171   86  208 1    
   172   86  209 1    
   173   87   88 2    
   174   87   89 am   BACKBONE|DICT|INTERRES
   175   89   90 1    
   176   89  210 1    
   177   90   91 1    
   178   90   92 1    
   179   90  211 1    
   180   91  212 1    
   181   91  213 1    
   182   91  214 1    
   183   92   93 2    
   184   92   94 am   BACKBONE|DICT|INTERRES
   185   94   95 1    
   186   94  215 1    
   187   95   96 1    
   188   95   97 1    
   189   95  216 1    
   190   96  217 1    
   191   96  218 1    
   192   96  219 1    
   193   97   98 2    
   194   97   99 am   BACKBONE|DICT|INTERRES
   195   99  100 1    
   196   99  220 1    
   197  100  101 1    
   198  100  102 1    
   199  100  221 1    
   200  101  222 1    
   201  101  223 1    
   202  101  224 1    
   203  102  103 2    
   204  102  104 am   BACKBONE|DICT|INTERRES
   205  104  105 1    
   206  104  225 1    
   207  105  106 1    
   208  105  107 1    
   209  105  226 1    
   210  106  227 1    
   211  106  228 1    
   212  106  229 1    
   213  107  108 2    
   214  107  109 am   BACKBONE|DICT|INTERRES
   215  109  110 1    
   216  109  230 1    
   217  110  111 1    
   218  110  112 1    
   219  110  231 1    
   220  111  232 1    
   221  111  233 1    
   222  111  234 1    
   223  112  113 2    
   224  112  114 am   BACKBONE|DICT|INTERRES
   225  114  115 1    
   226  114  235 1    
   227  115  116 1    
   228  115  117 1    
   229  115  236 1    
   230  116  237 1    
   231  116  238 1    
   232  116  239 1    
   233  117  118 2    
   234  117  119 am   BACKBONE|DICT|INTERRES
   235  119  120 1    
   236  119  240 1    
   237  120  121 1    
   238  120  124 1    
   239  120  241 1    
   240  121  122 am   BACKBONE|DICT|INTERRES
   241  121  123 2    
   242  122  242 1    
   243  122  243 1    
   244  124  125 1    
   245  124  244 1    
   246  124  245 1    
   247  125  126 1    
   248  126  246 1    
   249  126  247 1    
@<TRIPOS>SUBSTRUCTURE
     1 UNK         1 GROUP             0       ****    0 ROOT    
