@<TRIPOS>MOLECULE
3R540
247   249    1
SMALL
USER_CHARGES


@<TRIPOS>ATOM
      1 CA          2.7547  -12.7267  -45.8515 C.3       0 UNK        -0.1800 
      2 C           1.3541  -13.2156  -45.5159 C.2       0 UNK         0.5000 
      3 O           1.0099  -13.3164  -44.3379 O.2       0 UNK        -0.5000 
      4 N           0.5465  -13.5164  -46.5425 N.am      1 UNK        -0.5000 
      5 CA         -0.8250  -14.0296  -46.4192 C.3       1 UNK         0.1400 
      6 C6         -1.4362  -14.4540  -47.7797 C.3       23 UNK        -0.0398 
      7 S7         -0.3894  -15.6033  -48.7338 S.3       23 UNK        -0.2404 
      8 C8         -1.1335  -17.2073  -48.3065 C.3       23 UNK        -0.0205 
      9 C9         -0.4846  -18.3426  -49.0843 C.ar      23 UNK        -0.0193 
     10 C10        -1.2072  -19.0523  -50.0499 C.ar      23 UNK        -0.1150 
     11 C11        -0.6080  -20.1042  -50.7517 C.ar      23 UNK        -0.0193 
     12 C12         0.7261  -20.4315  -50.4955 C.ar      23 UNK        -0.1150 
     13 C13         1.4632  -19.7147  -49.5507 C.ar      23 UNK        -0.0193 
     14 C14         0.8483  -18.6829  -48.8383 C.ar      23 UNK        -0.1150 
     15 C15         2.9335  -20.0240  -49.3254 C.3       23 UNK        -0.0205 
     16 S16         3.2189  -20.9044  -47.7635 S.3       23 UNK        -0.2404 
     17 C17         2.6193  -22.5852  -48.1428 C.3       23 UNK        -0.0398 
     18 CA          1.4904  -23.1022  -47.2157 C.3       11 UNK         0.1400 
     19 N           1.7487  -22.8496  -45.7924 N.am      11 UNK        -0.5000 
     20 C           1.2766  -23.6049  -44.7914 C.2       10 UNK         0.5000 
     21 O           0.5571  -24.5893  -44.9632 O.2       10 UNK        -0.5000 
     22 CA          1.6558  -23.1785  -43.3610 C.3       10 UNK         0.1400 
     23 CB          3.1454  -23.4320  -43.0813 C.3       10 UNK        -0.1800 
     24 N           1.3439  -21.7746  -43.1038 N.am      10 UNK        -0.5000 
     25 C           0.1023  -21.2783  -43.0127 C.2       9 UNK         0.5000 
     26 O          -0.9147  -21.9701  -43.0642 O.2       9 UNK        -0.5000 
     27 CA         -0.0351  -19.7509  -42.8524 C.3       9 UNK         0.1400 
     28 CB         -0.1839  -19.3771  -41.3701 C.3       9 UNK        -0.1800 
     29 N           1.0695  -18.9844  -43.4319 N.am      9 UNK        -0.5000 
     30 C           1.4325  -18.9970  -44.7216 C.2       8 UNK         0.5000 
     31 O           0.8845  -19.6882  -45.5752 O.2       8 UNK        -0.5000 
     32 CA          2.6353  -18.1246  -45.1112 C.3       8 UNK         0.1400 
     33 CB          2.2073  -16.6637  -45.3166 C.3       8 UNK        -0.1800 
     34 N           3.7041  -18.1964  -44.1154 N.am      8 UNK        -0.5000 
     35 C           4.4857  -19.2689  -43.9207 C.2       7 UNK         0.5000 
     36 O           4.4078  -20.3056  -44.5783 O.2       7 UNK        -0.5000 
     37 CA          5.5075  -19.1778  -42.7733 C.3       7 UNK         0.1400 
     38 CB          6.7675  -18.4240  -43.2252 C.3       7 UNK        -0.1800 
     39 N           4.9534  -18.5288  -41.5856 N.am      7 UNK        -0.5000 
     40 C           3.9955  -19.0586  -40.8123 C.2       6 UNK         0.5000 
     41 O           3.5123  -20.1778  -40.9873 O.2       6 UNK        -0.5000 
     42 CA          3.4641  -18.1686  -39.6722 C.3       6 UNK         0.1400 
     43 CB          4.3077  -18.3583  -38.4026 C.3       6 UNK        -0.1800 
     44 N           3.4071  -16.7405  -40.0079 N.am      6 UNK        -0.5000 
     45 C           2.6700  -16.2228  -40.9993 C.2       5 UNK         0.5000 
     46 O           2.0292  -16.9050  -41.7999 O.2       5 UNK        -0.5000 
     47 CA          2.6729  -14.6919  -41.1489 C.3       5 UNK         0.1400 
     48 CB          3.6878  -14.2610  -42.2186 C.3       5 UNK        -0.1800 
     49 N           1.3508  -14.1930  -41.5239 N.am      5 UNK        -0.5000 
     50 C           0.2582  -14.2587  -40.7490 C.2       4 UNK         0.5000 
     51 O           0.2619  -14.6969  -39.5964 O.2       4 UNK        -0.5000 
     52 CA         -1.0440  -13.7171  -41.3736 C.3       4 UNK         0.1400 
     53 CB         -2.2055  -13.5892  -40.3663 C.3       4 UNK        -0.1800 
     54 N          -0.8224  -12.4575  -42.0867 N.am      4 UNK        -0.5000 
     55 C          -0.3766  -11.2950  -41.5849 C.2       3 UNK         0.5000 
     56 O          -0.1822  -11.0872  -40.3867 O.2       3 UNK        -0.5000 
     57 CA         -0.0700  -10.1746  -42.5986 C.3       3 UNK         0.1400 
     58 CB          1.4489  -10.0262  -42.7845 C.3       3 UNK        -0.1800 
     59 N          -0.6814  -10.4131  -43.9069 N.am      3 UNK        -0.5000 
     60 C          -1.9706  -10.1945  -44.1992 C.2       2 UNK         0.5000 
     61 O          -2.7756   -9.6924  -43.4143 O.2       2 UNK        -0.5000 
     62 CA         -2.4420  -10.6266  -45.6003 C.3       2 UNK         0.1400 
     63 CB         -2.3741   -9.4445  -46.5791 C.3       2 UNK        -0.1800 
     64 N          -1.6648  -11.7436  -46.1447 N.am      2 UNK        -0.5000 
     65 C          -1.7552  -13.0143  -45.7242 C.2       1 UNK         0.5000 
     66 O          -2.4999  -13.3857  -44.8173 O.2       1 UNK        -0.5000 
     67 C           0.0784  -22.6636  -47.6603 C.2       11 UNK         0.5000 
     68 O          -0.4375  -23.2173  -48.6318 O.2       11 UNK        -0.5000 
     69 N          -0.5682  -21.7643  -46.9026 N.am      12 UNK        -0.5000 
     70 CA         -1.9656  -21.3450  -47.0678 C.3       12 UNK         0.1400 
     71 CB         -2.2807  -20.2167  -46.0757 C.3       12 UNK        -0.1800 
     72 C          -3.0021  -22.4795  -46.9232 C.2       12 UNK         0.5000 
     73 O          -4.1595  -22.2859  -47.2921 O.2       12 UNK        -0.5000 
     74 N          -2.5828  -23.6544  -46.4313 N.am      13 UNK        -0.5000 
     75 CA         -3.3552  -24.8967  -46.4748 C.3       13 UNK         0.1400 
     76 CB         -2.5782  -25.9948  -45.7346 C.3       13 UNK        -0.1800 
     77 C          -3.6926  -25.3467  -47.9135 C.2       13 UNK         0.5000 
     78 O          -4.7336  -25.9700  -48.1233 O.2       13 UNK        -0.5000 
     79 N          -2.8447  -24.9832  -48.8872 N.am      14 UNK        -0.5000 
     80 CA         -3.0464  -25.2074  -50.3179 C.3       14 UNK         0.1400 
     81 CB         -1.6709  -25.3734  -50.9880 C.3       14 UNK        -0.1800 
     82 C          -3.8865  -24.0766  -50.9511 C.2       14 UNK         0.5000 
     83 O          -3.4632  -23.4799  -51.9392 O.2       14 UNK        -0.5000 
     84 N          -5.0661  -23.8176  -50.3678 N.am      15 UNK        -0.5000 
     85 CA         -6.0617  -22.8096  -50.7459 C.3       15 UNK         0.1400 
     86 CB         -6.6234  -23.0827  -52.1552 C.3       15 UNK        -0.1800 
     87 C          -5.5364  -21.3673  -50.6038 C.2       15 UNK         0.5000 
     88 O          -5.0326  -20.7895  -51.5686 O.2       15 UNK        -0.5000 
     89 N          -5.7059  -20.8017  -49.4000 N.am      16 UNK        -0.5000 
     90 CA         -5.2669  -19.4675  -48.9639 C.3       16 UNK         0.1400 
     91 CB         -5.8032  -19.2167  -47.5452 C.3       16 UNK        -0.1800 
     92 C          -5.6800  -18.2933  -49.8750 C.2       16 UNK         0.5000 
     93 O          -4.9916  -17.2733  -49.8965 O.2       16 UNK        -0.5000 
     94 N          -6.7799  -18.4662  -50.6203 N.am      17 UNK        -0.5000 
     95 CA         -7.2822  -17.5417  -51.6393 C.3       17 UNK         0.1400 
     96 CB         -8.7199  -17.9548  -51.9957 C.3       17 UNK        -0.1800 
     97 C          -6.4102  -17.4681  -52.9141 C.2       17 UNK         0.5000 
     98 O          -6.6881  -16.6316  -53.7742 O.2       17 UNK        -0.5000 
     99 N          -5.3968  -18.3411  -53.0208 N.am      18 UNK        -0.5000 
    100 CA        -4.4800  -18.5247  -54.1468 C.3       18 UNK         0.1400 
    101 CB        -3.6731  -17.2453  -54.4519 C.3       18 UNK        -0.1800 
    102 C         -5.1999  -19.1207  -55.3707 C.2       18 UNK         0.5000 
    103 O         -5.0502  -18.6289  -56.4913 O.2       18 UNK        -0.5000 
    104 N         -5.9774  -20.1827  -55.1174 N.am      19 UNK        -0.5000 
    105 CA        -6.6282  -21.0109  -56.1345 C.3       19 UNK         0.1400 
    106 CB        -7.7803  -21.7877  -55.4731 C.3       19 UNK        -0.1800 
    107 C         -5.6206  -21.9627  -56.8161 C.2       19 UNK         0.5000 
    108 O         -4.4244  -21.9104  -56.5249 O.2       19 UNK        -0.5000 
    109 N         -6.1193  -22.8422  -57.6971 N.am      20 UNK        -0.5000 
    110 CA        -5.3322  -23.7923  -58.4968 C.3       20 UNK         0.1400 
    111 CB        -6.2854  -24.6289  -59.3636 C.3       20 UNK        -0.1800 
    112 C         -4.3954  -24.7137  -57.6862 C.2       20 UNK         0.5000 
    113 O         -3.3158  -25.0552  -58.1716 O.2       20 UNK        -0.5000 
    114 N         -4.7938  -25.0533  -56.4511 N.am      21 UNK        -0.5000 
    115 CA        -3.9931  -25.8129  -55.4844 C.3       21 UNK         0.1400 
    116 CB        -4.8570  -26.1210  -54.2515 C.3       21 UNK        -0.1800 
    117 C         -2.6892  -25.1039  -55.0594 C.2       21 UNK         0.5000 
    118 O         -1.7254  -25.7801  -54.6989 O.2       21 UNK        -0.5000 
    119 N         -2.6772  -23.7678  -55.1338 N.am      22 UNK        -0.5000 
    120 CA        -1.5199  -22.9044  -54.8660 C.3       22 UNK         0.1400 
    121 C         -0.4767  -22.8817  -56.0272 C.2       22 UNK         0.5000 
    122 N         -0.7601  -23.4460  -57.1974 N.am      22 UNK        -0.7600 
    123 O          0.6242  -22.3642  -55.8636 O.2       22 UNK        -0.5000 
    124 C124       -2.0059  -21.4825  -54.4739 C.3       23 UNK        -0.0398 
    125 S125       -0.8240  -20.5165  -53.4753 S.3       23 UNK        -0.2404 
    126 C126       -1.3923  -20.8916  -51.7882 C.3       23 UNK        -0.0205 
    127 H127        2.9087  -11.7258  -45.4489 H         1 UNK         0.0600 
    128 H128        3.4980  -13.3905  -45.4106 H         1 UNK         0.0600 
    129 H129        2.9248  -12.6922  -46.9278 H         1 UNK         0.0600 
    130 H130        0.8952  -13.4363  -47.4872 H         1 UNK         0.3000 
    131 H131       -0.7784  -14.9164  -45.7830 H         1 UNK         0.0600 
    132 H132       -1.6038  -13.5798  -48.4115 H         1 UNK         0.0800 
    133 H133       -2.4190  -14.9057  -47.6315 H         1 UNK         0.0800 
    134 H134       -2.2071  -17.1765  -48.5002 H         1 UNK         0.0800 
    135 H135       -1.0089  -17.3820  -47.2374 H         1 UNK         0.0800 
    136 H136       -2.2353  -18.7887  -50.2543 H         1 UNK         0.1150 
    137 H137        1.1920  -21.2352  -51.0481 H         1 UNK         0.1150 
    138 H138        1.4132  -18.1327  -48.0996 H         1 UNK         0.1150 
    139 H139        3.3449  -20.6020  -50.1544 H         1 UNK         0.0800 
    140 H140        3.4930  -19.0877  -49.3034 H         1 UNK         0.0800 
    141 H141        2.3253  -22.6566  -49.1912 H         1 UNK         0.0800 
    142 H142        3.4799  -23.2479  -48.0445 H         1 UNK         0.0800 
    143 H143        1.4890  -24.1870  -47.3453 H         1 UNK         0.0600 
    144 H144        2.3016  -22.0286  -45.5823 H         1 UNK         0.3000 
    145 H145        1.0752  -23.7880  -42.6653 H         1 UNK         0.0600 
    146 H146        3.3995  -23.1844  -42.0503 H         1 UNK         0.0600 
    147 H147        3.3979  -24.4816  -43.2364 H         1 UNK         0.0600 
    148 H148        3.7880  -22.8398  -43.7334 H         1 UNK         0.0600 
    149 H149        2.1235  -21.1353  -43.0299 H         1 UNK         0.3000 
    150 H150       -0.9460  -19.4463  -43.3699 H         1 UNK         0.0600 
    151 H151       -1.0288  -19.8977  -40.9178 H         1 UNK         0.0600 
    152 H152       -0.3571  -18.3078  -41.2467 H         1 UNK         0.0600 
    153 H153        0.7077  -19.6409  -40.8010 H         1 UNK         0.0600 
    154 H154        1.5449  -18.3373  -42.8056 H         1 UNK         0.3000 
    155 H155        3.0269  -18.4943  -46.0603 H         1 UNK         0.0600 
    156 H156        3.0476  -16.0479  -45.6365 H         1 UNK         0.0600 
    157 H157        1.7975  -16.2268  -44.4054 H         1 UNK         0.0600 
    158 H158        1.4385  -16.5878  -46.0866 H         1 UNK         0.0600 
    159 H159        3.7880  -17.4139  -43.4843 H         1 UNK         0.3000 
    160 H160        5.7976  -20.1955  -42.5027 H         1 UNK         0.0600 
    161 H161        6.5478  -17.3879  -43.4860 H         1 UNK         0.0600 
    162 H162        7.2102  -18.8968  -44.1029 H         1 UNK         0.0600 
    163 H163        7.5262  -18.4198  -42.4424 H         1 UNK         0.0600 
    164 H164        5.2949  -17.6054  -41.3639 H         1 UNK         0.3000 
    165 H165        2.4453  -18.4941  -39.4530 H         1 UNK         0.0600 
    166 H166        5.3330  -18.0147  -38.5447 H         1 UNK         0.0600 
    167 H167        3.8828  -17.8111  -37.5609 H         1 UNK         0.0600 
    168 H168        4.3505  -19.4100  -38.1158 H         1 UNK         0.0600 
    169 H169        3.9169  -16.1166  -39.3991 H         1 UNK         0.3000 
    170 H170        2.9502  -14.2388  -40.1950 H         1 UNK         0.0600 
    171 H171        4.6968  -14.5799  -41.9544 H         1 UNK         0.0600 
    172 H172        3.4510  -14.6901  -43.1928 H         1 UNK         0.0600 
    173 H173        3.7072  -13.1765  -42.3294 H         1 UNK         0.0600 
    174 H174        1.2488  -13.8473  -42.4743 H         1 UNK         0.3000 
    175 H175       -1.3431  -14.4447  -42.1297 H         1 UNK         0.0600 
    176 H176       -3.1061  -13.2121  -40.8510 H         1 UNK         0.0600 
    177 H177       -2.4525  -14.5588  -39.9325 H         1 UNK         0.0600 
    178 H178       -1.9602  -12.9170  -39.5437 H         1 UNK         0.0600 
    179 H179       -0.9069  -12.5204  -43.0924 H         1 UNK         0.3000 
    180 H180       -0.4588   -9.2394  -42.1899 H         1 UNK         0.0600 
    181 H181        1.6861   -9.2222  -43.4813 H         1 UNK         0.0600 
    182 H182        1.9360   -9.7888  -41.8379 H         1 UNK         0.0600 
    183 H183        1.9008  -10.9441  -43.1618 H         1 UNK         0.0600 
    184 H184       -0.0957  -10.8424  -44.6075 H         1 UNK         0.3000 
    185 H185       -3.4846  -10.9407  -45.5160 H         1 UNK         0.0600 
    186 H186       -2.7699   -9.7190  -47.5571 H         1 UNK         0.0600 
    187 H187       -2.9647   -8.6024  -46.2158 H         1 UNK         0.0600 
    188 H188       -1.3508   -9.0927  -46.7166 H         1 UNK         0.0600 
    189 H189       -1.0134  -11.5241  -46.8845 H         1 UNK         0.3000 
    190 H190       -0.0367  -21.2727  -46.1894 H         1 UNK         0.3000 
    191 H191       -2.0680  -20.9507  -48.0798 H         1 UNK         0.0600 
    192 H192       -3.2869  -19.8288  -46.2249 H         1 UNK         0.0600 
    193 H193       -1.5981  -19.3784  -46.1950 H         1 UNK         0.0600 
    194 H194       -2.2160  -20.5650  -45.0457 H         1 UNK         0.0600 
    195 H195       -1.6245  -23.7277  -46.1189 H         1 UNK         0.3000 
    196 H196       -4.2973  -24.7252  -45.9503 H         1 UNK         0.0600 
    197 H197       -3.1391  -26.9302  -45.7211 H         1 UNK         0.0600 
    198 H198       -2.3885  -25.7138  -44.6983 H         1 UNK         0.0600 
    199 H199       -1.6157  -26.1940  -46.2078 H         1 UNK         0.0600 
    200 H200       -2.0350  -24.4193  -48.6456 H         1 UNK         0.3000 
    201 H201       -3.5968  -26.1390  -50.4644 H         1 UNK         0.0600 
    202 H202       -1.0945  -26.1699  -50.5176 H         1 UNK         0.0600 
    203 H203       -1.0819  -24.4573  -50.9363 H         1 UNK         0.0600 
    204 H204       -1.7809  -25.6322  -52.0404 H         1 UNK         0.0600 
    205 H205       -5.2933  -24.3651  -49.5469 H         1 UNK         0.3000 
    206 H206       -6.8905  -22.9261  -50.0459 H         1 UNK         0.0600 
    207 H207       -7.0262  -24.0926  -52.2315 H         1 UNK         0.0600 
    208 H208       -7.4342  -22.3906  -52.3845 H         1 UNK         0.0600 
    209 H209       -5.8649  -22.9643  -52.9296 H         1 UNK         0.0600 
    210 H210       -6.0759  -21.3842  -48.6619 H         1 UNK         0.3000 
    211 H211       -4.1766  -19.4878  -48.9238 H         1 UNK         0.0600 
    212 H212       -6.8914  -19.1414  -47.5368 H         1 UNK         0.0600 
    213 H213       -5.4067  -18.2864  -47.1360 H         1 UNK         0.0600 
    214 H214       -5.5252  -20.0168  -46.8605 H         1 UNK         0.0600 
    215 H215       -7.2755  -19.3402  -50.5268 H         1 UNK         0.3000 
    216 H216       -7.3085  -16.5395  -51.2069 H         1 UNK         0.0600 
    217 H217       -9.1605  -17.2640  -52.7157 H         1 UNK         0.0600 
    218 H218       -9.3618  -17.9532  -51.1145 H         1 UNK         0.0600 
    219 H219       -8.7534  -18.9523  -52.4358 H         1 UNK         0.0600 
    220 H220       -5.2903  -19.0298  -52.2808 H         1 UNK         0.3000 
    221 H221       -3.7646  -19.2783  -53.8189 H         1 UNK         0.0600 
    222 H222       -4.2993  -16.4501  -54.8563 H         1 UNK         0.0600 
    223 H223       -3.1835  -16.8665  -53.5547 H         1 UNK         0.0600 
    224 H224       -2.8924  -17.4486  -55.1857 H         1 UNK         0.0600 
    225 H225       -6.0120  -20.5263  -54.1686 H         1 UNK         0.3000 
    226 H226       -7.0458  -20.3563  -56.9020 H         1 UNK         0.0600 
    227 H227       -8.4262  -22.2487  -56.2208 H         1 UNK         0.0600 
    228 H228       -7.4114  -22.5844  -54.8282 H         1 UNK         0.0600 
    229 H229       -8.4096  -21.1310  -54.8717 H         1 UNK         0.0600 
    230 H230       -7.1130  -22.8344  -57.8756 H         1 UNK         0.3000 
    231 H231       -4.6993  -23.2019  -59.1624 H         1 UNK         0.0600 
    232 H232       -5.7318  -25.3300  -59.9899 H         1 UNK         0.0600 
    233 H233       -6.8725  -23.9962  -60.0296 H         1 UNK         0.0600 
    234 H234       -6.9779  -25.2099  -58.7534 H         1 UNK         0.0600 
    235 H235       -5.6917  -24.7204  -56.1332 H         1 UNK         0.3000 
    236 H236       -3.7138  -26.7585  -55.9533 H         1 UNK         0.0600 
    237 H237       -5.1835  -25.2074  -53.7543 H         1 UNK         0.0600 
    238 H238       -5.7439  -26.6943  -54.5213 H         1 UNK         0.0600 
    239 H239       -4.2998  -26.7084  -53.5205 H         1 UNK         0.0600 
    240 H240       -3.4924  -23.2887  -55.5018 H         1 UNK         0.3000 
    241 H241       -1.0064  -23.3268  -54.0000 H         1 UNK         0.0600 
    242 H242       -0.0704  -23.4305  -57.9319 H         1 UNK         0.3800 
    243 H243       -1.6476  -23.9056  -57.3549 H         1 UNK         0.3800 
    244 H244       -2.9351  -21.5541  -53.9056 H         1 UNK         0.0800 
    245 H245       -2.2544  -20.9039  -55.3649 H         1 UNK         0.0800 
    246 H246       -2.4567  -20.6739  -51.7053 H         1 UNK         0.0800 
    247 H247       -1.2764  -21.9586  -51.5939 H         1 UNK         0.0800 
@<TRIPOS>BOND
     1    1    2 1    
     2    1  127 1    
     3    1  128 1    
     4    1  129 1    
     5    2    3 2    
     6    2    4 am   BACKBONE|DICT|INTERRES
     7    4    5 1    
     8    4  130 1    
     9    5    6 1    
    10    5   65 1    
    11    5  131 1    
    12    6    7 1    
    13    6  132 1    
    14    6  133 1    
    15    7    8 1    
    16    8    9 1    
    17    8  134 1    
    18    8  135 1    
    19    9   10 ar   
    20    9   14 ar   
    21   10   11 ar   
    22   10  136 1    
    23   11   12 ar   
    24   11  126 1    
    25   12   13 ar   
    26   12  137 1    
    27   13   14 ar   
    28   13   15 1    
    29   14  138 1    
    30   15   16 1    
    31   15  139 1    
    32   15  140 1    
    33   16   17 1    
    34   17   18 1    
    35   17  141 1    
    36   17  142 1    
    37   18   19 1    
    38   18   67 1    
    39   18  143 1    
    40   19   20 am   BACKBONE|DICT|INTERRES
    41   19  144 1    
    42   20   21 2    
    43   20   22 1    
    44   22   23 1    
    45   22   24 1    
    46   22  145 1    
    47   23  146 1    
    48   23  147 1    
    49   23  148 1    
    50   24   25 am   BACKBONE|DICT|INTERRES
    51   24  149 1    
    52   25   26 2    
    53   25   27 1    
    54   27   28 1    
    55   27   29 1    
    56   27  150 1    
    57   28  151 1    
    58   28  152 1    
    59   28  153 1    
    60   29   30 am   BACKBONE|DICT|INTERRES
    61   29  154 1    
    62   30   31 2    
    63   30   32 1    
    64   32   33 1    
    65   32   34 1    
    66   32  155 1    
    67   33  156 1    
    68   33  157 1    
    69   33  158 1    
    70   34   35 am   BACKBONE|DICT|INTERRES
    71   34  159 1    
    72   35   36 2    
    73   35   37 1    
    74   37   38 1    
    75   37   39 1    
    76   37  160 1    
    77   38  161 1    
    78   38  162 1    
    79   38  163 1    
    80   39   40 am   BACKBONE|DICT|INTERRES
    81   39  164 1    
    82   40   41 2    
    83   40   42 1    
    84   42   43 1    
    85   42   44 1    
    86   42  165 1    
    87   43  166 1    
    88   43  167 1    
    89   43  168 1    
    90   44   45 am   BACKBONE|DICT|INTERRES
    91   44  169 1    
    92   45   46 2    
    93   45   47 1    
    94   47   48 1    
    95   47   49 1    
    96   47  170 1    
    97   48  171 1    
    98   48  172 1    
    99   48  173 1    
   100   49   50 am   BACKBONE|DICT|INTERRES
   101   49  174 1    
   102   50   51 2    
   103   50   52 1    
   104   52   53 1    
   105   52   54 1    
   106   52  175 1    
   107   53  176 1    
   108   53  177 1    
   109   53  178 1    
   110   54   55 am   BACKBONE|DICT|INTERRES
   111   54  179 1    
   112   55   56 2    
   113   55   57 1    
   114   57   58 1    
   115   57   59 1    
   116   57  180 1    
   117   58  181 1    
   118   58  182 1    
   119   58  183 1    
   120   59   60 am   BACKBONE|DICT|INTERRES
   121   59  184 1    
   122   60   61 2    
   123   60   62 1    
   124   62   63 1    
   125   62   64 1    
   126   62  185 1    
   127   63  186 1    
   128   63  187 1    
   129   63  188 1    
   130   64   65 am   BACKBONE|DICT|INTERRES
   131   64  189 1    
   132   65   66 2    
   133   67   68 2    
   134   67   69 am   BACKBONE|DICT|INTERRES
   135   69   70 1    
   136   69  190 1    
   137   70   71 1    
   138   70   72 1    
   139   70  191 1    
   140   71  192 1    
   141   71  193 1    
   142   71  194 1    
   143   72   73 2    
   144   72   74 am   BACKBONE|DICT|INTERRES
   145   74   75 1    
   146   74  195 1    
   147   75   76 1    
   148   75   77 1    
   149   75  196 1    
   150   76  197 1    
   151   76  198 1    
   152   76  199 1    
   153   77   78 2    
   154   77   79 am   BACKBONE|DICT|INTERRES
   155   79   80 1    
   156   79  200 1    
   157   80   81 1    
   158   80   82 1    
   159   80  201 1    
   160   81  202 1    
   161   81  203 1    
   162   81  204 1    
   163   82   83 2    
   164   82   84 am   BACKBONE|DICT|INTERRES
   165   84   85 1    
   166   84  205 1    
   167   85   86 1    
   168   85   87 1    
   169   85  206 1    
   170   86  207 1    
   171   86  208 1    
   172   86  209 1    
   173   87   88 2    
   174   87   89 am   BACKBONE|DICT|INTERRES
   175   89   90 1    
   176   89  210 1    
   177   90   91 1    
   178   90   92 1    
   179   90  211 1    
   180   91  212 1    
   181   91  213 1    
   182   91  214 1    
   183   92   93 2    
   184   92   94 am   BACKBONE|DICT|INTERRES
   185   94   95 1    
   186   94  215 1    
   187   95   96 1    
   188   95   97 1    
   189   95  216 1    
   190   96  217 1    
   191   96  218 1    
   192   96  219 1    
   193   97   98 2    
   194   97   99 am   BACKBONE|DICT|INTERRES
   195   99  100 1    
   196   99  220 1    
   197  100  101 1    
   198  100  102 1    
   199  100  221 1    
   200  101  222 1    
   201  101  223 1    
   202  101  224 1    
   203  102  103 2    
   204  102  104 am   BACKBONE|DICT|INTERRES
   205  104  105 1    
   206  104  225 1    
   207  105  106 1    
   208  105  107 1    
   209  105  226 1    
   210  106  227 1    
   211  106  228 1    
   212  106  229 1    
   213  107  108 2    
   214  107  109 am   BACKBONE|DICT|INTERRES
   215  109  110 1    
   216  109  230 1    
   217  110  111 1    
   218  110  112 1    
   219  110  231 1    
   220  111  232 1    
   221  111  233 1    
   222  111  234 1    
   223  112  113 2    
   224  112  114 am   BACKBONE|DICT|INTERRES
   225  114  115 1    
   226  114  235 1    
   227  115  116 1    
   228  115  117 1    
   229  115  236 1    
   230  116  237 1    
   231  116  238 1    
   232  116  239 1    
   233  117  118 2    
   234  117  119 am   BACKBONE|DICT|INTERRES
   235  119  120 1    
   236  119  240 1    
   237  120  121 1    
   238  120  124 1    
   239  120  241 1    
   240  121  122 am   BACKBONE|DICT|INTERRES
   241  121  123 2    
   242  122  242 1    
   243  122  243 1    
   244  124  125 1    
   245  124  244 1    
   246  124  245 1    
   247  125  126 1    
   248  126  246 1    
   249  126  247 1    
@<TRIPOS>SUBSTRUCTURE
     1 UNK         1 GROUP             0       ****    0 ROOT    
