@<TRIPOS>MOLECULE
3R540
247   249    1
SMALL
USER_CHARGES


@<TRIPOS>ATOM
      1 CA          0.3639   -8.4977  -49.8954 C.3       0 UNK        -0.1800 
      2 C           0.9778   -9.7762  -49.3436 C.2       0 UNK         0.5000 
      3 O           2.0831   -9.7435  -48.8031 O.2       0 UNK        -0.5000 
      4 N           0.2610  -10.9008  -49.4630 N.am      1 UNK        -0.5000 
      5 CA          0.6873  -12.2292  -49.0018 C.3       1 UNK         0.1400 
      6 C6          0.0472  -13.3582  -49.8479 C.3       23 UNK        -0.0398 
      7 S7         -1.7648  -13.5114  -49.6476 S.3       23 UNK        -0.2404 
      8 C8         -2.1651  -14.7523  -50.9235 C.3       23 UNK        -0.0205 
      9 C9         -1.4273  -16.0850  -50.7922 C.ar      23 UNK        -0.0193 
     10 C10        -1.1234  -16.8016  -51.9531 C.ar      23 UNK        -0.1150 
     11 C11        -0.4891  -18.0432  -51.8818 C.ar      23 UNK        -0.0193 
     12 C12        -0.1452  -18.5669  -50.6349 C.ar      23 UNK        -0.1150 
     13 C13        -0.4278  -17.8626  -49.4594 C.ar      23 UNK        -0.0193 
     14 C14        -1.0807  -16.6285  -49.5475 C.ar      23 UNK        -0.1150 
     15 C15        -0.0894  -18.4426  -48.0892 C.3       23 UNK        -0.0205 
     16 S16         1.5097  -19.3219  -48.0377 S.3       23 UNK        -0.2404 
     17 C17         1.4878  -20.0718  -46.3741 C.3       23 UNK        -0.0398 
     18 CA          1.1805  -21.5963  -46.4157 C.3       11 UNK         0.1400 
     19 N           1.6571  -22.2999  -45.2283 N.am      11 UNK        -0.5000 
     20 C           2.9210  -22.7153  -45.0607 C.2       10 UNK         0.5000 
     21 O           3.7905  -22.5817  -45.9236 O.2       10 UNK        -0.5000 
     22 CA          3.3042  -23.3795  -43.7222 C.3       10 UNK         0.1400 
     23 CB          4.5369  -22.6974  -43.1026 C.3       10 UNK        -0.1800 
     24 N           2.2166  -23.3243  -42.7488 N.am      10 UNK        -0.5000 
     25 C           1.5022  -24.3705  -42.3151 C.2       9 UNK         0.5000 
     26 O           1.6983  -25.5304  -42.6789 O.2       9 UNK        -0.5000 
     27 CA          0.3689  -24.0813  -41.3061 C.3       9 UNK         0.1400 
     28 CB          0.8114  -24.4544  -39.8830 C.3       9 UNK        -0.1800 
     29 N          -0.1026  -22.6931  -41.3033 N.am      9 UNK        -0.5000 
     30 C          -0.6708  -22.0752  -42.3461 C.2       8 UNK         0.5000 
     31 O          -0.8430  -22.6056  -43.4421 O.2       8 UNK        -0.5000 
     32 CA         -1.0359  -20.5937  -42.1652 C.3       8 UNK         0.1400 
     33 CB         -2.4030  -20.4607  -41.4790 C.3       8 UNK        -0.1800 
     34 N          -0.0419  -19.7996  -41.4381 N.am      8 UNK        -0.5000 
     35 C           1.2688  -19.7196  -41.7139 C.2       7 UNK         0.5000 
     36 O           1.8403  -20.4382  -42.5347 O.2       7 UNK        -0.5000 
     37 CA          2.0472  -18.6212  -40.9675 C.3       7 UNK         0.1400 
     38 CB          3.5265  -18.5490  -41.3880 C.3       7 UNK        -0.1800 
     39 N           1.4153  -17.3322  -41.2382 N.am      7 UNK        -0.5000 
     40 C           0.5206  -16.7236  -40.4491 C.2       6 UNK         0.5000 
     41 O           0.1948  -17.1468  -39.3397 O.2       6 UNK        -0.5000 
     42 CA         -0.1591  -15.4554  -41.0042 C.3       6 UNK         0.1400 
     43 CB          0.5885  -14.2000  -40.5300 C.3       6 UNK        -0.1800 
     44 N          -0.2558  -15.4370  -42.4660 N.am      6 UNK        -0.5000 
     45 C          -0.9663  -16.3031  -43.2038 C.2       5 UNK         0.5000 
     46 O          -1.7002  -17.1666  -42.7245 O.2       5 UNK        -0.5000 
     47 CA         -0.8010  -16.2238  -44.7340 C.3       5 UNK         0.1400 
     48 CB         -1.8796  -15.3247  -45.3534 C.3       5 UNK        -0.1800 
     49 N           0.5223  -15.7618  -45.1625 N.am      5 UNK        -0.5000 
     50 C           1.6763  -16.4002  -44.9172 C.2       4 UNK         0.5000 
     51 O           1.7523  -17.4476  -44.2785 O.2       4 UNK        -0.5000 
     52 CA          2.9605  -15.7372  -45.4365 C.3       4 UNK         0.1400 
     53 CB          3.1490  -16.0044  -46.9378 C.3       4 UNK        -0.1800 
     54 N           2.9342  -14.2971  -45.1917 N.am      4 UNK        -0.5000 
     55 C           3.2995  -13.7209  -44.0383 C.2       3 UNK         0.5000 
     56 O           3.7663  -14.3407  -43.0824 O.2       3 UNK        -0.5000 
     57 CA          3.0963  -12.1967  -43.9229 C.3       3 UNK         0.1400 
     58 CB          4.3551  -11.4491  -44.3875 C.3       3 UNK        -0.1800 
     59 N           1.9417  -11.7036  -44.6766 N.am      3 UNK        -0.5000 
     60 C           0.6671  -12.0075  -44.3969 C.2       2 UNK         0.5000 
     61 O           0.3265  -12.7266  -43.4591 O.2       2 UNK        -0.5000 
     62 CA         -0.4063  -11.4573  -45.3543 C.3       2 UNK         0.1400 
     63 CB         -0.8353  -10.0468  -44.9241 C.3       2 UNK        -0.1800 
     64 N          -0.0154  -11.4291  -46.7671 N.am      2 UNK        -0.5000 
     65 C           0.4734  -12.4522  -47.4852 C.2       1 UNK         0.5000 
     66 O           0.7434  -13.5507  -46.9981 O.2       1 UNK        -0.5000 
     67 C          -0.2982  -21.9447  -46.6516 C.2       11 UNK         0.5000 
     68 O          -0.5836  -22.9235  -47.3431 O.2       11 UNK        -0.5000 
     69 N          -1.2129  -21.1412  -46.0890 N.am      12 UNK        -0.5000 
     70 CA         -2.6537  -21.1386  -46.3627 C.3       12 UNK         0.1400 
     71 CB         -3.3158  -20.0196  -45.5456 C.3       12 UNK        -0.1800 
     72 C          -3.3826  -22.4773  -46.1417 C.2       12 UNK         0.5000 
     73 O          -4.3751  -22.7305  -46.8217 O.2       12 UNK        -0.5000 
     74 N          -2.8700  -23.3258  -45.2425 N.am      13 UNK        -0.5000 
     75 CA         -3.3763  -24.6757  -44.9874 C.3       13 UNK         0.1400 
     76 CB         -2.6707  -25.2498  -43.7490 C.3       13 UNK        -0.1800 
     77 C          -3.2207  -25.6346  -46.1864 C.2       13 UNK         0.5000 
     78 O          -3.9965  -26.5852  -46.2945 O.2       13 UNK        -0.5000 
     79 N          -2.2354  -25.3730  -47.0562 N.am      14 UNK        -0.5000 
     80 CA         -1.9589  -26.1493  -48.2643 C.3       14 UNK         0.1400 
     81 CB         -0.4825  -26.5772  -48.2546 C.3       14 UNK        -0.1800 
     82 C          -2.2738  -25.3415  -49.5337 C.2       14 UNK         0.5000 
     83 O          -2.8597  -25.8850  -50.4696 O.2       14 UNK        -0.5000 
     84 N          -1.8732  -24.0637  -49.5489 N.am      15 UNK        -0.5000 
     85 CA         -1.9636  -23.1724  -50.7059 C.3       15 UNK         0.1400 
     86 CB         -0.8881  -22.0875  -50.5549 C.3       15 UNK        -0.1800 
     87 C          -3.3507  -22.5291  -50.8887 C.2       15 UNK         0.5000 
     88 O          -3.6105  -21.9553  -51.9447 O.2       15 UNK        -0.5000 
     89 N          -4.2073  -22.5979  -49.8587 N.am      16 UNK        -0.5000 
     90 CA         -5.5816  -22.0771  -49.8065 C.3       16 UNK         0.1400 
     91 CB         -6.4769  -22.8004  -50.8321 C.3       16 UNK        -0.1800 
     92 C          -5.6964  -20.5387  -49.9109 C.2       16 UNK         0.5000 
     93 O          -6.8064  -20.0298  -50.0635 O.2       16 UNK        -0.5000 
     94 N          -4.5613  -19.8303  -49.8080 N.am      17 UNK        -0.5000 
     95 CA         -4.4002  -18.3751  -49.8657 C.3       17 UNK         0.1400 
     96 CB         -4.9704  -17.7142  -48.5948 C.3       17 UNK        -0.1800 
     97 C          -4.9523  -17.7662  -51.1713 C.2       17 UNK         0.5000 
     98 O          -5.9162  -17.0001  -51.1439 O.2       17 UNK        -0.5000 
     99 N          -4.3250  -18.1494  -52.2923 N.am      18 UNK        -0.5000 
    100 CA        -4.5857  -17.7169  -53.6735 C.3       18 UNK         0.1400 
    101 CB        -4.5942  -16.1800  -53.8145 C.3       18 UNK        -0.1800 
    102 C         -5.8156  -18.3675  -54.3349 C.2       18 UNK         0.5000 
    103 O         -6.0563  -18.1191  -55.5180 O.2       18 UNK        -0.5000 
    104 N         -6.5511  -19.2221  -53.6118 N.am      19 UNK        -0.5000 
    105 CA        -7.7032  -19.9690  -54.1201 C.3       19 UNK         0.1400 
    106 CB        -8.6431  -20.3088  -52.9520 C.3       19 UNK        -0.1800 
    107 C         -7.2623  -21.2125  -54.9213 C.2       19 UNK         0.5000 
    108 O         -7.5102  -22.3442  -54.5024 O.2       19 UNK        -0.5000 
    109 N         -6.5921  -20.9668  -56.0558 N.am      20 UNK        -0.5000 
    110 CA        -6.1257  -21.8956  -57.0974 C.3       20 UNK         0.1400 
    111 CB        -7.3097  -22.6459  -57.7354 C.3       20 UNK        -0.1800 
    112 C         -5.0156  -22.8843  -56.6838 C.2       20 UNK         0.5000 
    113 O         -4.1422  -23.1779  -57.5026 O.2       20 UNK        -0.5000 
    114 N         -5.0395  -23.3710  -55.4370 N.am      21 UNK        -0.5000 
    115 CA        -4.1220  -24.3791  -54.8925 C.3       21 UNK         0.1400 
    116 CB        -4.6735  -24.8984  -53.5569 C.3       21 UNK        -0.1800 
    117 C         -2.6469  -23.9333  -54.7774 C.2       21 UNK         0.5000 
    118 O         -1.7805  -24.7815  -54.5593 O.2       21 UNK        -0.5000 
    119 N         -2.3739  -22.6374  -54.9785 N.am      22 UNK        -0.5000 
    120 CA        -1.0310  -22.0873  -55.2294 C.3       22 UNK         0.1400 
    121 C         -0.3761  -22.5948  -56.5506 C.2       22 UNK         0.5000 
    122 N         -1.1335  -23.0818  -57.5286 N.am      22 UNK        -0.7600 
    123 O          0.8428  -22.5428  -56.6893 O.2       22 UNK        -0.5000 
    124 C124       -1.0293  -20.5371  -55.2225 C.3       23 UNK        -0.0398 
    125 S125       -1.6133  -19.8247  -53.6514 S.3       23 UNK        -0.2404 
    126 C126       -0.1842  -18.8206  -53.1512 C.3       23 UNK        -0.0205 
    127 H127       -0.6172   -8.6764  -50.3364 H         1 UNK         0.0600 
    128 H128        1.0097   -8.0732  -50.6641 H         1 UNK         0.0600 
    129 H129        0.2502   -7.7617  -49.0994 H         1 UNK         0.0600 
    130 H130       -0.6503  -10.8688  -49.8994 H         1 UNK         0.3000 
    131 H131        1.7658  -12.3024  -49.1568 H         1 UNK         0.0600 
    132 H132        0.2678  -13.1954  -50.9037 H         1 UNK         0.0800 
    133 H133        0.5112  -14.3132  -49.5965 H         1 UNK         0.0800 
    134 H134       -3.2373  -14.9491  -50.8892 H         1 UNK         0.0800 
    135 H135       -1.9646  -14.3081  -51.8997 H         1 UNK         0.0800 
    136 H136       -1.3948  -16.4015  -52.9198 H         1 UNK         0.1150 
    137 H137        0.3438  -19.5283  -50.5835 H         1 UNK         0.1150 
    138 H138       -1.3259  -16.0939  -48.6415 H         1 UNK         0.1150 
    139 H139       -0.0657  -17.6485  -47.3430 H         1 UNK         0.0800 
    140 H140       -0.8947  -19.1188  -47.8101 H         1 UNK         0.0800 
    141 H141        0.8207  -19.5250  -45.7074 H         1 UNK         0.0800 
    142 H142        2.4845  -19.9129  -45.9598 H         1 UNK         0.0800 
    143 H143        1.7085  -22.0146  -47.2761 H         1 UNK         0.0600 
    144 H144        0.9714  -22.4765  -44.5027 H         1 UNK         0.3000 
    145 H145        3.5666  -24.4151  -43.9463 H         1 UNK         0.0600 
    146 H146        4.8168  -23.1703  -42.1612 H         1 UNK         0.0600 
    147 H147        5.4002  -22.7630  -43.7657 H         1 UNK         0.0600 
    148 H148        4.3533  -21.6405  -42.9049 H         1 UNK         0.0600 
    149 H149        1.9695  -22.3897  -42.4353 H         1 UNK         0.3000 
    150 H150       -0.4754  -24.7173  -41.5790 H         1 UNK         0.0600 
    151 H151        1.1398  -25.4935  -39.8345 H         1 UNK         0.0600 
    152 H152       -0.0072  -24.3411  -39.1721 H         1 UNK         0.0600 
    153 H153        1.6407  -23.8319  -39.5447 H         1 UNK         0.0600 
    154 H154        0.0322  -22.1693  -40.4509 H         1 UNK         0.3000 
    155 H155       -1.1142  -20.1563  -43.1617 H         1 UNK         0.0600 
    156 H156       -2.3737  -20.8197  -40.4496 H         1 UNK         0.0600 
    157 H157       -2.7370  -19.4232  -41.4629 H         1 UNK         0.0600 
    158 H158       -3.1647  -21.0366  -42.0067 H         1 UNK         0.0600 
    159 H159       -0.4115  -19.1537  -40.7545 H         1 UNK         0.3000 
    160 H160        2.0105  -18.8530  -39.9013 H         1 UNK         0.0600 
    161 H161        3.6341  -18.3438  -42.4539 H         1 UNK         0.0600 
    162 H162        4.0381  -19.4896  -41.1807 H         1 UNK         0.0600 
    163 H163        4.0523  -17.7651  -40.8428 H         1 UNK         0.0600 
    164 H164        1.5578  -16.9721  -42.1745 H         1 UNK         0.3000 
    165 H165       -1.1732  -15.4235  -40.6009 H         1 UNK         0.0600 
    166 H166        0.6991  -14.1941  -39.4449 H         1 UNK         0.0600 
    167 H167        1.5874  -14.1396  -40.9644 H         1 UNK         0.0600 
    168 H168        0.0483  -13.2937  -40.8037 H         1 UNK         0.0600 
    169 H169        0.2470  -14.6950  -42.9416 H         1 UNK         0.3000 
    170 H170       -0.9367  -17.2341  -45.1243 H         1 UNK         0.0600 
    171 H171       -1.8352  -14.3149  -44.9478 H         1 UNK         0.0600 
    172 H172       -1.7713  -15.2570  -46.4357 H         1 UNK         0.0600 
    173 H173       -2.8768  -15.7161  -45.1484 H         1 UNK         0.0600 
    174 H174        0.5518  -14.9124  -45.7209 H         1 UNK         0.3000 
    175 H175        3.8089  -16.1785  -44.9088 H         1 UNK         0.0600 
    176 H176        4.0386  -15.5034  -47.3194 H         1 UNK         0.0600 
    177 H177        2.2953  -15.6675  -47.5269 H         1 UNK         0.0600 
    178 H178        3.2740  -17.0709  -47.1251 H         1 UNK         0.0600 
    179 H179        2.4812  -13.7314  -45.8992 H         1 UNK         0.3000 
    180 H180        2.9319  -11.9666  -42.8680 H         1 UNK         0.0600 
    181 H181        4.5569  -11.6196  -45.4458 H         1 UNK         0.0600 
    182 H182        5.2327  -11.7771  -43.8287 H         1 UNK         0.0600 
    183 H183        4.2558  -10.3746  -44.2326 H         1 UNK         0.0600 
    184 H184        2.1320  -11.1173  -45.4763 H         1 UNK         0.3000 
    185 H185       -1.2769  -12.1092  -45.2777 H         1 UNK         0.0600 
    186 H186       -1.1521  -10.0355  -43.8802 H         1 UNK         0.0600 
    187 H187       -0.0205   -9.3292  -45.0282 H         1 UNK         0.0600 
    188 H188       -1.6755   -9.6902  -45.5202 H         1 UNK         0.0600 
    189 H189       -0.1970  -10.5685  -47.2616 H         1 UNK         0.3000 
    190 H190       -0.8860  -20.4070  -45.4814 H         1 UNK         0.3000 
    191 H191       -2.7709  -20.8926  -47.4198 H         1 UNK         0.0600 
    192 H192       -2.8751  -19.0479  -45.7698 H         1 UNK         0.0600 
    193 H193       -4.3809  -19.9499  -45.7712 H         1 UNK         0.0600 
    194 H194       -3.2206  -20.1940  -44.4739 H         1 UNK         0.0600 
    195 H195       -2.0555  -23.0384  -44.7029 H         1 UNK         0.3000 
    196 H196       -4.4429  -24.5971  -44.7671 H         1 UNK         0.0600 
    197 H197       -3.0428  -26.2472  -43.5118 H         1 UNK         0.0600 
    198 H198       -2.8401  -24.6232  -42.8732 H         1 UNK         0.0600 
    199 H199       -1.5935  -25.3278  -43.9026 H         1 UNK         0.0600 
    200 H200       -1.6591  -24.5522  -46.9035 H         1 UNK         0.3000 
    201 H201       -2.5693  -27.0543  -48.2915 H         1 UNK         0.0600 
    202 H202       -0.2634  -27.2085  -47.3934 H         1 UNK         0.0600 
    203 H203        0.1881  -25.7175  -48.2170 H         1 UNK         0.0600 
    204 H204       -0.2350  -27.1499  -49.1493 H         1 UNK         0.0600 
    205 H205       -1.3819  -23.6916  -48.7385 H         1 UNK         0.3000 
    206 H206       -1.7456  -23.7446  -51.6105 H         1 UNK         0.0600 
    207 H207        0.0991  -22.5240  -50.4025 H         1 UNK         0.0600 
    208 H208       -0.8310  -21.4743  -51.4522 H         1 UNK         0.0600 
    209 H209       -1.0956  -21.4256  -49.7134 H         1 UNK         0.0600 
    210 H210       -3.9014  -23.0669  -49.0156 H         1 UNK         0.3000 
    211 H211       -5.9633  -22.3336  -48.8185 H         1 UNK         0.0600 
    212 H212       -6.2636  -22.4803  -51.8523 H         1 UNK         0.0600 
    213 H213       -7.5306  -22.5987  -50.6387 H         1 UNK         0.0600 
    214 H214       -6.3441  -23.8811  -50.7823 H         1 UNK         0.0600 
    215 H215       -3.7073  -20.3616  -49.7350 H         1 UNK         0.3000 
    216 H216       -3.3269  -18.1924  -49.8710 H         1 UNK         0.0600 
    217 H217       -4.7883  -16.6388  -48.6020 H         1 UNK         0.0600 
    218 H218       -4.4999  -18.1159  -47.6979 H         1 UNK         0.0600 
    219 H219       -6.0467  -17.8647  -48.5057 H         1 UNK         0.0600 
    220 H220       -3.5715  -18.8198  -52.2041 H         1 UNK         0.3000 
    221 H221       -3.7358  -18.0693  -54.2556 H         1 UNK         0.0600 
    222 H222       -5.4770  -15.7307  -53.3598 H         1 UNK         0.0600 
    223 H223       -4.5920  -15.8874  -54.8650 H         1 UNK         0.0600 
    224 H224       -3.7135  -15.7336  -53.3554 H         1 UNK         0.0600 
    225 H225       -6.2893  -19.3892  -52.6505 H         1 UNK         0.3000 
    226 H226       -8.2653  -19.3295  -54.8041 H         1 UNK         0.0600 
    227 H227       -8.9691  -19.4074  -52.4327 H         1 UNK         0.0600 
    228 H228       -9.5374  -20.8224  -53.3066 H         1 UNK         0.0600 
    229 H229       -8.1619  -20.9565  -52.2223 H         1 UNK         0.0600 
    230 H230       -6.3925  -19.9885  -56.2416 H         1 UNK         0.3000 
    231 H231       -5.6908  -21.2614  -57.8715 H         1 UNK         0.0600 
    232 H232       -7.7991  -23.3134  -57.0255 H         1 UNK         0.0600 
    233 H233       -6.9769  -23.2549  -58.5769 H         1 UNK         0.0600 
    234 H234       -8.0590  -21.9510  -58.1146 H         1 UNK         0.0600 
    235 H235       -5.8166  -23.0882  -54.8459 H         1 UNK         0.3000 
    236 H236       -4.1235  -25.2194  -55.5897 H         1 UNK         0.0600 
    237 H237       -5.6385  -25.3862  -53.6938 H         1 UNK         0.0600 
    238 H238       -4.0011  -25.6289  -53.1053 H         1 UNK         0.0600 
    239 H239       -4.8106  -24.0923  -52.8415 H         1 UNK         0.0600 
    240 H240       -3.1479  -22.0023  -55.0965 H         1 UNK         0.3000 
    241 H241       -0.3880  -22.4255  -54.4146 H         1 UNK         0.0600 
    242 H242       -2.1442  -23.1211  -57.4425 H         1 UNK         0.3800 
    243 H243       -0.6960  -23.4073  -58.3760 H         1 UNK         0.3800 
    244 H244       -0.0265  -20.1584  -55.4289 H         1 UNK         0.0800 
    245 H245       -1.6651  -20.1537  -56.0224 H         1 UNK         0.0800 
    246 H246        0.6814  -19.4680  -53.0019 H         1 UNK         0.0800 
    247 H247        0.0768  -18.1292  -53.9540 H         1 UNK         0.0800 
@<TRIPOS>BOND
     1    1    2 1    
     2    1  127 1    
     3    1  128 1    
     4    1  129 1    
     5    2    3 2    
     6    2    4 am   BACKBONE|DICT|INTERRES
     7    4    5 1    
     8    4  130 1    
     9    5    6 1    
    10    5   65 1    
    11    5  131 1    
    12    6    7 1    
    13    6  132 1    
    14    6  133 1    
    15    7    8 1    
    16    8    9 1    
    17    8  134 1    
    18    8  135 1    
    19    9   10 ar   
    20    9   14 ar   
    21   10   11 ar   
    22   10  136 1    
    23   11   12 ar   
    24   11  126 1    
    25   12   13 ar   
    26   12  137 1    
    27   13   14 ar   
    28   13   15 1    
    29   14  138 1    
    30   15   16 1    
    31   15  139 1    
    32   15  140 1    
    33   16   17 1    
    34   17   18 1    
    35   17  141 1    
    36   17  142 1    
    37   18   19 1    
    38   18   67 1    
    39   18  143 1    
    40   19   20 am   BACKBONE|DICT|INTERRES
    41   19  144 1    
    42   20   21 2    
    43   20   22 1    
    44   22   23 1    
    45   22   24 1    
    46   22  145 1    
    47   23  146 1    
    48   23  147 1    
    49   23  148 1    
    50   24   25 am   BACKBONE|DICT|INTERRES
    51   24  149 1    
    52   25   26 2    
    53   25   27 1    
    54   27   28 1    
    55   27   29 1    
    56   27  150 1    
    57   28  151 1    
    58   28  152 1    
    59   28  153 1    
    60   29   30 am   BACKBONE|DICT|INTERRES
    61   29  154 1    
    62   30   31 2    
    63   30   32 1    
    64   32   33 1    
    65   32   34 1    
    66   32  155 1    
    67   33  156 1    
    68   33  157 1    
    69   33  158 1    
    70   34   35 am   BACKBONE|DICT|INTERRES
    71   34  159 1    
    72   35   36 2    
    73   35   37 1    
    74   37   38 1    
    75   37   39 1    
    76   37  160 1    
    77   38  161 1    
    78   38  162 1    
    79   38  163 1    
    80   39   40 am   BACKBONE|DICT|INTERRES
    81   39  164 1    
    82   40   41 2    
    83   40   42 1    
    84   42   43 1    
    85   42   44 1    
    86   42  165 1    
    87   43  166 1    
    88   43  167 1    
    89   43  168 1    
    90   44   45 am   BACKBONE|DICT|INTERRES
    91   44  169 1    
    92   45   46 2    
    93   45   47 1    
    94   47   48 1    
    95   47   49 1    
    96   47  170 1    
    97   48  171 1    
    98   48  172 1    
    99   48  173 1    
   100   49   50 am   BACKBONE|DICT|INTERRES
   101   49  174 1    
   102   50   51 2    
   103   50   52 1    
   104   52   53 1    
   105   52   54 1    
   106   52  175 1    
   107   53  176 1    
   108   53  177 1    
   109   53  178 1    
   110   54   55 am   BACKBONE|DICT|INTERRES
   111   54  179 1    
   112   55   56 2    
   113   55   57 1    
   114   57   58 1    
   115   57   59 1    
   116   57  180 1    
   117   58  181 1    
   118   58  182 1    
   119   58  183 1    
   120   59   60 am   BACKBONE|DICT|INTERRES
   121   59  184 1    
   122   60   61 2    
   123   60   62 1    
   124   62   63 1    
   125   62   64 1    
   126   62  185 1    
   127   63  186 1    
   128   63  187 1    
   129   63  188 1    
   130   64   65 am   BACKBONE|DICT|INTERRES
   131   64  189 1    
   132   65   66 2    
   133   67   68 2    
   134   67   69 am   BACKBONE|DICT|INTERRES
   135   69   70 1    
   136   69  190 1    
   137   70   71 1    
   138   70   72 1    
   139   70  191 1    
   140   71  192 1    
   141   71  193 1    
   142   71  194 1    
   143   72   73 2    
   144   72   74 am   BACKBONE|DICT|INTERRES
   145   74   75 1    
   146   74  195 1    
   147   75   76 1    
   148   75   77 1    
   149   75  196 1    
   150   76  197 1    
   151   76  198 1    
   152   76  199 1    
   153   77   78 2    
   154   77   79 am   BACKBONE|DICT|INTERRES
   155   79   80 1    
   156   79  200 1    
   157   80   81 1    
   158   80   82 1    
   159   80  201 1    
   160   81  202 1    
   161   81  203 1    
   162   81  204 1    
   163   82   83 2    
   164   82   84 am   BACKBONE|DICT|INTERRES
   165   84   85 1    
   166   84  205 1    
   167   85   86 1    
   168   85   87 1    
   169   85  206 1    
   170   86  207 1    
   171   86  208 1    
   172   86  209 1    
   173   87   88 2    
   174   87   89 am   BACKBONE|DICT|INTERRES
   175   89   90 1    
   176   89  210 1    
   177   90   91 1    
   178   90   92 1    
   179   90  211 1    
   180   91  212 1    
   181   91  213 1    
   182   91  214 1    
   183   92   93 2    
   184   92   94 am   BACKBONE|DICT|INTERRES
   185   94   95 1    
   186   94  215 1    
   187   95   96 1    
   188   95   97 1    
   189   95  216 1    
   190   96  217 1    
   191   96  218 1    
   192   96  219 1    
   193   97   98 2    
   194   97   99 am   BACKBONE|DICT|INTERRES
   195   99  100 1    
   196   99  220 1    
   197  100  101 1    
   198  100  102 1    
   199  100  221 1    
   200  101  222 1    
   201  101  223 1    
   202  101  224 1    
   203  102  103 2    
   204  102  104 am   BACKBONE|DICT|INTERRES
   205  104  105 1    
   206  104  225 1    
   207  105  106 1    
   208  105  107 1    
   209  105  226 1    
   210  106  227 1    
   211  106  228 1    
   212  106  229 1    
   213  107  108 2    
   214  107  109 am   BACKBONE|DICT|INTERRES
   215  109  110 1    
   216  109  230 1    
   217  110  111 1    
   218  110  112 1    
   219  110  231 1    
   220  111  232 1    
   221  111  233 1    
   222  111  234 1    
   223  112  113 2    
   224  112  114 am   BACKBONE|DICT|INTERRES
   225  114  115 1    
   226  114  235 1    
   227  115  116 1    
   228  115  117 1    
   229  115  236 1    
   230  116  237 1    
   231  116  238 1    
   232  116  239 1    
   233  117  118 2    
   234  117  119 am   BACKBONE|DICT|INTERRES
   235  119  120 1    
   236  119  240 1    
   237  120  121 1    
   238  120  124 1    
   239  120  241 1    
   240  121  122 am   BACKBONE|DICT|INTERRES
   241  121  123 2    
   242  122  242 1    
   243  122  243 1    
   244  124  125 1    
   245  124  244 1    
   246  124  245 1    
   247  125  126 1    
   248  126  246 1    
   249  126  247 1    
@<TRIPOS>SUBSTRUCTURE
     1 UNK         1 GROUP             0       ****    0 ROOT    
