@<TRIPOS>MOLECULE
3R540
247   249    1
SMALL
USER_CHARGES


@<TRIPOS>ATOM
      1 CA         -0.5097  -12.0458  -52.8548 C.3       0 UNK        -0.1800 
      2 C           0.1530  -11.8958  -51.4925 C.2       0 UNK         0.5000 
      3 O           0.5380  -10.7889  -51.1148 O.2       0 UNK        -0.5000 
      4 N           0.2934  -13.0061  -50.7591 N.am      1 UNK        -0.5000 
      5 CA          0.8708  -13.0627  -49.4143 C.3       1 UNK         0.1400 
      6 C6          1.3910  -14.4807  -49.0725 C.3       23 UNK        -0.0398 
      7 S7          2.8644  -14.9014  -50.0647 S.3       23 UNK        -0.2404 
      8 C8          2.2021  -16.0983  -51.2779 C.3       23 UNK        -0.0205 
      9 C9          1.9120  -17.5013  -50.7402 C.ar      23 UNK        -0.0193 
     10 C10         1.0646  -18.3385  -51.4749 C.ar      23 UNK        -0.1150 
     11 C11         0.7877  -19.6381  -51.0402 C.ar      23 UNK        -0.0193 
     12 C12         1.3671  -20.1035  -49.8597 C.ar      23 UNK        -0.1150 
     13 C13         2.2304  -19.2920  -49.1227 C.ar      23 UNK        -0.0193 
     14 C14         2.4983  -17.9944  -49.5662 C.ar      23 UNK        -0.1150 
     15 C15         2.8554  -19.8067  -47.8363 C.3       23 UNK        -0.0205 
     16 S16         4.0999  -21.1033  -48.1205 S.3       23 UNK        -0.2404 
     17 C17         3.1024  -22.6244  -47.9467 C.3       23 UNK        -0.0398 
     18 CA          3.6030  -23.5396  -46.8020 C.3       11 UNK         0.1400 
     19 N           3.5477  -22.8818  -45.4890 N.am      11 UNK        -0.5000 
     20 C           4.2922  -23.2454  -44.4352 C.2       10 UNK         0.5000 
     21 O           5.1098  -24.1661  -44.4598 O.2       10 UNK        -0.5000 
     22 CA          4.0784  -22.4598  -43.1306 C.3       10 UNK         0.1400 
     23 CB          4.8928  -21.1565  -43.1381 C.3       10 UNK        -0.1800 
     24 N           2.6643  -22.1588  -42.9055 N.am      10 UNK        -0.5000 
     25 C           1.7868  -23.0304  -42.3870 C.2       9 UNK         0.5000 
     26 O           2.0926  -24.1655  -42.0208 O.2       9 UNK        -0.5000 
     27 CA          0.3193  -22.5746  -42.2550 C.3       9 UNK         0.1400 
     28 CB          0.0648  -21.9898  -40.8575 C.3       9 UNK        -0.1800 
     29 N          -0.0935  -21.5929  -43.2558 N.am      9 UNK        -0.5000 
     30 C          -0.1325  -21.8038  -44.5776 C.2       8 UNK         0.5000 
     31 O           0.1535  -22.8709  -45.1213 O.2       8 UNK        -0.5000 
     32 CA         -0.5220  -20.5997  -45.4471 C.3       8 UNK         0.1400 
     33 CB         -2.0470  -20.5074  -45.5209 C.3       8 UNK        -0.1800 
     34 N           0.0150  -19.3139  -44.9902 N.am      8 UNK        -0.5000 
     35 C           1.2979  -19.0446  -44.7037 C.2       7 UNK         0.5000 
     36 O           2.1964  -19.8856  -44.7067 O.2       7 UNK        -0.5000 
     37 CA          1.6218  -17.5936  -44.3252 C.3       7 UNK         0.1400 
     38 CB          1.5682  -16.6767  -45.5596 C.3       7 UNK        -0.1800 
     39 N           0.7032  -17.1209  -43.2911 N.am      7 UNK        -0.5000 
     40 C           0.8266  -17.4326  -41.9920 C.2       6 UNK         0.5000 
     41 O           1.8016  -18.0182  -41.5203 O.2       6 UNK        -0.5000 
     42 CA         -0.3435  -17.0614  -41.0617 C.3       6 UNK         0.1400 
     43 CB         -0.0897  -15.7159  -40.3665 C.3       6 UNK        -0.1800 
     44 N          -1.6313  -17.0221  -41.7562 N.am      6 UNK        -0.5000 
     45 C          -2.2855  -18.1139  -42.1809 C.2       5 UNK         0.5000 
     46 O          -1.8723  -19.2630  -42.0190 O.2       5 UNK        -0.5000 
     47 CA         -3.6020  -17.8857  -42.9510 C.3       5 UNK         0.1400 
     48 CB         -4.7954  -17.8597  -41.9857 C.3       5 UNK        -0.1800 
     49 N          -3.6151  -16.6667  -43.7614 N.am      5 UNK        -0.5000 
     50 C          -2.7490  -16.3765  -44.7416 C.2       4 UNK         0.5000 
     51 O          -1.8208  -17.1179  -45.0653 O.2       4 UNK        -0.5000 
     52 CA         -2.9189  -15.0248  -45.4612 C.3       4 UNK         0.1400 
     53 CB         -4.2541  -14.3088  -45.1589 C.3       4 UNK        -0.1800 
     54 N          -1.8017  -14.1159  -45.2066 N.am      4 UNK        -0.5000 
     55 C          -1.3544  -13.6848  -44.0161 C.2       3 UNK         0.5000 
     56 O          -1.7575  -14.1182  -42.9356 O.2       3 UNK        -0.5000 
     57 CA         -0.2990  -12.5559  -44.0253 C.3       3 UNK         0.1400 
     58 CB          1.0984  -13.0991  -43.6946 C.3       3 UNK        -0.1800 
     59 N          -0.2333  -11.8249  -45.2940 N.am      3 UNK        -0.5000 
     60 C          -1.2036  -11.0375  -45.7794 C.2       2 UNK         0.5000 
     61 O          -2.2157  -10.7368  -45.1456 O.2       2 UNK        -0.5000 
     62 CA         -1.0373  -10.5176  -47.2222 C.3       2 UNK         0.1400 
     63 CB         -0.6226   -9.0380  -47.2130 C.3       2 UNK        -0.1800 
     64 N          -0.0906  -11.2652  -48.0596 N.am      2 UNK        -0.5000 
     65 C          -0.1701  -12.5612  -48.3943 C.2       1 UNK         0.5000 
     66 O          -1.0207  -13.3354  -47.9521 O.2       1 UNK        -0.5000 
     67 C           2.8266  -24.8746  -46.8235 C.2       11 UNK         0.5000 
     68 O           3.0971  -25.7057  -47.6910 O.2       11 UNK        -0.5000 
     69 N           1.8648  -25.0371  -45.9008 N.am      12 UNK        -0.5000 
     70 CA          0.8500  -26.0956  -45.8439 C.3       12 UNK         0.1400 
     71 CB          1.4876  -27.4827  -45.6195 C.3       12 UNK        -0.1800 
     72 C          -0.0859  -26.0306  -47.0697 C.2       12 UNK         0.5000 
     73 O          -0.3316  -27.0418  -47.7307 O.2       12 UNK        -0.5000 
     74 N          -0.5513  -24.8107  -47.3691 N.am      13 UNK        -0.5000 
     75 CA         -1.4012  -24.4885  -48.5149 C.3       13 UNK         0.1400 
     76 CB         -1.3530  -22.9709  -48.7343 C.3       13 UNK        -0.1800 
     77 C          -2.8521  -24.9798  -48.3374 C.2       13 UNK         0.5000 
     78 O          -3.2826  -25.2596  -47.2158 O.2       13 UNK        -0.5000 
     79 N          -3.5886  -25.0620  -49.4541 N.am      14 UNK        -0.5000 
     80 CA         -4.9625  -25.5772  -49.5082 C.3       14 UNK         0.1400 
     81 CB         -5.2726  -26.0041  -50.9524 C.3       14 UNK        -0.1800 
     82 C          -6.0338  -24.5917  -48.9937 C.2       14 UNK         0.5000 
     83 O          -7.1789  -24.9980  -48.7919 O.2       14 UNK        -0.5000 
     84 N          -5.6568  -23.3252  -48.7988 N.am      15 UNK        -0.5000 
     85 CA         -6.4820  -22.2308  -48.2979 C.3       15 UNK         0.1400 
     86 CB         -7.4298  -21.7199  -49.4032 C.3       15 UNK        -0.1800 
     87 C          -5.5409  -21.1396  -47.7580 C.2       15 UNK         0.5000 
     88 O          -4.3271  -21.3555  -47.7149 O.2       15 UNK        -0.5000 
     89 N          -6.0946  -19.9887  -47.3571 N.am      16 UNK        -0.5000 
     90 CA         -5.3920  -18.8616  -46.7303 C.3       16 UNK         0.1400 
     91 CB         -6.4301  -17.9853  -46.0061 C.3       16 UNK        -0.1800 
     92 C          -4.4836  -18.0486  -47.6884 C.2       16 UNK         0.5000 
     93 O          -4.6058  -16.8251  -47.7572 O.2       16 UNK        -0.5000 
     94 N          -3.5709  -18.7525  -48.3708 N.am      17 UNK        -0.5000 
     95 CA         -2.5181  -18.2838  -49.2795 C.3       17 UNK         0.1400 
     96 CB         -1.5069  -17.3940  -48.5288 C.3       17 UNK        -0.1800 
     97 C          -3.0302  -17.6178  -50.5774 C.2       17 UNK         0.5000 
     98 O          -4.2320  -17.4168  -50.7593 O.2       17 UNK        -0.5000 
     99 N          -2.0812  -17.3353  -51.4816 N.am      18 UNK        -0.5000 
    100 CA        -2.2687  -16.7774  -52.8249 C.3       18 UNK         0.1400 
    101 CB        -2.8249  -15.3365  -52.7460 C.3       18 UNK        -0.1800 
    102 C         -3.0584  -17.7250  -53.7595 C.2       18 UNK         0.5000 
    103 O         -2.7528  -18.9215  -53.8139 O.2       18 UNK        -0.5000 
    104 N         -4.0163  -17.1764  -54.5193 N.am      19 UNK        -0.5000 
    105 CA        -4.8616  -17.8936  -55.4756 C.3       19 UNK         0.1400 
    106 CB        -5.7420  -16.8799  -56.2217 C.3       19 UNK        -0.1800 
    107 C         -5.7319  -18.9692  -54.8003 C.2       19 UNK         0.5000 
    108 O         -6.1818  -18.7728  -53.6699 O.2       19 UNK        -0.5000 
    109 N         -5.9305  -20.0942  -55.5009 N.am      20 UNK        -0.5000 
    110 CA        -6.6432  -21.3184  -55.0968 C.3       20 UNK         0.1400 
    111 CB        -8.1138  -21.0319  -54.7366 C.3       20 UNK        -0.1800 
    112 C         -5.9437  -22.1287  -53.9848 C.2       20 UNK         0.5000 
    113 O         -5.9919  -23.3584  -54.0173 O.2       20 UNK        -0.5000 
    114 N         -5.2837  -21.4409  -53.0453 N.am      21 UNK        -0.5000 
    115 CA        -4.4513  -22.0144  -51.9909 C.3       21 UNK         0.1400 
    116 CB        -4.0319  -20.8933  -51.0394 C.3       21 UNK        -0.1800 
    117 C         -3.1968  -22.7080  -52.5444 C.2       21 UNK         0.5000 
    118 O         -2.8229  -23.7738  -52.0519 O.2       21 UNK        -0.5000 
    119 N         -2.5910  -22.0804  -53.5579 N.am      22 UNK        -0.5000 
    120 CA        -1.5022  -22.6206  -54.3779 C.3       22 UNK         0.1400 
    121 C         -1.3633  -21.8973  -55.7470 C.2       22 UNK         0.5000 
    122 N         -1.8259  -20.6600  -55.9038 N.am      22 UNK        -0.7600 
    123 O         -0.8513  -22.4823  -56.6973 O.2       22 UNK        -0.5000 
    124 C124       -0.1524  -22.7614  -53.6192 C.3       23 UNK        -0.0398 
    125 S125        0.7526  -21.2050  -53.3024 S.3       23 UNK        -0.2404 
    126 C126       -0.1175  -20.5526  -51.8484 C.3       23 UNK        -0.0205 
    127 H127        0.0875  -11.5498  -53.6199 H         1 UNK         0.0600 
    128 H128       -1.4991  -11.5887  -52.8430 H         1 UNK         0.0600 
    129 H129       -0.6184  -13.0924  -53.1395 H         1 UNK         0.0600 
    130 H130       -0.0702  -13.8776  -51.1122 H         1 UNK         0.3000 
    131 H131        1.7265  -12.3844  -49.3737 H         1 UNK         0.0600 
    132 H132        1.6818  -14.5401  -48.0222 H         1 UNK         0.0800 
    133 H133        0.6127  -15.2309  -49.2138 H         1 UNK         0.0800 
    134 H134        2.9298  -16.1952  -52.0845 H         1 UNK         0.0800 
    135 H135        1.3019  -15.6790  -51.7287 H         1 UNK         0.0800 
    136 H136        0.6406  -17.9903  -52.4061 H         1 UNK         0.1150 
    137 H137        1.1650  -21.1086  -49.5268 H         1 UNK         0.1150 
    138 H138        3.1742  -17.3778  -48.9926 H         1 UNK         0.1150 
    139 H139        3.3295  -18.9935  -47.2856 H         1 UNK         0.0800 
    140 H140        2.0626  -20.1892  -47.1994 H         1 UNK         0.0800 
    141 H141        2.0515  -22.3776  -47.7926 H         1 UNK         0.0800 
    142 H142        3.1507  -23.1478  -48.9036 H         1 UNK         0.0800 
    143 H143        4.6465  -23.7838  -47.0137 H         1 UNK         0.0600 
    144 H144        2.9244  -22.0913  -45.3933 H         1 UNK         0.3000 
    145 H145        4.4442  -23.0733  -42.3042 H         1 UNK         0.0600 
    146 H146        4.7364  -20.5874  -42.2216 H         1 UNK         0.0600 
    147 H147        4.6306  -20.5154  -43.9798 H         1 UNK         0.0600 
    148 H148        5.9601  -21.3681  -43.2122 H         1 UNK         0.0600 
    149 H149        2.3346  -21.2607  -43.2435 H         1 UNK         0.3000 
    150 H150       -0.3104  -23.4581  -42.3782 H         1 UNK         0.0600 
    151 H151        0.3439  -22.6993  -40.0775 H         1 UNK         0.0600 
    152 H152       -0.9894  -21.7502  -40.7167 H         1 UNK         0.0600 
    153 H153        0.6393  -21.0766  -40.6948 H         1 UNK         0.0600 
    154 H154       -0.3875  -20.6881  -42.9073 H         1 UNK         0.3000 
    155 H155       -0.1399  -20.7764  -46.4538 H         1 UNK         0.0600 
    156 H156       -2.4759  -21.4303  -45.9098 H         1 UNK         0.0600 
    157 H157       -2.3573  -19.6923  -46.1697 H         1 UNK         0.0600 
    158 H158       -2.4834  -20.3452  -44.5373 H         1 UNK         0.0600 
    159 H159       -0.6479  -18.5420  -44.9667 H         1 UNK         0.3000 
    160 H160        2.6438  -17.5715  -43.9404 H         1 UNK         0.0600 
    161 H161        0.5527  -16.5253  -45.9243 H         1 UNK         0.0600 
    162 H162        2.1490  -17.0914  -46.3837 H         1 UNK         0.0600 
    163 H163        1.9953  -15.7018  -45.3371 H         1 UNK         0.0600 
    164 H164       -0.1587  -16.6976  -43.6084 H         1 UNK         0.3000 
    165 H165       -0.3996  -17.8302  -40.2878 H         1 UNK         0.0600 
    166 H166       -0.8869  -15.4800  -39.6616 H         1 UNK         0.0600 
    167 H167        0.8450  -15.7378  -39.8046 H         1 UNK         0.0600 
    168 H168       -0.0220  -14.8969  -41.0808 H         1 UNK         0.0600 
    169 H169       -2.0029  -16.1053  -41.9775 H         1 UNK         0.3000 
    170 H170       -3.7418  -18.7270  -43.6292 H         1 UNK         0.0600 
    171 H171       -4.7407  -17.0125  -41.3009 H         1 UNK         0.0600 
    172 H172       -5.7396  -17.7952  -42.5270 H         1 UNK         0.0600 
    173 H173       -4.8296  -18.7681  -41.3827 H         1 UNK         0.0600 
    174 H174       -4.3213  -15.9824  -43.5335 H         1 UNK         0.3000 
    175 H175       -2.8942  -15.2381  -46.5290 H         1 UNK         0.0600 
    176 H176       -4.3462  -14.0259  -44.1097 H         1 UNK         0.0600 
    177 H177       -4.3431  -13.3974  -45.7505 H         1 UNK         0.0600 
    178 H178       -5.1069  -14.9370  -45.4169 H         1 UNK         0.0600 
    179 H179       -1.3844  -13.7251  -46.0456 H         1 UNK         0.3000 
    180 H180       -0.5825  -11.8513  -43.2408 H         1 UNK         0.0600 
    181 H181        1.8020  -12.2853  -43.5182 H         1 UNK         0.0600 
    182 H182        1.4919  -13.7060  -44.5072 H         1 UNK         0.0600 
    183 H183        1.0866  -13.7158  -42.7960 H         1 UNK         0.0600 
    184 H184        0.5700  -12.0006  -45.8784 H         1 UNK         0.3000 
    185 H185       -2.0167  -10.5928  -47.6989 H         1 UNK         0.0600 
    186 H186       -0.6060   -8.6261  -48.2223 H         1 UNK         0.0600 
    187 H187       -1.3229   -8.4371  -46.6311 H         1 UNK         0.0600 
    188 H188        0.3679   -8.9018  -46.7772 H         1 UNK         0.0600 
    189 H189        0.6198  -10.7080  -48.5143 H         1 UNK         0.3000 
    190 H190        1.6841  -24.2528  -45.2849 H         1 UNK         0.3000 
    191 H191        0.2298  -25.8761  -44.9735 H         1 UNK         0.0600 
    192 H192        0.7199  -28.2373  -45.4449 H         1 UNK         0.0600 
    193 H193        2.1425  -27.4777  -44.7482 H         1 UNK         0.0600 
    194 H194        2.0736  -27.8096  -46.4785 H         1 UNK         0.0600 
    195 H195       -0.3416  -24.0542  -46.7273 H         1 UNK         0.3000 
    196 H196       -0.9806  -24.9777  -49.3963 H         1 UNK         0.0600 
    197 H197       -1.8349  -22.7024  -49.6718 H         1 UNK         0.0600 
    198 H198       -0.3257  -22.6164  -48.7876 H         1 UNK         0.0600 
    199 H199       -1.8531  -22.4296  -47.9325 H         1 UNK         0.0600 
    200 H200       -3.1836  -24.7781  -50.3418 H         1 UNK         0.3000 
    201 H201       -5.0186  -26.4672  -48.8778 H         1 UNK         0.0600 
    202 H202       -4.5549  -26.7433  -51.3083 H         1 UNK         0.0600 
    203 H203       -5.2500  -25.1583  -51.6398 H         1 UNK         0.0600 
    204 H204       -6.2631  -26.4552  -51.0236 H         1 UNK         0.0600 
    205 H205       -4.6760  -23.0896  -48.8788 H         1 UNK         0.3000 
    206 H206       -7.0734  -22.5940  -47.4552 H         1 UNK         0.0600 
    207 H207       -8.0884  -22.5139  -49.7549 H         1 UNK         0.0600 
    208 H208       -8.0721  -20.9172  -49.0408 H         1 UNK         0.0600 
    209 H209       -6.8862  -21.3412  -50.2671 H         1 UNK         0.0600 
    210 H210       -7.0922  -19.8752  -47.4613 H         1 UNK         0.3000 
    211 H211       -4.7353  -19.2712  -45.9610 H         1 UNK         0.0600 
    212 H212       -7.1285  -17.5270  -46.7074 H         1 UNK         0.0600 
    213 H213       -5.9474  -17.1828  -45.4492 H         1 UNK         0.0600 
    214 H214       -7.0071  -18.5678  -45.2877 H         1 UNK         0.0600 
    215 H215       -3.6156  -19.7605  -48.2406 H         1 UNK         0.3000 
    216 H216       -1.9878  -19.1867  -49.5853 H         1 UNK         0.0600 
    217 H217       -0.6063  -17.2378  -49.1206 H         1 UNK         0.0600 
    218 H218       -1.1903  -17.8560  -47.5940 H         1 UNK         0.0600 
    219 H219       -1.9216  -16.4129  -48.2988 H         1 UNK         0.0600 
    220 H220       -1.1293  -17.5805  -51.2521 H         1 UNK         0.3000 
    221 H221       -1.2712  -16.7093  -53.2601 H         1 UNK         0.0600 
    222 H222       -3.8591  -15.3137  -52.4007 H         1 UNK         0.0600 
    223 H223       -2.2384  -14.7299  -52.0563 H         1 UNK         0.0600 
    224 H224       -2.7853  -14.8416  -53.7171 H         1 UNK         0.0600 
    225 H225       -4.2225  -16.1972  -54.3911 H         1 UNK         0.3000 
    226 H226       -4.2024  -18.3797  -56.1979 H         1 UNK         0.0600 
    227 H227       -5.1364  -16.1430  -56.7497 H         1 UNK         0.0600 
    228 H228       -6.3679  -17.3765  -56.9643 H         1 UNK         0.0600 
    229 H229       -6.4044  -16.3449  -55.5397 H         1 UNK         0.0600 
    230 H230       -5.4984  -20.1526  -56.4129 H         1 UNK         0.3000 
    231 H231       -6.6466  -21.9558  -55.9824 H         1 UNK         0.0600 
    232 H232       -8.6602  -21.9620  -54.5758 H         1 UNK         0.0600 
    233 H233       -8.6188  -20.4926  -55.5380 H         1 UNK         0.0600 
    234 H234       -8.2060  -20.4428  -53.8239 H         1 UNK         0.0600 
    235 H235       -5.3554  -20.4283  -53.0777 H         1 UNK         0.3000 
    236 H236       -5.0473  -22.7469  -51.4463 H         1 UNK         0.0600 
    237 H237       -3.3642  -20.1960  -51.5403 H         1 UNK         0.0600 
    238 H238       -4.8853  -20.3235  -50.6745 H         1 UNK         0.0600 
    239 H239       -3.5017  -21.2875  -50.1762 H         1 UNK         0.0600 
    240 H240       -2.9701  -21.1963  -53.8680 H         1 UNK         0.3000 
    241 H241       -1.8162  -23.6337  -54.6374 H         1 UNK         0.0600 
    242 H242       -1.7242  -20.2265  -56.8073 H         1 UNK         0.3800 
    243 H243       -2.1396  -20.0963  -55.1192 H         1 UNK         0.3800 
    244 H244        0.5132  -23.3997  -54.2022 H         1 UNK         0.0800 
    245 H245       -0.2915  -23.2909  -52.6766 H         1 UNK         0.0800 
    246 H246       -1.0019  -20.0080  -52.1752 H         1 UNK         0.0800 
    247 H247       -0.4725  -21.3766  -51.2292 H         1 UNK         0.0800 
@<TRIPOS>BOND
     1    1    2 1    
     2    1  127 1    
     3    1  128 1    
     4    1  129 1    
     5    2    3 2    
     6    2    4 am   BACKBONE|DICT|INTERRES
     7    4    5 1    
     8    4  130 1    
     9    5    6 1    
    10    5   65 1    
    11    5  131 1    
    12    6    7 1    
    13    6  132 1    
    14    6  133 1    
    15    7    8 1    
    16    8    9 1    
    17    8  134 1    
    18    8  135 1    
    19    9   10 ar   
    20    9   14 ar   
    21   10   11 ar   
    22   10  136 1    
    23   11   12 ar   
    24   11  126 1    
    25   12   13 ar   
    26   12  137 1    
    27   13   14 ar   
    28   13   15 1    
    29   14  138 1    
    30   15   16 1    
    31   15  139 1    
    32   15  140 1    
    33   16   17 1    
    34   17   18 1    
    35   17  141 1    
    36   17  142 1    
    37   18   19 1    
    38   18   67 1    
    39   18  143 1    
    40   19   20 am   BACKBONE|DICT|INTERRES
    41   19  144 1    
    42   20   21 2    
    43   20   22 1    
    44   22   23 1    
    45   22   24 1    
    46   22  145 1    
    47   23  146 1    
    48   23  147 1    
    49   23  148 1    
    50   24   25 am   BACKBONE|DICT|INTERRES
    51   24  149 1    
    52   25   26 2    
    53   25   27 1    
    54   27   28 1    
    55   27   29 1    
    56   27  150 1    
    57   28  151 1    
    58   28  152 1    
    59   28  153 1    
    60   29   30 am   BACKBONE|DICT|INTERRES
    61   29  154 1    
    62   30   31 2    
    63   30   32 1    
    64   32   33 1    
    65   32   34 1    
    66   32  155 1    
    67   33  156 1    
    68   33  157 1    
    69   33  158 1    
    70   34   35 am   BACKBONE|DICT|INTERRES
    71   34  159 1    
    72   35   36 2    
    73   35   37 1    
    74   37   38 1    
    75   37   39 1    
    76   37  160 1    
    77   38  161 1    
    78   38  162 1    
    79   38  163 1    
    80   39   40 am   BACKBONE|DICT|INTERRES
    81   39  164 1    
    82   40   41 2    
    83   40   42 1    
    84   42   43 1    
    85   42   44 1    
    86   42  165 1    
    87   43  166 1    
    88   43  167 1    
    89   43  168 1    
    90   44   45 am   BACKBONE|DICT|INTERRES
    91   44  169 1    
    92   45   46 2    
    93   45   47 1    
    94   47   48 1    
    95   47   49 1    
    96   47  170 1    
    97   48  171 1    
    98   48  172 1    
    99   48  173 1    
   100   49   50 am   BACKBONE|DICT|INTERRES
   101   49  174 1    
   102   50   51 2    
   103   50   52 1    
   104   52   53 1    
   105   52   54 1    
   106   52  175 1    
   107   53  176 1    
   108   53  177 1    
   109   53  178 1    
   110   54   55 am   BACKBONE|DICT|INTERRES
   111   54  179 1    
   112   55   56 2    
   113   55   57 1    
   114   57   58 1    
   115   57   59 1    
   116   57  180 1    
   117   58  181 1    
   118   58  182 1    
   119   58  183 1    
   120   59   60 am   BACKBONE|DICT|INTERRES
   121   59  184 1    
   122   60   61 2    
   123   60   62 1    
   124   62   63 1    
   125   62   64 1    
   126   62  185 1    
   127   63  186 1    
   128   63  187 1    
   129   63  188 1    
   130   64   65 am   BACKBONE|DICT|INTERRES
   131   64  189 1    
   132   65   66 2    
   133   67   68 2    
   134   67   69 am   BACKBONE|DICT|INTERRES
   135   69   70 1    
   136   69  190 1    
   137   70   71 1    
   138   70   72 1    
   139   70  191 1    
   140   71  192 1    
   141   71  193 1    
   142   71  194 1    
   143   72   73 2    
   144   72   74 am   BACKBONE|DICT|INTERRES
   145   74   75 1    
   146   74  195 1    
   147   75   76 1    
   148   75   77 1    
   149   75  196 1    
   150   76  197 1    
   151   76  198 1    
   152   76  199 1    
   153   77   78 2    
   154   77   79 am   BACKBONE|DICT|INTERRES
   155   79   80 1    
   156   79  200 1    
   157   80   81 1    
   158   80   82 1    
   159   80  201 1    
   160   81  202 1    
   161   81  203 1    
   162   81  204 1    
   163   82   83 2    
   164   82   84 am   BACKBONE|DICT|INTERRES
   165   84   85 1    
   166   84  205 1    
   167   85   86 1    
   168   85   87 1    
   169   85  206 1    
   170   86  207 1    
   171   86  208 1    
   172   86  209 1    
   173   87   88 2    
   174   87   89 am   BACKBONE|DICT|INTERRES
   175   89   90 1    
   176   89  210 1    
   177   90   91 1    
   178   90   92 1    
   179   90  211 1    
   180   91  212 1    
   181   91  213 1    
   182   91  214 1    
   183   92   93 2    
   184   92   94 am   BACKBONE|DICT|INTERRES
   185   94   95 1    
   186   94  215 1    
   187   95   96 1    
   188   95   97 1    
   189   95  216 1    
   190   96  217 1    
   191   96  218 1    
   192   96  219 1    
   193   97   98 2    
   194   97   99 am   BACKBONE|DICT|INTERRES
   195   99  100 1    
   196   99  220 1    
   197  100  101 1    
   198  100  102 1    
   199  100  221 1    
   200  101  222 1    
   201  101  223 1    
   202  101  224 1    
   203  102  103 2    
   204  102  104 am   BACKBONE|DICT|INTERRES
   205  104  105 1    
   206  104  225 1    
   207  105  106 1    
   208  105  107 1    
   209  105  226 1    
   210  106  227 1    
   211  106  228 1    
   212  106  229 1    
   213  107  108 2    
   214  107  109 am   BACKBONE|DICT|INTERRES
   215  109  110 1    
   216  109  230 1    
   217  110  111 1    
   218  110  112 1    
   219  110  231 1    
   220  111  232 1    
   221  111  233 1    
   222  111  234 1    
   223  112  113 2    
   224  112  114 am   BACKBONE|DICT|INTERRES
   225  114  115 1    
   226  114  235 1    
   227  115  116 1    
   228  115  117 1    
   229  115  236 1    
   230  116  237 1    
   231  116  238 1    
   232  116  239 1    
   233  117  118 2    
   234  117  119 am   BACKBONE|DICT|INTERRES
   235  119  120 1    
   236  119  240 1    
   237  120  121 1    
   238  120  124 1    
   239  120  241 1    
   240  121  122 am   BACKBONE|DICT|INTERRES
   241  121  123 2    
   242  122  242 1    
   243  122  243 1    
   244  124  125 1    
   245  124  244 1    
   246  124  245 1    
   247  125  126 1    
   248  126  246 1    
   249  126  247 1    
@<TRIPOS>SUBSTRUCTURE
     1 UNK         1 GROUP             0       ****    0 ROOT    
