@<TRIPOS>MOLECULE
3R540
247   249    1
SMALL
USER_CHARGES


@<TRIPOS>ATOM
      1 CA          6.5118  -12.5385  -46.0506 C.3       0 UNK        -0.1800 
      2 C           5.3271  -13.4748  -46.2333 C.2       0 UNK         0.5000 
      3 O           4.2675  -13.2445  -45.6506 O.2       0 UNK        -0.5000 
      4 N           5.4864  -14.5199  -47.0558 N.am      1 UNK        -0.5000 
      5 CA          4.4534  -15.5237  -47.3442 C.3       1 UNK         0.1400 
      6 C6          5.0200  -16.7278  -48.1351 C.3       23 UNK        -0.0398 
      7 S7          5.6252  -16.3073  -49.8116 S.3       23 UNK        -0.2404 
      8 C8          4.9057  -17.6327  -50.8331 C.3       23 UNK        -0.0205 
      9 C9          3.3872  -17.5605  -50.9429 C.ar      23 UNK        -0.0193 
     10 C10         2.7795  -16.7021  -51.8669 C.ar      23 UNK        -0.1150 
     11 C11         1.3891  -16.7048  -52.0333 C.ar      23 UNK        -0.0193 
     12 C12         0.6087  -17.5647  -51.2569 C.ar      23 UNK        -0.1150 
     13 C13         1.2005  -18.3978  -50.3067 C.ar      23 UNK        -0.0193 
     14 C14         2.5888  -18.4001  -50.1602 C.ar      23 UNK        -0.1150 
     15 C15         0.3351  -19.2897  -49.4375 C.3       23 UNK        -0.0205 
     16 S16         0.2743  -20.9936  -50.0660 S.3       23 UNK        -0.2404 
     17 C17        -0.9965  -21.6791  -48.9550 C.3       23 UNK        -0.0398 
     18 CA         -0.5245  -22.9090  -48.1437 C.3       11 UNK         0.1400 
     19 N           0.7483  -22.6910  -47.4496 N.am      11 UNK        -0.5000 
     20 C           1.4105  -23.6195  -46.7454 C.2       10 UNK         0.5000 
     21 O           1.0344  -24.7860  -46.6355 O.2       10 UNK        -0.5000 
     22 CA          2.6718  -23.1628  -45.9867 C.3       10 UNK         0.1400 
     23 CB          3.9267  -23.4545  -46.8223 C.3       10 UNK        -0.1800 
     24 N           2.6813  -21.7505  -45.5848 N.am      10 UNK        -0.5000 
     25 C           1.7346  -21.1285  -44.8676 C.2       9 UNK         0.5000 
     26 O           0.6721  -21.6592  -44.5321 O.2       9 UNK        -0.5000 
     27 CA          2.0162  -19.6548  -44.5176 C.3       9 UNK         0.1400 
     28 CB          1.8456  -18.7626  -45.7575 C.3       9 UNK        -0.1800 
     29 N           1.1336  -19.1560  -43.4662 N.am      9 UNK        -0.5000 
     30 C           1.1319  -19.5411  -42.1864 C.2       8 UNK         0.5000 
     31 O           1.9645  -20.3145  -41.7102 O.2       8 UNK        -0.5000 
     32 CA          0.0214  -18.9776  -41.2715 C.3       8 UNK         0.1400 
     33 CB          0.4697  -17.6561  -40.6184 C.3       8 UNK        -0.1800 
     34 N          -1.3160  -18.8362  -41.8752 N.am      8 UNK        -0.5000 
     35 C          -1.7080  -18.0436  -42.8828 C.2       7 UNK         0.5000 
     36 O          -0.9429  -17.3368  -43.5382 O.2       7 UNK        -0.5000 
     37 CA         -3.2115  -18.0242  -43.1909 C.3       7 UNK         0.1400 
     38 CB         -3.9391  -17.0612  -42.2395 C.3       7 UNK        -0.1800 
     39 N          -3.4247  -17.5695  -44.5627 N.am      7 UNK        -0.5000 
     40 C          -4.0657  -18.2582  -45.5138 C.2       6 UNK         0.5000 
     41 O          -4.5919  -19.3528  -45.3138 O.2       6 UNK        -0.5000 
     42 CA         -4.1722  -17.6294  -46.9210 C.3       6 UNK         0.1400 
     43 CB         -5.6362  -17.2915  -47.2485 C.3       6 UNK        -0.1800 
     44 N          -3.3685  -16.4210  -47.1141 N.am      6 UNK        -0.5000 
     45 C          -2.0360  -16.3901  -47.2343 C.2       5 UNK         0.5000 
     46 O          -1.3269  -17.3930  -47.1536 O.2       5 UNK        -0.5000 
     47 CA         -1.3814  -15.0215  -47.5109 C.3       5 UNK         0.1400 
     48 CB         -2.3710  -13.8447  -47.6812 C.3       5 UNK        -0.1800 
     49 N          -0.3786  -14.6875  -46.5036 N.am      5 UNK        -0.5000 
     50 C          -0.5766  -14.4409  -45.2006 C.2       4 UNK         0.5000 
     51 O          -1.6684  -14.5316  -44.6361 O.2       4 UNK        -0.5000 
     52 CA          0.6462  -13.9084  -44.4237 C.3       4 UNK         0.1400 
     53 CB          1.6232  -15.0332  -44.0516 C.3       4 UNK        -0.1800 
     54 N           1.3707  -12.8900  -45.1865 N.am      4 UNK        -0.5000 
     55 C           0.8831  -11.6861  -45.5207 C.2       3 UNK         0.5000 
     56 O          -0.1863  -11.2374  -45.1066 O.2       3 UNK        -0.5000 
     57 CA          1.7175  -10.8601  -46.5149 C.3       3 UNK         0.1400 
     58 CB          2.8309  -10.0821  -45.7960 C.3       3 UNK        -0.1800 
     59 N           2.2975  -11.7128  -47.5536 N.am      3 UNK        -0.5000 
     60 C           1.6202  -12.1693  -48.6178 C.2       2 UNK         0.5000 
     61 O           0.4645  -11.8398  -48.8816 O.2       2 UNK        -0.5000 
     62 CA          2.3468  -13.1624  -49.5440 C.3       2 UNK         0.1400 
     63 CB          2.9488  -12.4344  -50.7549 C.3       2 UNK        -0.1800 
     64 N           3.4058  -13.9063  -48.8670 N.am      2 UNK        -0.5000 
     65 C           3.1997  -14.9183  -48.0134 C.2       1 UNK         0.5000 
     66 O           2.0852  -15.3353  -47.7062 O.2       1 UNK        -0.5000 
     67 C          -1.6546  -23.3367  -47.1859 C.2       11 UNK         0.5000 
     68 O          -2.5100  -24.1265  -47.5843 O.2       11 UNK        -0.5000 
     69 N          -1.6463  -22.8136  -45.9509 N.am      12 UNK        -0.5000 
     70 CA         -2.6323  -23.1368  -44.9207 C.3       12 UNK         0.1400 
     71 CB         -2.5824  -22.0744  -43.8116 C.3       12 UNK        -0.1800 
     72 C          -2.4097  -24.5451  -44.3442 C.2       12 UNK         0.5000 
     73 O          -3.3807  -25.2550  -44.0841 O.2       12 UNK        -0.5000 
     74 N          -1.1359  -24.9348  -44.1920 N.am      13 UNK        -0.5000 
     75 CA         -0.7205  -26.2629  -43.7382 C.3       13 UNK         0.1400 
     76 CB          0.7628  -26.2243  -43.3391 C.3       13 UNK        -0.1800 
     77 C          -0.9758  -27.3464  -44.8020 C.2       13 UNK         0.5000 
     78 O          -1.4268  -28.4409  -44.4634 O.2       13 UNK        -0.5000 
     79 N          -0.7074  -27.0101  -46.0709 N.am      14 UNK        -0.5000 
     80 CA         -0.9385  -27.8672  -47.2353 C.3       14 UNK         0.1400 
     81 CB         -0.1234  -27.3148  -48.4159 C.3       14 UNK        -0.1800 
     82 C          -2.4237  -27.9859  -47.6330 C.2       14 UNK         0.5000 
     83 O          -2.7641  -28.8813  -48.4066 O.2       14 UNK        -0.5000 
     84 N          -3.2634  -27.0651  -47.1341 N.am      15 UNK        -0.5000 
     85 CA         -4.6738  -26.8534  -47.4865 C.3       15 UNK         0.1400 
     86 CB         -5.5401  -28.0725  -47.1085 C.3       15 UNK        -0.1800 
     87 C          -4.8628  -26.4032  -48.9533 C.2       15 UNK         0.5000 
     88 O          -5.9153  -26.6372  -49.5491 O.2       15 UNK        -0.5000 
     89 N          -3.8364  -25.7386  -49.4978 N.am      16 UNK        -0.5000 
     90 CA         -3.8055  -25.1485  -50.8338 C.3       16 UNK         0.1400 
     91 CB         -2.3556  -25.1586  -51.3416 C.3       16 UNK        -0.1800 
     92 C          -4.3572  -23.7124  -50.8453 C.2       16 UNK         0.5000 
     93 O          -4.6506  -23.1941  -51.9221 O.2       16 UNK        -0.5000 
     94 N          -4.4936  -23.0945  -49.6612 N.am      17 UNK        -0.5000 
     95 CA         -4.9241  -21.7101  -49.4282 C.3       17 UNK         0.1400 
     96 CB         -4.9108  -21.4383  -47.9173 C.3       17 UNK        -0.1800 
     97 C          -6.2910  -21.3184  -50.0248 C.2       17 UNK         0.5000 
     98 O          -6.5504  -20.1282  -50.1946 O.2       17 UNK        -0.5000 
     99 N          -7.1316  -22.3099  -50.3497 N.am      18 UNK        -0.5000 
    100 CA        -8.3856  -22.1287  -51.0830 C.3       18 UNK         0.1400 
    101 CB        -9.1754  -23.4459  -51.0521 C.3       18 UNK        -0.1800 
    102 C         -8.1726  -21.6600  -52.5383 C.2       18 UNK         0.5000 
    103 O         -9.0378  -20.9713  -53.0806 O.2       18 UNK        -0.5000 
    104 N         -7.0314  -22.0320  -53.1339 N.am      19 UNK        -0.5000 
    105 CA        -6.5978  -21.6082  -54.4633 C.3       19 UNK         0.1400 
    106 CB        -6.1525  -22.8397  -55.2686 C.3       19 UNK        -0.1800 
    107 C         -5.4539  -20.5898  -54.3448 C.2       19 UNK         0.5000 
    108 O         -5.5268  -19.5133  -54.9386 O.2       19 UNK        -0.5000 
    109 N         -4.4318  -20.9237  -53.5460 N.am      20 UNK        -0.5000 
    110 CA        -3.2532  -20.1023  -53.2700 C.3       20 UNK         0.1400 
    111 CB        -2.0725  -21.0317  -52.9387 C.3       20 UNK        -0.1800 
    112 C         -3.5360  -19.0779  -52.1533 C.2       20 UNK         0.5000 
    113 O         -2.8280  -19.0370  -51.1468 O.2       20 UNK        -0.5000 
    114 N         -4.5947  -18.2819  -52.3412 N.am      21 UNK        -0.5000 
    115 CA        -5.0663  -17.2884  -51.3773 C.3       21 UNK         0.1400 
    116 CB        -6.5166  -16.9135  -51.7174 C.3       21 UNK        -0.1800 
    117 C         -4.1821  -16.0294  -51.3214 C.2       21 UNK         0.5000 
    118 O         -4.1749  -15.3491  -50.2983 O.2       21 UNK        -0.5000 
    119 N         -3.4657  -15.7400  -52.4171 N.am      22 UNK        -0.5000 
    120 CA        -2.5725  -14.5807  -52.5977 C.3       22 UNK         0.1400 
    121 C         -3.2884  -13.1954  -52.6838 C.2       22 UNK         0.5000 
    122 N         -4.6014  -13.1406  -52.8728 N.am      22 UNK        -0.7600 
    123 O         -2.6474  -12.1508  -52.6133 O.2       22 UNK        -0.5000 
    124 C124       -1.3655  -14.5932  -51.6103 C.3       23 UNK        -0.0398 
    125 S125        0.2168  -14.2013  -52.4350 S.3       23 UNK        -0.2404 
    126 C126        0.7332  -15.8227  -53.0871 C.3       23 UNK        -0.0205 
    127 H127        6.8119  -12.5158  -45.0031 H         1 UNK         0.0600 
    128 H128        6.2386  -11.5267  -46.3499 H         1 UNK         0.0600 
    129 H129        7.3707  -12.8504  -46.6452 H         1 UNK         0.0600 
    130 H130        6.3712  -14.6558  -47.5246 H         1 UNK         0.3000 
    131 H131        4.1242  -15.9099  -46.3769 H         1 UNK         0.0600 
    132 H132        5.8503  -17.1685  -47.5818 H         1 UNK         0.0800 
    133 H133        4.2677  -17.5132  -48.1900 H         1 UNK         0.0800 
    134 H134        5.2142  -18.6001  -50.4335 H         1 UNK         0.0800 
    135 H135        5.3382  -17.5721  -51.8328 H         1 UNK         0.0800 
    136 H136        3.3923  -16.0527  -52.4763 H         1 UNK         0.1150 
    137 H137       -0.4628  -17.5966  -51.3925 H         1 UNK         0.1150 
    138 H138        3.0449  -19.0719  -49.4472 H         1 UNK         0.1150 
    139 H139        0.7137  -19.2886  -48.4162 H         1 UNK         0.0800 
    140 H140       -0.6777  -18.8854  -49.3896 H         1 UNK         0.0800 
    141 H141       -1.8524  -21.9468  -49.5755 H         1 UNK         0.0800 
    142 H142       -1.3504  -20.8930  -48.2845 H         1 UNK         0.0800 
    143 H143       -0.3639  -23.7321  -48.8424 H         1 UNK         0.0600 
    144 H144        1.1334  -21.7603  -47.4989 H         1 UNK         0.3000 
    145 H145        2.7251  -23.7571  -45.0724 H         1 UNK         0.0600 
    146 H146        4.8356  -23.2458  -46.2577 H         1 UNK         0.0600 
    147 H147        3.9649  -24.5039  -47.1183 H         1 UNK         0.0600 
    148 H148        3.9507  -22.8554  -47.7336 H         1 UNK         0.0600 
    149 H149        3.5124  -21.2330  -45.8315 H         1 UNK         0.3000 
    150 H150        3.0464  -19.5783  -44.1646 H         1 UNK         0.0600 
    151 H151        0.8109  -18.7559  -46.1014 H         1 UNK         0.0600 
    152 H152        2.4705  -19.0975  -46.5860 H         1 UNK         0.0600 
    153 H153        2.1271  -17.7331  -45.5429 H         1 UNK         0.0600 
    154 H154        0.4084  -18.4996  -43.7471 H         1 UNK         0.3000 
    155 H155       -0.1033  -19.7059  -40.4686 H         1 UNK         0.0600 
    156 H156        0.6083  -16.8640  -41.3539 H         1 UNK         0.0600 
    157 H157        1.4177  -17.7821  -40.0940 H         1 UNK         0.0600 
    158 H158       -0.2616  -17.3100  -39.8881 H         1 UNK         0.0600 
    159 H159       -2.0273  -19.3978  -41.4286 H         1 UNK         0.3000 
    160 H160       -3.6049  -19.0320  -43.0446 H         1 UNK         0.0600 
    161 H161       -3.5620  -16.0419  -42.3357 H         1 UNK         0.0600 
    162 H162       -3.8114  -17.3629  -41.1992 H         1 UNK         0.0600 
    163 H163       -5.0098  -17.0423  -42.4431 H         1 UNK         0.0600 
    164 H164       -2.9351  -16.7197  -44.8157 H         1 UNK         0.3000 
    165 H165       -3.8279  -18.3790  -47.6369 H         1 UNK         0.0600 
    166 H166       -5.7349  -16.8770  -48.2515 H         1 UNK         0.0600 
    167 H167       -6.2654  -18.1814  -47.2045 H         1 UNK         0.0600 
    168 H168       -6.0460  -16.5652  -46.5455 H         1 UNK         0.0600 
    169 H169       -3.8763  -15.5526  -47.2002 H         1 UNK         0.3000 
    170 H170       -0.8370  -15.1314  -48.4501 H         1 UNK         0.0600 
    171 H171       -3.0356  -14.0005  -48.5277 H         1 UNK         0.0600 
    172 H172       -2.9902  -13.6885  -46.7977 H         1 UNK         0.0600 
    173 H173       -1.8367  -12.9141  -47.8713 H         1 UNK         0.0600 
    174 H174        0.5787  -14.7008  -46.8471 H         1 UNK         0.3000 
    175 H175        0.2844  -13.4506  -43.5009 H         1 UNK         0.0600 
    176 H176        1.1292  -15.8093  -43.4698 H         1 UNK         0.0600 
    177 H177        2.0469  -15.5025  -44.9380 H         1 UNK         0.0600 
    178 H178        2.4493  -14.6537  -43.4502 H         1 UNK         0.0600 
    179 H179        2.2968  -13.1428  -45.5164 H         1 UNK         0.3000 
    180 H180        1.0540  -10.1319  -46.9866 H         1 UNK         0.0600 
    181 H181        3.5216  -10.7436  -45.2735 H         1 UNK         0.0600 
    182 H182        2.4101   -9.4010  -45.0553 H         1 UNK         0.0600 
    183 H183        3.4085   -9.4812  -46.4984 H         1 UNK         0.0600 
    184 H184        3.2278  -12.0664  -47.3814 H         1 UNK         0.3000 
    185 H185        1.6052  -13.8784  -49.9026 H         1 UNK         0.0600 
    186 H186        2.1815  -11.8806  -51.2975 H         1 UNK         0.0600 
    187 H187        3.7199  -11.7232  -50.4569 H         1 UNK         0.0600 
    188 H188        3.3926  -13.1416  -51.4562 H         1 UNK         0.0600 
    189 H189        4.3572  -13.6343  -49.0670 H         1 UNK         0.3000 
    190 H190       -0.8737  -22.2208  -45.6625 H         1 UNK         0.3000 
    191 H191       -3.6263  -23.1078  -45.3727 H         1 UNK         0.0600 
    192 H192       -2.7076  -21.0731  -44.2227 H         1 UNK         0.0600 
    193 H193       -3.3811  -22.2322  -43.0861 H         1 UNK         0.0600 
    194 H194       -1.6371  -22.0958  -43.2685 H         1 UNK         0.0600 
    195 H195       -0.4029  -24.2909  -44.4529 H         1 UNK         0.3000 
    196 H196       -1.3040  -26.5198  -42.8515 H         1 UNK         0.0600 
    197 H197        1.0893  -27.1943  -42.9620 H         1 UNK         0.0600 
    198 H198        0.9400  -25.4928  -42.5505 H         1 UNK         0.0600 
    199 H199        1.4039  -25.9690  -44.1833 H         1 UNK         0.0600 
    200 H200       -0.2611  -26.1144  -46.2524 H         1 UNK         0.3000 
    201 H201       -0.5761  -28.8712  -47.0057 H         1 UNK         0.0600 
    202 H202       -0.2343  -27.9439  -49.3000 H         1 UNK         0.0600 
    203 H203        0.9396  -27.2751  -48.1771 H         1 UNK         0.0600 
    204 H204       -0.4426  -26.3077  -48.6872 H         1 UNK         0.0600 
    205 H205       -2.8645  -26.3643  -46.5245 H         1 UNK         0.3000 
    206 H206       -5.0074  -26.0147  -46.8736 H         1 UNK         0.0600 
    207 H207       -5.3736  -28.3675  -46.0724 H         1 UNK         0.0600 
    208 H208       -6.6012  -27.8438  -47.2133 H         1 UNK         0.0600 
    209 H209       -5.3302  -28.9344  -47.7420 H         1 UNK         0.0600 
    210 H210       -3.0558  -25.5169  -48.8895 H         1 UNK         0.3000 
    211 H211       -4.4154  -25.7475  -51.5130 H         1 UNK         0.0600 
    212 H212       -1.7030  -24.5529  -50.7125 H         1 UNK         0.0600 
    213 H213       -2.2934  -24.7614  -52.3557 H         1 UNK         0.0600 
    214 H214       -1.9533  -26.1717  -51.3641 H         1 UNK         0.0600 
    215 H215       -4.1942  -23.6053  -48.8401 H         1 UNK         0.3000 
    216 H216       -4.1851  -21.0584  -49.8961 H         1 UNK         0.0600 
    217 H217       -5.3161  -20.4517  -47.6931 H         1 UNK         0.0600 
    218 H218       -3.8990  -21.4633  -47.5161 H         1 UNK         0.0600 
    219 H219       -5.5100  -22.1670  -47.3704 H         1 UNK         0.0600 
    220 H220       -6.8452  -23.2596  -50.1640 H         1 UNK         0.3000 
    221 H221       -8.9723  -21.3634  -50.5704 H         1 UNK         0.0600 
    222 H222       -8.6260  -24.2560  -51.5335 H         1 UNK         0.0600 
    223 H223       -9.3953  -23.7504  -50.0287 H         1 UNK         0.0600 
    224 H224      -10.1291  -23.3417  -51.5712 H         1 UNK         0.0600 
    225 H225       -6.3568  -22.5667  -52.5962 H         1 UNK         0.3000 
    226 H226       -7.4176  -21.1303  -55.0035 H         1 UNK         0.0600 
    227 H227       -5.8029  -22.5520  -56.2609 H         1 UNK         0.0600 
    228 H228       -5.3412  -23.3773  -54.7761 H         1 UNK         0.0600 
    229 H229       -6.9790  -23.5373  -55.4046 H         1 UNK         0.0600 
    230 H230       -4.4754  -21.8086  -53.0453 H         1 UNK         0.3000 
    231 H231       -2.9897  -19.5395  -54.1678 H         1 UNK         0.0600 
    232 H232       -2.2591  -21.6142  -52.0363 H         1 UNK         0.0600 
    233 H233       -1.1582  -20.4589  -52.7782 H         1 UNK         0.0600 
    234 H234       -1.8788  -21.7302  -53.7527 H         1 UNK         0.0600 
    235 H235       -5.1348  -18.4007  -53.1904 H         1 UNK         0.3000 
    236 H236       -5.0547  -17.7434  -50.3849 H         1 UNK         0.0600 
    237 H237       -7.1654  -17.7893  -51.6873 H         1 UNK         0.0600 
    238 H238       -6.9123  -16.1932  -51.0001 H         1 UNK         0.0600 
    239 H239       -6.5972  -16.4701  -52.7105 H         1 UNK         0.0600 
    240 H240       -3.5567  -16.3531  -53.2139 H         1 UNK         0.3000 
    241 H241       -2.1803  -14.7272  -53.6044 H         1 UNK         0.0600 
    242 H242       -5.0546  -12.2427  -52.9385 H         1 UNK         0.3800 
    243 H243       -5.1468  -13.9838  -52.9436 H         1 UNK         0.3800 
    244 H244       -1.5166  -13.8848  -50.7938 H         1 UNK         0.0800 
    245 H245       -1.2705  -15.5590  -51.1195 H         1 UNK         0.0800 
    246 H246       -0.1252  -16.3338  -53.5257 H         1 UNK         0.0800 
    247 H247        1.4327  -15.6565  -53.9077 H         1 UNK         0.0800 
@<TRIPOS>BOND
     1    1    2 1    
     2    1  127 1    
     3    1  128 1    
     4    1  129 1    
     5    2    3 2    
     6    2    4 am   BACKBONE|DICT|INTERRES
     7    4    5 1    
     8    4  130 1    
     9    5    6 1    
    10    5   65 1    
    11    5  131 1    
    12    6    7 1    
    13    6  132 1    
    14    6  133 1    
    15    7    8 1    
    16    8    9 1    
    17    8  134 1    
    18    8  135 1    
    19    9   10 ar   
    20    9   14 ar   
    21   10   11 ar   
    22   10  136 1    
    23   11   12 ar   
    24   11  126 1    
    25   12   13 ar   
    26   12  137 1    
    27   13   14 ar   
    28   13   15 1    
    29   14  138 1    
    30   15   16 1    
    31   15  139 1    
    32   15  140 1    
    33   16   17 1    
    34   17   18 1    
    35   17  141 1    
    36   17  142 1    
    37   18   19 1    
    38   18   67 1    
    39   18  143 1    
    40   19   20 am   BACKBONE|DICT|INTERRES
    41   19  144 1    
    42   20   21 2    
    43   20   22 1    
    44   22   23 1    
    45   22   24 1    
    46   22  145 1    
    47   23  146 1    
    48   23  147 1    
    49   23  148 1    
    50   24   25 am   BACKBONE|DICT|INTERRES
    51   24  149 1    
    52   25   26 2    
    53   25   27 1    
    54   27   28 1    
    55   27   29 1    
    56   27  150 1    
    57   28  151 1    
    58   28  152 1    
    59   28  153 1    
    60   29   30 am   BACKBONE|DICT|INTERRES
    61   29  154 1    
    62   30   31 2    
    63   30   32 1    
    64   32   33 1    
    65   32   34 1    
    66   32  155 1    
    67   33  156 1    
    68   33  157 1    
    69   33  158 1    
    70   34   35 am   BACKBONE|DICT|INTERRES
    71   34  159 1    
    72   35   36 2    
    73   35   37 1    
    74   37   38 1    
    75   37   39 1    
    76   37  160 1    
    77   38  161 1    
    78   38  162 1    
    79   38  163 1    
    80   39   40 am   BACKBONE|DICT|INTERRES
    81   39  164 1    
    82   40   41 2    
    83   40   42 1    
    84   42   43 1    
    85   42   44 1    
    86   42  165 1    
    87   43  166 1    
    88   43  167 1    
    89   43  168 1    
    90   44   45 am   BACKBONE|DICT|INTERRES
    91   44  169 1    
    92   45   46 2    
    93   45   47 1    
    94   47   48 1    
    95   47   49 1    
    96   47  170 1    
    97   48  171 1    
    98   48  172 1    
    99   48  173 1    
   100   49   50 am   BACKBONE|DICT|INTERRES
   101   49  174 1    
   102   50   51 2    
   103   50   52 1    
   104   52   53 1    
   105   52   54 1    
   106   52  175 1    
   107   53  176 1    
   108   53  177 1    
   109   53  178 1    
   110   54   55 am   BACKBONE|DICT|INTERRES
   111   54  179 1    
   112   55   56 2    
   113   55   57 1    
   114   57   58 1    
   115   57   59 1    
   116   57  180 1    
   117   58  181 1    
   118   58  182 1    
   119   58  183 1    
   120   59   60 am   BACKBONE|DICT|INTERRES
   121   59  184 1    
   122   60   61 2    
   123   60   62 1    
   124   62   63 1    
   125   62   64 1    
   126   62  185 1    
   127   63  186 1    
   128   63  187 1    
   129   63  188 1    
   130   64   65 am   BACKBONE|DICT|INTERRES
   131   64  189 1    
   132   65   66 2    
   133   67   68 2    
   134   67   69 am   BACKBONE|DICT|INTERRES
   135   69   70 1    
   136   69  190 1    
   137   70   71 1    
   138   70   72 1    
   139   70  191 1    
   140   71  192 1    
   141   71  193 1    
   142   71  194 1    
   143   72   73 2    
   144   72   74 am   BACKBONE|DICT|INTERRES
   145   74   75 1    
   146   74  195 1    
   147   75   76 1    
   148   75   77 1    
   149   75  196 1    
   150   76  197 1    
   151   76  198 1    
   152   76  199 1    
   153   77   78 2    
   154   77   79 am   BACKBONE|DICT|INTERRES
   155   79   80 1    
   156   79  200 1    
   157   80   81 1    
   158   80   82 1    
   159   80  201 1    
   160   81  202 1    
   161   81  203 1    
   162   81  204 1    
   163   82   83 2    
   164   82   84 am   BACKBONE|DICT|INTERRES
   165   84   85 1    
   166   84  205 1    
   167   85   86 1    
   168   85   87 1    
   169   85  206 1    
   170   86  207 1    
   171   86  208 1    
   172   86  209 1    
   173   87   88 2    
   174   87   89 am   BACKBONE|DICT|INTERRES
   175   89   90 1    
   176   89  210 1    
   177   90   91 1    
   178   90   92 1    
   179   90  211 1    
   180   91  212 1    
   181   91  213 1    
   182   91  214 1    
   183   92   93 2    
   184   92   94 am   BACKBONE|DICT|INTERRES
   185   94   95 1    
   186   94  215 1    
   187   95   96 1    
   188   95   97 1    
   189   95  216 1    
   190   96  217 1    
   191   96  218 1    
   192   96  219 1    
   193   97   98 2    
   194   97   99 am   BACKBONE|DICT|INTERRES
   195   99  100 1    
   196   99  220 1    
   197  100  101 1    
   198  100  102 1    
   199  100  221 1    
   200  101  222 1    
   201  101  223 1    
   202  101  224 1    
   203  102  103 2    
   204  102  104 am   BACKBONE|DICT|INTERRES
   205  104  105 1    
   206  104  225 1    
   207  105  106 1    
   208  105  107 1    
   209  105  226 1    
   210  106  227 1    
   211  106  228 1    
   212  106  229 1    
   213  107  108 2    
   214  107  109 am   BACKBONE|DICT|INTERRES
   215  109  110 1    
   216  109  230 1    
   217  110  111 1    
   218  110  112 1    
   219  110  231 1    
   220  111  232 1    
   221  111  233 1    
   222  111  234 1    
   223  112  113 2    
   224  112  114 am   BACKBONE|DICT|INTERRES
   225  114  115 1    
   226  114  235 1    
   227  115  116 1    
   228  115  117 1    
   229  115  236 1    
   230  116  237 1    
   231  116  238 1    
   232  116  239 1    
   233  117  118 2    
   234  117  119 am   BACKBONE|DICT|INTERRES
   235  119  120 1    
   236  119  240 1    
   237  120  121 1    
   238  120  124 1    
   239  120  241 1    
   240  121  122 am   BACKBONE|DICT|INTERRES
   241  121  123 2    
   242  122  242 1    
   243  122  243 1    
   244  124  125 1    
   245  124  244 1    
   246  124  245 1    
   247  125  126 1    
   248  126  246 1    
   249  126  247 1    
@<TRIPOS>SUBSTRUCTURE
     1 UNK         1 GROUP             0       ****    0 ROOT    
