@<TRIPOS>MOLECULE
3R540
247   249    1
SMALL
USER_CHARGES


@<TRIPOS>ATOM
      1 CA          5.6099  -10.1553  -47.0446 C.3       0 UNK        -0.1800 
      2 C           4.3576  -10.9835  -46.8011 C.2       0 UNK         0.5000 
      3 O           3.6919  -10.8007  -45.7785 O.2       0 UNK        -0.5000 
      4 N           4.0213  -11.8825  -47.7378 N.am      1 UNK        -0.5000 
      5 CA          2.8623  -12.7850  -47.6951 C.3       1 UNK         0.1400 
      6 C6          3.0791  -14.0403  -48.5796 C.3       23 UNK        -0.0398 
      7 S7          2.1265  -15.4631  -47.9524 S.3       23 UNK        -0.2404 
      8 C8          0.9330  -15.7371  -49.3019 C.3       23 UNK        -0.0205 
      9 C9          1.4402  -16.7106  -50.3538 C.ar      23 UNK        -0.0193 
     10 C10         1.3431  -16.3825  -51.7073 C.ar      23 UNK        -0.1150 
     11 C11         1.7276  -17.2958  -52.6924 C.ar      23 UNK        -0.0193 
     12 C12         2.2467  -18.5370  -52.3104 C.ar      23 UNK        -0.1150 
     13 C13         2.3379  -18.8838  -50.9591 C.ar      23 UNK        -0.0193 
     14 C14         1.9357  -17.9659  -49.9858 C.ar      23 UNK        -0.1150 
     15 C15         2.8529  -20.2566  -50.5553 C.3       23 UNK        -0.0205 
     16 S16         1.4843  -21.4323  -50.3004 S.3       23 UNK        -0.2404 
     17 C17         0.9473  -21.0256  -48.6009 C.3       23 UNK        -0.0398 
     18 CA          0.4676  -22.2610  -47.8008 C.3       11 UNK         0.1400 
     19 N           0.3940  -21.9760  -46.3641 N.am      11 UNK        -0.5000 
     20 C           0.1445  -22.8869  -45.4122 C.2       10 UNK         0.5000 
     21 O          -0.0205  -24.0846  -45.6369 O.2       10 UNK        -0.5000 
     22 CA          0.0101  -22.3716  -43.9689 C.3       10 UNK         0.1400 
     23 CB          1.3910  -22.0996  -43.3544 C.3       10 UNK        -0.1800 
     24 N          -0.8267  -21.1752  -43.8708 N.am      10 UNK        -0.5000 
     25 C          -2.1268  -21.1325  -44.1982 C.2       9 UNK         0.5000 
     26 O          -2.7669  -22.1083  -44.5862 O.2       9 UNK        -0.5000 
     27 CA         -2.8215  -19.7618  -44.1297 C.3       9 UNK         0.1400 
     28 CB         -3.1895  -19.4050  -42.6821 C.3       9 UNK        -0.1800 
     29 N          -2.0146  -18.6910  -44.7115 N.am      9 UNK        -0.5000 
     30 C          -1.6037  -18.6492  -45.9869 C.2       8 UNK         0.5000 
     31 O          -1.8853  -19.4987  -46.8319 O.2       8 UNK        -0.5000 
     32 CA         -0.6635  -17.4940  -46.3626 C.3       8 UNK         0.1400 
     33 CB         -1.4384  -16.1745  -46.5124 C.3       8 UNK        -0.1800 
     34 N           0.4161  -17.3322  -45.3900 N.am      8 UNK        -0.5000 
     35 C           1.3598  -18.2543  -45.1510 C.2       7 UNK         0.5000 
     36 O           1.4518  -19.3184  -45.7635 O.2       7 UNK        -0.5000 
     37 CA          2.3259  -17.9635  -43.9916 C.3       7 UNK         0.1400 
     38 CB          3.4972  -17.0856  -44.4585 C.3       7 UNK        -0.1800 
     39 N           1.6388  -17.3312  -42.8638 N.am      7 UNK        -0.5000 
     40 C           0.7684  -17.9688  -42.0656 C.2       6 UNK         0.5000 
     41 O           0.4912  -19.1622  -42.1772 O.2       6 UNK        -0.5000 
     42 CA          0.0557  -17.1288  -40.9888 C.3       6 UNK         0.1400 
     43 CB          0.9133  -17.0405  -39.7179 C.3       6 UNK        -0.1800 
     44 N          -0.2714  -15.7786  -41.4463 N.am      6 UNK        -0.5000 
     45 C          -1.1317  -15.4955  -42.4348 C.2       5 UNK         0.5000 
     46 O          -1.7963  -16.3479  -43.0226 O.2       5 UNK        -0.5000 
     47 CA         -1.2249  -14.0212  -42.8756 C.3       5 UNK         0.1400 
     48 CB         -2.3695  -13.3073  -42.1431 C.3       5 UNK        -0.1800 
     49 N           0.0187  -13.2727  -42.6712 N.am      5 UNK        -0.5000 
     50 C           1.1900  -13.5522  -43.2562 C.2       4 UNK         0.5000 
     51 O           1.3387  -14.4756  -44.0583 O.2       4 UNK        -0.5000 
     52 CA          2.3779  -12.6498  -42.8674 C.3       4 UNK         0.1400 
     53 CB          3.7215  -13.1859  -43.3934 C.3       4 UNK        -0.1800 
     54 N           2.1813  -11.2858  -43.3544 N.am      4 UNK        -0.5000 
     55 C           1.3797  -10.3668  -42.7951 C.2       3 UNK         0.5000 
     56 O           0.7579  -10.5512  -41.7476 O.2       3 UNK        -0.5000 
     57 CA          1.2048   -9.0466  -43.5674 C.3       3 UNK         0.1400 
     58 CB          2.4161   -8.1251  -43.3579 C.3       3 UNK        -0.1800 
     59 N           1.0270   -9.2985  -44.9970 N.am      3 UNK        -0.5000 
     60 C          -0.0932   -9.7936  -45.5482 C.2       2 UNK         0.5000 
     61 O          -1.1545   -9.9367  -44.9415 O.2       2 UNK        -0.5000 
     62 CA          0.0273  -10.2835  -46.9972 C.3       2 UNK         0.1400 
     63 CB          0.0677   -9.1155  -47.9976 C.3       2 UNK        -0.1800 
     64 N           1.2375  -11.0880  -47.0869 N.am      2 UNK        -0.5000 
     65 C           1.5372  -12.0337  -47.9752 C.2       1 UNK         0.5000 
     66 O           0.8428  -12.2947  -48.9579 O.2       1 UNK        -0.5000 
     67 C          -0.8695  -22.8142  -48.3392 C.2       11 UNK         0.5000 
     68 O          -0.8783  -23.8552  -49.0001 O.2       11 UNK        -0.5000 
     69 N          -1.9753  -22.1355  -47.9988 N.am      12 UNK        -0.5000 
     70 CA         -3.3370  -22.5332  -48.3512 C.3       12 UNK         0.1400 
     71 CB         -4.3240  -21.4455  -47.9021 C.3       12 UNK        -0.1800 
     72 C          -3.7290  -23.9065  -47.7777 C.2       12 UNK         0.5000 
     73 O          -4.3081  -24.7156  -48.5000 O.2       12 UNK        -0.5000 
     74 N          -3.3775  -24.1623  -46.5098 N.am      13 UNK        -0.5000 
     75 CA         -3.6092  -25.4354  -45.8275 C.3       13 UNK         0.1400 
     76 CB         -3.3407  -25.2740  -44.3237 C.3       13 UNK        -0.1800 
     77 C          -2.7729  -26.5912  -46.4047 C.2       13 UNK         0.5000 
     78 O          -3.3027  -27.6904  -46.5679 O.2       13 UNK        -0.5000 
     79 N          -1.4938  -26.3271  -46.7089 N.am      14 UNK        -0.5000 
     80 CA         -0.5531  -27.3021  -47.2645 C.3       14 UNK         0.1400 
     81 CB          0.8698  -26.7226  -47.2452 C.3       14 UNK        -0.1800 
     82 C          -0.9328  -27.7587  -48.6829 C.2       14 UNK         0.5000 
     83 O          -0.8967  -28.9572  -48.9650 O.2       14 UNK        -0.5000 
     84 N          -1.3048  -26.8009  -49.5423 N.am      15 UNK        -0.5000 
     85 CA         -1.7726  -27.0651  -50.9045 C.3       15 UNK         0.1400 
     86 CB         -1.5858  -25.7961  -51.7429 C.3       15 UNK        -0.1800 
     87 C          -3.2347  -27.5539  -50.9561 C.2       15 UNK         0.5000 
     88 O          -3.6253  -28.1857  -51.9385 O.2       15 UNK        -0.5000 
     89 N          -4.0116  -27.2488  -49.9074 N.am      16 UNK        -0.5000 
     90 CA         -5.4069  -27.6069  -49.6255 C.3       16 UNK         0.1400 
     91 CB         -5.5977  -29.1342  -49.5713 C.3       16 UNK        -0.1800 
     92 C          -6.4400  -26.9424  -50.5547 C.2       16 UNK         0.5000 
     93 O          -7.4175  -26.3740  -50.0671 O.2       16 UNK        -0.5000 
     94 N          -6.2141  -27.0224  -51.8699 N.am      17 UNK        -0.5000 
     95 CA         -7.0833  -26.4681  -52.9097 C.3       17 UNK         0.1400 
     96 CB         -6.9033  -27.3031  -54.1873 C.3       17 UNK        -0.1800 
     97 C          -6.8090  -24.9794  -53.1998 C.2       17 UNK         0.5000 
     98 O          -7.6123  -24.3383  -53.8797 O.2       17 UNK        -0.5000 
     99 N          -5.6757  -24.4580  -52.7131 N.am      18 UNK        -0.5000 
    100 CA        -5.2006  -23.0993  -52.9577 C.3       18 UNK         0.1400 
    101 CB        -3.6789  -23.0667  -52.7668 C.3       18 UNK        -0.1800 
    102 C         -5.9143  -22.0734  -52.0602 C.2       18 UNK         0.5000 
    103 O         -5.3458  -21.6108  -51.0683 O.2       18 UNK        -0.5000 
    104 N         -7.1545  -21.7297  -52.4263 N.am      19 UNK        -0.5000 
    105 CA        -7.9260  -20.6431  -51.8248 C.3       19 UNK         0.1400 
    106 CB        -9.3318  -20.6135  -52.4447 C.3       19 UNK        -0.1800 
    107 C         -7.2000  -19.2966  -52.0144 C.2       19 UNK         0.5000 
    108 O         -6.9498  -18.9003  -53.1545 O.2       19 UNK        -0.5000 
    109 N         -6.8461  -18.6565  -50.8917 N.am      20 UNK        -0.5000 
    110 CA        -6.0135  -17.4512  -50.7877 C.3       20 UNK         0.1400 
    111 CB        -6.6755  -16.2426  -51.4848 C.3       20 UNK        -0.1800 
    112 C         -4.5430  -17.6743  -51.2146 C.2       20 UNK         0.5000 
    113 O         -3.8874  -16.7276  -51.6533 O.2       20 UNK        -0.5000 
    114 N         -4.0463  -18.9080  -51.0301 N.am      21 UNK        -0.5000 
    115 CA        -2.6772  -19.3691  -51.2837 C.3       21 UNK         0.1400 
    116 CB        -1.6651  -18.5936  -50.4116 C.3       21 UNK        -0.1800 
    117 C         -2.3027  -19.3953  -52.7832 C.2       21 UNK         0.5000 
    118 O         -3.1876  -19.4000  -53.6420 O.2       21 UNK        -0.5000 
    119 N         -0.9949  -19.4784  -53.0645 N.am      22 UNK        -0.5000 
    120 CA        -0.3951  -19.6088  -54.4059 C.3       22 UNK         0.1400 
    121 C         -0.6923  -20.9677  -55.1090 C.2       22 UNK         0.5000 
    122 N         -0.8362  -22.0592  -54.3680 N.am      22 UNK        -0.7600 
    123 O         -0.7636  -21.0500  -56.3325 O.2       22 UNK        -0.5000 
    124 C124       -0.6317  -18.3790  -55.3291 C.3       23 UNK        -0.0398 
    125 S125       -0.1986  -16.7529  -54.6138 S.3       23 UNK        -0.2404 
    126 C126        1.5616  -16.9318  -54.1618 C.3       23 UNK        -0.0205 
    127 H127        6.0949  -10.4192  -47.9846 H         1 UNK         0.0600 
    128 H128        6.3239  -10.3124  -46.2363 H         1 UNK         0.0600 
    129 H129        5.3569   -9.0957  -47.0764 H         1 UNK         0.0600 
    130 H130        4.5915  -11.9517  -48.5688 H         1 UNK         0.3000 
    131 H131        2.7916  -13.1370  -46.6633 H         1 UNK         0.0600 
    132 H132        2.8602  -13.8462  -49.6309 H         1 UNK         0.0800 
    133 H133        4.1274  -14.3403  -48.5484 H         1 UNK         0.0800 
    134 H134        0.6600  -14.7828  -49.7526 H         1 UNK         0.0800 
    135 H135        0.0084  -16.1401  -48.8961 H         1 UNK         0.0800 
    136 H136        0.9365  -15.4250  -52.0014 H         1 UNK         0.1150 
    137 H137        2.5646  -19.2444  -53.0628 H         1 UNK         0.1150 
    138 H138        1.9928  -18.2329  -48.9398 H         1 UNK         0.1150 
    139 H139        3.5066  -20.6499  -51.3353 H         1 UNK         0.0800 
    140 H140        3.4688  -20.1848  -49.6577 H         1 UNK         0.0800 
    141 H141        0.1786  -20.2530  -48.6302 H         1 UNK         0.0800 
    142 H142        1.7953  -20.5788  -48.0815 H         1 UNK         0.0800 
    143 H143        1.2151  -23.0483  -47.9206 H         1 UNK         0.0600 
    144 H144        0.5486  -21.0105  -46.0870 H         1 UNK         0.3000 
    145 H145       -0.4696  -23.1576  -43.3821 H         1 UNK         0.0600 
    146 H146        1.9098  -21.2907  -43.8687 H         1 UNK         0.0600 
    147 H147        1.3069  -21.8277  -42.3022 H         1 UNK         0.0600 
    148 H148        2.0250  -22.9854  -43.4110 H         1 UNK         0.0600 
    149 H149       -0.3806  -20.3373  -43.5107 H         1 UNK         0.3000 
    150 H150       -3.7449  -19.8290  -44.7085 H         1 UNK         0.0600 
    151 H151       -3.8144  -20.1796  -42.2358 H         1 UNK         0.0600 
    152 H152       -3.7476  -18.4697  -42.6367 H         1 UNK         0.0600 
    153 H153       -2.3038  -19.2957  -42.0561 H         1 UNK         0.0600 
    154 H154       -1.7665  -17.9231  -44.0931 H         1 UNK         0.3000 
    155 H155       -0.2062  -17.7447  -47.3208 H         1 UNK         0.0600 
    156 H156       -1.9993  -15.9246  -45.6126 H         1 UNK         0.0600 
    157 H157       -0.7698  -15.3403  -46.7255 H         1 UNK         0.0600 
    158 H158       -2.1538  -16.2393  -47.3331 H         1 UNK         0.0600 
    159 H159        0.4352  -16.4730  -44.8561 H         1 UNK         0.3000 
    160 H160        2.7363  -18.9159  -43.6497 H         1 UNK         0.0600 
    161 H161        4.0658  -17.5870  -45.2426 H         1 UNK         0.0600 
    162 H162        3.1584  -16.1336  -44.8667 H         1 UNK         0.0600 
    163 H163        4.1860  -16.8754  -43.6403 H         1 UNK         0.0600 
    164 H164        1.7600  -16.3332  -42.7635 H         1 UNK         0.3000 
    165 H165       -0.8784  -17.6348  -40.7365 H         1 UNK         0.0600 
    166 H166        0.3860  -16.5142  -38.9221 H         1 UNK         0.0600 
    167 H167        1.1566  -18.0353  -39.3422 H         1 UNK         0.0600 
    168 H168        1.8539  -16.5193  -39.9005 H         1 UNK         0.0600 
    169 H169        0.2254  -15.0155  -41.0116 H         1 UNK         0.3000 
    170 H170       -1.4445  -14.0128  -43.9452 H         1 UNK         0.0600 
    171 H171       -3.3163  -13.8269  -42.2972 H         1 UNK         0.0600 
    172 H172       -2.1913  -13.2588  -41.0682 H         1 UNK         0.0600 
    173 H173       -2.4954  -12.2881  -42.5094 H         1 UNK         0.0600 
    174 H174       -0.0247  -12.4614  -42.0640 H         1 UNK         0.3000 
    175 H175        2.4353  -12.6315  -41.7771 H         1 UNK         0.0600 
    176 H176        3.7352  -13.2545  -44.4809 H         1 UNK         0.0600 
    177 H177        4.5482  -12.5434  -43.0900 H         1 UNK         0.0600 
    178 H178        3.9238  -14.1832  -43.0010 H         1 UNK         0.0600 
    179 H179        2.6804  -11.0468  -44.2064 H         1 UNK         0.3000 
    180 H180        0.3166   -8.5404  -43.1831 H         1 UNK         0.0600 
    181 H181        3.3353   -8.5703  -43.7415 H         1 UNK         0.0600 
    182 H182        2.5687   -7.9172  -42.2981 H         1 UNK         0.0600 
    183 H183        2.2732   -7.1678  -43.8593 H         1 UNK         0.0600 
    184 H184        1.8508   -9.1899  -45.5714 H         1 UNK         0.3000 
    185 H185       -0.8359  -10.9154  -47.2168 H         1 UNK         0.0600 
    186 H186        0.1024   -9.4777  -49.0251 H         1 UNK         0.0600 
    187 H187       -0.8219   -8.4917  -47.9031 H         1 UNK         0.0600 
    188 H188        0.9375   -8.4770  -47.8395 H         1 UNK         0.0600 
    189 H189        1.9172  -10.9442  -46.3466 H         1 UNK         0.3000 
    190 H190       -1.8839  -21.2793  -47.4567 H         1 UNK         0.3000 
    191 H191       -3.3846  -22.6050  -49.4385 H         1 UNK         0.0600 
    192 H192       -4.2973  -21.2970  -46.8224 H         1 UNK         0.0600 
    193 H193       -5.3461  -21.7103  -48.1755 H         1 UNK         0.0600 
    194 H194       -4.0982  -20.4906  -48.3771 H         1 UNK         0.0600 
    195 H195       -2.9466  -23.4246  -45.9585 H         1 UNK         0.3000 
    196 H196       -4.6624  -25.6948  -45.9546 H         1 UNK         0.0600 
    197 H197       -3.5103  -26.2112  -43.7922 H         1 UNK         0.0600 
    198 H198       -4.0019  -24.5272  -43.8840 H         1 UNK         0.0600 
    199 H199       -2.3126  -24.9661  -44.1295 H         1 UNK         0.0600 
    200 H200       -1.1164  -25.4071  -46.4968 H         1 UNK         0.3000 
    201 H201       -0.5661  -28.1829  -46.6193 H         1 UNK         0.0600 
    202 H202        1.1918  -26.5056  -46.2267 H         1 UNK         0.0600 
    203 H203        0.9362  -25.7985  -47.8209 H         1 UNK         0.0600 
    204 H204        1.5866  -27.4274  -47.6684 H         1 UNK         0.0600 
    205 H205       -1.2685  -25.8290  -49.2471 H         1 UNK         0.3000 
    206 H206       -1.1549  -27.8504  -51.3456 H         1 UNK         0.0600 
    207 H207       -0.5297  -25.5467  -51.8470 H         1 UNK         0.0600 
    208 H208       -1.9948  -25.9162  -52.7468 H         1 UNK         0.0600 
    209 H209       -2.0786  -24.9476  -51.2736 H         1 UNK         0.0600 
    210 H210       -3.6065  -26.6403  -49.2067 H         1 UNK         0.3000 
    211 H211       -5.6022  -27.2240  -48.6224 H         1 UNK         0.0600 
    212 H212       -5.4291  -29.6041  -50.5405 H         1 UNK         0.0600 
    213 H213       -6.6116  -29.3875  -49.2594 H         1 UNK         0.0600 
    214 H214       -4.9138  -29.5885  -48.8542 H         1 UNK         0.0600 
    215 H215       -5.3731  -27.5079  -52.1724 H         1 UNK         0.3000 
    216 H216       -8.1244  -26.5536  -52.5916 H         1 UNK         0.0600 
    217 H217       -7.5544  -26.9450  -54.9858 H         1 UNK         0.0600 
    218 H218       -7.1523  -28.3498  -54.0119 H         1 UNK         0.0600 
    219 H219       -5.8771  -27.2593  -54.5545 H         1 UNK         0.0600 
    220 H220       -5.1004  -25.0415  -52.1250 H         1 UNK         0.3000 
    221 H221       -5.4042  -22.8347  -53.9977 H         1 UNK         0.0600 
    222 H222       -3.3998  -23.2520  -51.7311 H         1 UNK         0.0600 
    223 H223       -3.1821  -23.8030  -53.3979 H         1 UNK         0.0600 
    224 H224       -3.2861  -22.0896  -53.0393 H         1 UNK         0.0600 
    225 H225       -7.5626  -22.1948  -53.2273 H         1 UNK         0.3000 
    226 H226       -8.0275  -20.8527  -50.7579 H         1 UNK         0.0600 
    227 H227       -9.8583  -21.5526  -52.2732 H         1 UNK         0.0600 
    228 H228       -9.9341  -19.8174  -52.0053 H         1 UNK         0.0600 
    229 H229       -9.2946  -20.4417  -53.5212 H         1 UNK         0.0600 
    230 H230       -7.0945  -19.0803  -50.0084 H         1 UNK         0.3000 
    231 H231       -5.9713  -17.2178  -49.7229 H         1 UNK         0.0600 
    232 H232       -6.1501  -15.3180  -51.2431 H         1 UNK         0.0600 
    233 H233       -7.7099  -16.1190  -51.1645 H         1 UNK         0.0600 
    234 H234       -6.6683  -16.3438  -52.5702 H         1 UNK         0.0600 
    235 H235       -4.6907  -19.6431  -50.7610 H         1 UNK         0.3000 
    236 H236       -2.6583  -20.4091  -50.9543 H         1 UNK         0.0600 
    237 H237       -0.6879  -19.0724  -50.4216 H         1 UNK         0.0600 
    238 H238       -1.9895  -18.5528  -49.3723 H         1 UNK         0.0600 
    239 H239       -1.5278  -17.5695  -50.7599 H         1 UNK         0.0600 
    240 H240       -0.3358  -19.4538  -52.3000 H         1 UNK         0.3000 
    241 H241        0.6772  -19.6624  -54.2395 H         1 UNK         0.0600 
    242 H242       -1.0105  -22.9406  -54.8233 H         1 UNK         0.3800 
    243 H243       -0.7471  -22.0194  -53.3662 H         1 UNK         0.3800 
    244 H244       -0.0594  -18.4872  -56.2519 H         1 UNK         0.0800 
    245 H245       -1.6785  -18.3384  -55.6332 H         1 UNK         0.0800 
    246 H246        2.0460  -17.6619  -54.8116 H         1 UNK         0.0800 
    247 H247        2.0658  -15.9818  -54.3441 H         1 UNK         0.0800 
@<TRIPOS>BOND
     1    1    2 1    
     2    1  127 1    
     3    1  128 1    
     4    1  129 1    
     5    2    3 2    
     6    2    4 am   BACKBONE|DICT|INTERRES
     7    4    5 1    
     8    4  130 1    
     9    5    6 1    
    10    5   65 1    
    11    5  131 1    
    12    6    7 1    
    13    6  132 1    
    14    6  133 1    
    15    7    8 1    
    16    8    9 1    
    17    8  134 1    
    18    8  135 1    
    19    9   10 ar   
    20    9   14 ar   
    21   10   11 ar   
    22   10  136 1    
    23   11   12 ar   
    24   11  126 1    
    25   12   13 ar   
    26   12  137 1    
    27   13   14 ar   
    28   13   15 1    
    29   14  138 1    
    30   15   16 1    
    31   15  139 1    
    32   15  140 1    
    33   16   17 1    
    34   17   18 1    
    35   17  141 1    
    36   17  142 1    
    37   18   19 1    
    38   18   67 1    
    39   18  143 1    
    40   19   20 am   BACKBONE|DICT|INTERRES
    41   19  144 1    
    42   20   21 2    
    43   20   22 1    
    44   22   23 1    
    45   22   24 1    
    46   22  145 1    
    47   23  146 1    
    48   23  147 1    
    49   23  148 1    
    50   24   25 am   BACKBONE|DICT|INTERRES
    51   24  149 1    
    52   25   26 2    
    53   25   27 1    
    54   27   28 1    
    55   27   29 1    
    56   27  150 1    
    57   28  151 1    
    58   28  152 1    
    59   28  153 1    
    60   29   30 am   BACKBONE|DICT|INTERRES
    61   29  154 1    
    62   30   31 2    
    63   30   32 1    
    64   32   33 1    
    65   32   34 1    
    66   32  155 1    
    67   33  156 1    
    68   33  157 1    
    69   33  158 1    
    70   34   35 am   BACKBONE|DICT|INTERRES
    71   34  159 1    
    72   35   36 2    
    73   35   37 1    
    74   37   38 1    
    75   37   39 1    
    76   37  160 1    
    77   38  161 1    
    78   38  162 1    
    79   38  163 1    
    80   39   40 am   BACKBONE|DICT|INTERRES
    81   39  164 1    
    82   40   41 2    
    83   40   42 1    
    84   42   43 1    
    85   42   44 1    
    86   42  165 1    
    87   43  166 1    
    88   43  167 1    
    89   43  168 1    
    90   44   45 am   BACKBONE|DICT|INTERRES
    91   44  169 1    
    92   45   46 2    
    93   45   47 1    
    94   47   48 1    
    95   47   49 1    
    96   47  170 1    
    97   48  171 1    
    98   48  172 1    
    99   48  173 1    
   100   49   50 am   BACKBONE|DICT|INTERRES
   101   49  174 1    
   102   50   51 2    
   103   50   52 1    
   104   52   53 1    
   105   52   54 1    
   106   52  175 1    
   107   53  176 1    
   108   53  177 1    
   109   53  178 1    
   110   54   55 am   BACKBONE|DICT|INTERRES
   111   54  179 1    
   112   55   56 2    
   113   55   57 1    
   114   57   58 1    
   115   57   59 1    
   116   57  180 1    
   117   58  181 1    
   118   58  182 1    
   119   58  183 1    
   120   59   60 am   BACKBONE|DICT|INTERRES
   121   59  184 1    
   122   60   61 2    
   123   60   62 1    
   124   62   63 1    
   125   62   64 1    
   126   62  185 1    
   127   63  186 1    
   128   63  187 1    
   129   63  188 1    
   130   64   65 am   BACKBONE|DICT|INTERRES
   131   64  189 1    
   132   65   66 2    
   133   67   68 2    
   134   67   69 am   BACKBONE|DICT|INTERRES
   135   69   70 1    
   136   69  190 1    
   137   70   71 1    
   138   70   72 1    
   139   70  191 1    
   140   71  192 1    
   141   71  193 1    
   142   71  194 1    
   143   72   73 2    
   144   72   74 am   BACKBONE|DICT|INTERRES
   145   74   75 1    
   146   74  195 1    
   147   75   76 1    
   148   75   77 1    
   149   75  196 1    
   150   76  197 1    
   151   76  198 1    
   152   76  199 1    
   153   77   78 2    
   154   77   79 am   BACKBONE|DICT|INTERRES
   155   79   80 1    
   156   79  200 1    
   157   80   81 1    
   158   80   82 1    
   159   80  201 1    
   160   81  202 1    
   161   81  203 1    
   162   81  204 1    
   163   82   83 2    
   164   82   84 am   BACKBONE|DICT|INTERRES
   165   84   85 1    
   166   84  205 1    
   167   85   86 1    
   168   85   87 1    
   169   85  206 1    
   170   86  207 1    
   171   86  208 1    
   172   86  209 1    
   173   87   88 2    
   174   87   89 am   BACKBONE|DICT|INTERRES
   175   89   90 1    
   176   89  210 1    
   177   90   91 1    
   178   90   92 1    
   179   90  211 1    
   180   91  212 1    
   181   91  213 1    
   182   91  214 1    
   183   92   93 2    
   184   92   94 am   BACKBONE|DICT|INTERRES
   185   94   95 1    
   186   94  215 1    
   187   95   96 1    
   188   95   97 1    
   189   95  216 1    
   190   96  217 1    
   191   96  218 1    
   192   96  219 1    
   193   97   98 2    
   194   97   99 am   BACKBONE|DICT|INTERRES
   195   99  100 1    
   196   99  220 1    
   197  100  101 1    
   198  100  102 1    
   199  100  221 1    
   200  101  222 1    
   201  101  223 1    
   202  101  224 1    
   203  102  103 2    
   204  102  104 am   BACKBONE|DICT|INTERRES
   205  104  105 1    
   206  104  225 1    
   207  105  106 1    
   208  105  107 1    
   209  105  226 1    
   210  106  227 1    
   211  106  228 1    
   212  106  229 1    
   213  107  108 2    
   214  107  109 am   BACKBONE|DICT|INTERRES
   215  109  110 1    
   216  109  230 1    
   217  110  111 1    
   218  110  112 1    
   219  110  231 1    
   220  111  232 1    
   221  111  233 1    
   222  111  234 1    
   223  112  113 2    
   224  112  114 am   BACKBONE|DICT|INTERRES
   225  114  115 1    
   226  114  235 1    
   227  115  116 1    
   228  115  117 1    
   229  115  236 1    
   230  116  237 1    
   231  116  238 1    
   232  116  239 1    
   233  117  118 2    
   234  117  119 am   BACKBONE|DICT|INTERRES
   235  119  120 1    
   236  119  240 1    
   237  120  121 1    
   238  120  124 1    
   239  120  241 1    
   240  121  122 am   BACKBONE|DICT|INTERRES
   241  121  123 2    
   242  122  242 1    
   243  122  243 1    
   244  124  125 1    
   245  124  244 1    
   246  124  245 1    
   247  125  126 1    
   248  126  246 1    
   249  126  247 1    
@<TRIPOS>SUBSTRUCTURE
     1 UNK         1 GROUP             0       ****    0 ROOT    
