@<TRIPOS>MOLECULE
3R540
247   249    1
SMALL
USER_CHARGES


@<TRIPOS>ATOM
      1 CA          0.5966  -14.2189  -51.5099 C.3       0 UNK        -0.1800 
      2 C           1.8328  -13.7908  -50.7345 C.2       0 UNK         0.5000 
      3 O           1.9996  -12.6065  -50.4407 O.2       0 UNK        -0.5000 
      4 N           2.7029  -14.7558  -50.4169 N.am      1 UNK        -0.5000 
      5 CA          3.9849  -14.5779  -49.7296 C.3       1 UNK         0.1400 
      6 C6          4.9031  -15.8190  -49.8922 C.3       23 UNK        -0.0398 
      7 S7          5.1973  -16.2391  -51.6470 S.3       23 UNK        -0.2404 
      8 C8          5.2546  -18.0672  -51.6107 C.3       23 UNK        -0.0205 
      9 C9          3.9771  -18.7737  -51.1497 C.ar      23 UNK        -0.0193 
     10 C10         2.7087  -18.1894  -51.2604 C.ar      23 UNK        -0.1150 
     11 C11         1.5702  -18.8581  -50.8000 C.ar      23 UNK        -0.0193 
     12 C12         1.6941  -20.1459  -50.2743 C.ar      23 UNK        -0.1150 
     13 C13         2.9466  -20.7606  -50.1966 C.ar      23 UNK        -0.0193 
     14 C14         4.0812  -20.0648  -50.6225 C.ar      23 UNK        -0.1150 
     15 C15         3.0732  -22.1916  -49.6974 C.3       23 UNK        -0.0205 
     16 S16         3.6373  -22.3000  -47.9677 S.3       23 UNK        -0.2404 
     17 C17         2.2397  -21.6017  -47.0237 C.3       23 UNK        -0.0398 
     18 CA          1.1861  -22.6630  -46.6144 C.3       11 UNK         0.1400 
     19 N           0.4856  -22.3131  -45.3752 N.am      11 UNK        -0.5000 
     20 C          -0.3831  -23.1112  -44.7352 C.2       10 UNK         0.5000 
     21 O          -0.6483  -24.2596  -45.0908 O.2       10 UNK        -0.5000 
     22 CA         -1.1229  -22.5085  -43.5268 C.3       10 UNK         0.1400 
     23 CB         -0.2405  -22.5363  -42.2702 C.3       10 UNK        -0.1800 
     24 N          -1.5840  -21.1426  -43.7759 N.am      10 UNK        -0.5000 
     25 C          -2.4735  -20.7996  -44.7183 C.2       9 UNK         0.5000 
     26 O          -3.0478  -21.6074  -45.4477 O.2       9 UNK        -0.5000 
     27 CA         -2.7121  -19.2947  -44.9278 C.3       9 UNK         0.1400 
     28 CB         -3.6766  -18.7257  -43.8771 C.3       9 UNK        -0.1800 
     29 N          -1.4629  -18.5332  -44.9288 N.am      9 UNK        -0.5000 
     30 C          -0.4918  -18.6711  -45.8437 C.2       8 UNK         0.5000 
     31 O          -0.5717  -19.4099  -46.8247 O.2       8 UNK        -0.5000 
     32 CA          0.8033  -17.8843  -45.5964 C.3       8 UNK         0.1400 
     33 CB          0.6640  -16.4472  -46.1101 C.3       8 UNK        -0.1800 
     34 N           1.1728  -17.8737  -44.1804 N.am      8 UNK        -0.5000 
     35 C           1.6116  -18.9538  -43.5168 C.2       7 UNK         0.5000 
     36 O           1.7678  -20.0555  -44.0404 O.2       7 UNK        -0.5000 
     37 CA          1.8740  -18.7952  -42.0079 C.3       7 UNK         0.1400 
     38 CB          3.2830  -18.2362  -41.7609 C.3       7 UNK        -0.1800 
     39 N           0.8919  -17.9373  -41.3467 N.am      7 UNK        -0.5000 
     40 C          -0.4240  -18.1854  -41.2773 C.2       6 UNK         0.5000 
     41 O          -0.9467  -19.2107  -41.7128 O.2       6 UNK        -0.5000 
     42 CA         -1.3086  -17.0834  -40.6610 C.3       6 UNK         0.1400 
     43 CB         -1.5995  -17.3907  -39.1849 C.3       6 UNK        -0.1800 
     44 N          -0.7227  -15.7428  -40.7700 N.am      6 UNK        -0.5000 
     45 C          -0.4999  -15.1032  -41.9259 C.2       5 UNK         0.5000 
     46 O          -0.7849  -15.5725  -43.0304 O.2       5 UNK        -0.5000 
     47 CA          0.2471  -13.7641  -41.8230 C.3       5 UNK         0.1400 
     48 CB          1.7619  -13.9974  -41.9447 C.3       5 UNK        -0.1800 
     49 N          -0.1792  -12.8376  -42.8682 N.am      5 UNK        -0.5000 
     50 C          -1.2710  -12.0638  -42.7910 C.2       4 UNK         0.5000 
     51 O          -2.0137  -12.0374  -41.8082 O.2       4 UNK        -0.5000 
     52 CA         -1.5872  -11.1440  -43.9897 C.3       4 UNK         0.1400 
     53 CB         -1.1074   -9.7119  -43.7066 C.3       4 UNK        -0.1800 
     54 N          -0.9974  -11.5956  -45.2496 N.am      4 UNK        -0.5000 
     55 C          -1.4050  -12.6687  -45.9390 C.2       3 UNK         0.5000 
     56 O          -2.3847  -13.3434  -45.6238 O.2       3 UNK        -0.5000 
     57 CA         -0.5938  -13.0544  -47.1947 C.3       3 UNK         0.1400 
     58 CB         -1.3171  -12.5461  -48.4511 C.3       3 UNK        -0.1800 
     59 N           0.8039  -12.5988  -47.2380 N.am      3 UNK        -0.5000 
     60 C           1.7445  -12.7826  -46.2976 C.2       2 UNK         0.5000 
     61 O           1.5216  -13.2717  -45.1907 O.2       2 UNK        -0.5000 
     62 CA          3.1726  -12.3451  -46.6813 C.3       2 UNK         0.1400 
     63 CB          4.2131  -12.6152  -45.5732 C.3       2 UNK        -0.1800 
     64 N           3.5855  -12.9312  -47.9614 N.am      2 UNK        -0.5000 
     65 C           3.7430  -14.2329  -48.2461 C.2       1 UNK         0.5000 
     66 O           3.6620  -15.1399  -47.4175 O.2       1 UNK        -0.5000 
     67 C           0.1948  -22.9394  -47.7609 C.2       11 UNK         0.5000 
     68 O           0.2872  -23.9853  -48.4000 O.2       11 UNK        -0.5000 
     69 N          -0.7562  -22.0195  -47.9756 N.am      12 UNK        -0.5000 
     70 CA         -1.8081  -22.1256  -48.9871 C.3       12 UNK         0.1400 
     71 CB         -2.6273  -20.8297  -48.9975 C.3       12 UNK        -0.1800 
     72 C          -2.7206  -23.3486  -48.7911 C.2       12 UNK         0.5000 
     73 O          -3.0664  -24.0054  -49.7730 O.2       12 UNK        -0.5000 
     74 N          -3.0618  -23.6545  -47.5320 N.am      13 UNK        -0.5000 
     75 CA         -3.8181  -24.8452  -47.1480 C.3       13 UNK         0.1400 
     76 CB         -4.2259  -24.7457  -45.6704 C.3       13 UNK        -0.1800 
     77 C          -3.0440  -26.1480  -47.4212 C.2       13 UNK         0.5000 
     78 O          -3.6187  -27.0846  -47.9763 O.2       13 UNK        -0.5000 
     79 N          -1.7527  -26.1745  -47.0605 N.am      14 UNK        -0.5000 
     80 CA         -0.8473  -27.3034  -47.2899 C.3       14 UNK         0.1400 
     81 CB          0.4601  -27.0776  -46.5153 C.3       14 UNK        -0.1800 
     82 C          -0.5610  -27.5514  -48.7832 C.2       14 UNK         0.5000 
     83 O          -0.5302  -28.7045  -49.2146 O.2       14 UNK        -0.5000 
     84 N          -0.3807  -26.4659  -49.5466 N.am      15 UNK        -0.5000 
     85 CA         -0.1697  -26.4775  -50.9953 C.3       15 UNK         0.1400 
     86 CB          0.3998  -25.1148  -51.4225 C.3       15 UNK        -0.1800 
     87 C          -1.4442  -26.7953  -51.8022 C.2       15 UNK         0.5000 
     88 O          -1.3334  -27.1297  -52.9824 O.2       15 UNK        -0.5000 
     89 N          -2.6167  -26.6691  -51.1625 N.am      16 UNK        -0.5000 
     90 CA         -3.9631  -26.7891  -51.7274 C.3       16 UNK         0.1400 
     91 CB         -4.2426  -28.2309  -52.2009 C.3       16 UNK        -0.1800 
     92 C          -4.2219  -25.7211  -52.8100 C.2       16 UNK         0.5000 
     93 O          -4.6377  -26.0435  -53.9255 O.2       16 UNK        -0.5000 
     94 N          -3.9370  -24.4612  -52.4549 N.am      17 UNK        -0.5000 
     95 CA         -4.1328  -23.2772  -53.2906 C.3       17 UNK         0.1400 
     96 CB         -3.4871  -22.0705  -52.5917 C.3       17 UNK        -0.1800 
     97 C          -5.6199  -22.9933  -53.5832 C.2       17 UNK         0.5000 
     98 O          -6.5024  -23.4468  -52.8499 O.2       17 UNK        -0.5000 
     99 N          -5.8637  -22.2148  -54.6449 N.am      18 UNK        -0.5000 
    100 CA        -7.1970  -21.8429  -55.1287 C.3       18 UNK         0.1400 
    101 CB        -7.0564  -21.2285  -56.5306 C.3       18 UNK        -0.1800 
    102 C         -7.9742  -20.8867  -54.1996 C.2       18 UNK         0.5000 
    103 O         -9.1926  -20.7726  -54.3426 O.2       18 UNK        -0.5000 
    104 N         -7.2745  -20.2173  -53.2773 N.am      19 UNK        -0.5000 
    105 CA        -7.8356  -19.3064  -52.2880 C.3       19 UNK         0.1400 
    106 CB        -7.9298  -17.8915  -52.8840 C.3       19 UNK        -0.1800 
    107 C         -6.9543  -19.3226  -51.0330 C.2       19 UNK         0.5000 
    108 O         -5.7655  -19.6486  -51.1189 O.2       19 UNK        -0.5000 
    109 N         -7.5513  -18.9505  -49.8928 N.am      20 UNK        -0.5000 
    110 CA        -6.8830  -18.8175  -48.5982 C.3       20 UNK         0.1400 
    111 CB        -7.9211  -18.4754  -47.5192 C.3       20 UNK        -0.1800 
    112 C         -5.7773  -17.7497  -48.6502 C.2       20 UNK         0.5000 
    113 O         -6.0200  -16.6434  -49.1389 O.2       20 UNK        -0.5000 
    114 N         -4.5743  -18.1294  -48.1995 N.am      21 UNK        -0.5000 
    115 CA        -3.3286  -17.3511  -48.2594 C.3       21 UNK         0.1400 
    116 CB        -3.3773  -16.1732  -47.2678 C.3       21 UNK        -0.1800 
    117 C         -2.9382  -16.9164  -49.6899 C.2       21 UNK         0.5000 
    118 O         -2.2802  -15.8900  -49.8584 O.2       21 UNK        -0.5000 
    119 N         -3.3626  -17.7070  -50.6873 N.am      22 UNK        -0.5000 
    120 CA        -3.2629  -17.4334  -52.1299 C.3       22 UNK         0.1400 
    121 C         -4.1787  -16.2689  -52.6233 C.2       22 UNK         0.5000 
    122 N         -5.1324  -15.7807  -51.8370 N.am      22 UNK        -0.7600 
    123 O         -4.0480  -15.8156  -53.7570 O.2       22 UNK        -0.5000 
    124 C124       -1.8015  -17.2941  -52.6435 C.3       23 UNK        -0.0398 
    125 S125       -0.7525  -18.7510  -52.2995 S.3       23 UNK        -0.2404 
    126 C126        0.2095  -18.1848  -50.8619 C.3       23 UNK        -0.0205 
    127 H127        0.1641  -13.3719  -52.0426 H         1 UNK         0.0600 
    128 H128       -0.1556  -14.6149  -50.8294 H         1 UNK         0.0600 
    129 H129        0.8410  -14.9881  -52.2427 H         1 UNK         0.0600 
    130 H130        2.4901  -15.7087  -50.6659 H         1 UNK         0.3000 
    131 H131        4.4986  -13.7316  -50.1913 H         1 UNK         0.0600 
    132 H132        4.4741  -16.6832  -49.3823 H         1 UNK         0.0800 
    133 H133        5.8709  -15.6388  -49.4213 H         1 UNK         0.0800 
    134 H134        6.0884  -18.3638  -50.9722 H         1 UNK         0.0800 
    135 H135        5.4955  -18.4215  -52.6137 H         1 UNK         0.0800 
    136 H136        2.6011  -17.2134  -51.7069 H         1 UNK         0.1150 
    137 H137        0.8111  -20.6723  -49.9415 H         1 UNK         0.1150 
    138 H138        5.0500  -20.5401  -50.5549 H         1 UNK         0.1150 
    139 H139        2.1315  -22.7239  -49.8235 H         1 UNK         0.0800 
    140 H140        3.7913  -22.7225  -50.3240 H         1 UNK         0.0800 
    141 H141        1.7954  -20.7551  -47.5481 H         1 UNK         0.0800 
    142 H142        2.6922  -21.1761  -46.1290 H         1 UNK         0.0800 
    143 H143        1.7095  -23.5988  -46.4062 H         1 UNK         0.0600 
    144 H144        0.6919  -21.4009  -44.9799 H         1 UNK         0.3000 
    145 H145       -2.0035  -23.1253  -43.3361 H         1 UNK         0.0600 
    146 H146       -0.7830  -22.1662  -41.4000 H         1 UNK         0.0600 
    147 H147        0.6537  -21.9249  -42.3902 H         1 UNK         0.0600 
    148 H148        0.0843  -23.5527  -42.0443 H         1 UNK         0.0600 
    149 H149       -1.2000  -20.4147  -43.1793 H         1 UNK         0.3000 
    150 H150       -3.1776  -19.1720  -45.9055 H         1 UNK         0.0600 
    151 H151       -4.6392  -19.2367  -43.9188 H         1 UNK         0.0600 
    152 H152       -3.8643  -17.6651  -44.0448 H         1 UNK         0.0600 
    153 H153       -3.2914  -18.8406  -42.8645 H         1 UNK         0.0600 
    154 H154       -1.3072  -17.9052  -44.1525 H         1 UNK         0.3000 
    155 H155        1.6052  -18.3687  -46.1578 H         1 UNK         0.0600 
    156 H156        0.4602  -16.4331  -47.1816 H         1 UNK         0.0600 
    157 H157        1.5828  -15.8863  -45.9459 H         1 UNK         0.0600 
    158 H158       -0.1451  -15.9134  -45.6107 H         1 UNK         0.0600 
    159 H159        1.0119  -17.0128  -43.6758 H         1 UNK         0.3000 
    160 H160        1.8128  -19.7862  -41.5535 H         1 UNK         0.0600 
    161 H161        3.3952  -17.2300  -42.1671 H         1 UNK         0.0600 
    162 H162        4.0401  -18.8662  -42.2299 H         1 UNK         0.0600 
    163 H163        3.5104  -18.1959  -40.6955 H         1 UNK         0.0600 
    164 H164        1.2349  -17.0749  -40.9518 H         1 UNK         0.3000 
    165 H165       -2.2557  -17.0824  -41.2045 H         1 UNK         0.0600 
    166 H166       -2.2883  -16.6614  -38.7581 H         1 UNK         0.0600 
    167 H167       -2.0599  -18.3736  -39.0744 H         1 UNK         0.0600 
    168 H168       -0.6887  -17.3855  -38.5848 H         1 UNK         0.0600 
    169 H169       -0.4529  -15.2997  -39.9033 H         1 UNK         0.3000 
    170 H170        0.0471  -13.3165  -40.8471 H         1 UNK         0.0600 
    171 H171        2.1313  -14.6123  -41.1234 H         1 UNK         0.0600 
    172 H172        2.0198  -14.5057  -42.8748 H         1 UNK         0.0600 
    173 H173        2.3102  -13.0556  -41.9169 H         1 UNK         0.0600 
    174 H174        0.3490  -12.8732  -43.7365 H         1 UNK         0.3000 
    175 H175       -2.6726  -11.1220  -44.1082 H         1 UNK         0.0600 
    176 H176       -0.0236   -9.6664  -43.5919 H         1 UNK         0.0600 
    177 H177       -1.3898   -9.0339  -44.5123 H         1 UNK         0.0600 
    178 H178       -1.5511   -9.3252  -42.7881 H         1 UNK         0.0600 
    179 H179       -0.1821  -11.0991  -45.5760 H         1 UNK         0.3000 
    180 H180       -0.5704  -14.1429  -47.2403 H         1 UNK         0.0600 
    181 H181       -0.8145  -12.8710  -49.3599 H         1 UNK         0.0600 
    182 H182       -1.3711  -11.4570  -48.4701 H         1 UNK         0.0600 
    183 H183       -2.3379  -12.9289  -48.4965 H         1 UNK         0.0600 
    184 H184        1.1007  -12.1997  -48.1183 H         1 UNK         0.3000 
    185 H185        3.1328  -11.2656  -46.8340 H         1 UNK         0.0600 
    186 H186        4.2704  -13.6723  -45.3124 H         1 UNK         0.0600 
    187 H187        5.2076  -12.2898  -45.8778 H         1 UNK         0.0600 
    188 H188        3.9580  -12.0724  -44.6623 H         1 UNK         0.0600 
    189 H189        3.6018  -12.2879  -48.7427 H         1 UNK         0.3000 
    190 H190       -0.7505  -21.1676  -47.4192 H         1 UNK         0.3000 
    191 H191       -1.3248  -22.2312  -49.9604 H         1 UNK         0.0600 
    192 H192       -2.0098  -19.9884  -49.3078 H         1 UNK         0.0600 
    193 H193       -3.0294  -20.6098  -48.0095 H         1 UNK         0.0600 
    194 H194       -3.4686  -20.8881  -49.6869 H         1 UNK         0.0600 
    195 H195       -2.7871  -23.0263  -46.7825 H         1 UNK         0.3000 
    196 H196       -4.7301  -24.8688  -47.7483 H         1 UNK         0.0600 
    197 H197       -4.8415  -23.8641  -45.4912 H         1 UNK         0.0600 
    198 H198       -3.3574  -24.6840  -45.0144 H         1 UNK         0.0600 
    199 H199       -4.8073  -25.6167  -45.3658 H         1 UNK         0.0600 
    200 H200       -1.3604  -25.3704  -46.5792 H         1 UNK         0.3000 
    201 H201       -1.3250  -28.2008  -46.8915 H         1 UNK         0.0600 
    202 H202        0.2724  -26.9849  -45.4454 H         1 UNK         0.0600 
    203 H203        0.9720  -26.1723  -46.8432 H         1 UNK         0.0600 
    204 H204        1.1470  -27.9132  -46.6544 H         1 UNK         0.0600 
    205 H205       -0.3444  -25.5540  -49.0939 H         1 UNK         0.3000 
    206 H206        0.5690  -27.2465  -51.2299 H         1 UNK         0.0600 
    207 H207       -0.2943  -24.3033  -51.1994 H         1 UNK         0.0600 
    208 H208        1.3390  -24.9031  -50.9114 H         1 UNK         0.0600 
    209 H209        0.6009  -25.0903  -52.4942 H         1 UNK         0.0600 
    210 H210       -2.5823  -26.3512  -50.2030 H         1 UNK         0.3000 
    211 H211       -4.6547  -26.5727  -50.9117 H         1 UNK         0.0600 
    212 H212       -3.6189  -28.5117  -53.0498 H         1 UNK         0.0600 
    213 H213       -5.2824  -28.3427  -52.5100 H         1 UNK         0.0600 
    214 H214       -4.0627  -28.9486  -51.4004 H         1 UNK         0.0600 
    215 H215       -3.6155  -24.2934  -51.5037 H         1 UNK         0.3000 
    216 H216       -3.6200  -23.4504  -54.2388 H         1 UNK         0.0600 
    217 H217       -3.5259  -21.1785  -53.2180 H         1 UNK         0.0600 
    218 H218       -2.4386  -22.2572  -52.3585 H         1 UNK         0.0600 
    219 H219       -4.0040  -21.8379  -51.6616 H         1 UNK         0.0600 
    220 H220       -5.0840  -21.8697  -55.1861 H         1 UNK         0.3000 
    221 H221       -7.7886  -22.7567  -55.2162 H         1 UNK         0.0600 
    222 H222       -6.4576  -20.3171  -56.5115 H         1 UNK         0.0600 
    223 H223       -6.5861  -21.9267  -57.2232 H         1 UNK         0.0600 
    224 H224       -8.0319  -20.9710  -56.9455 H         1 UNK         0.0600 
    225 H225       -6.2860  -20.4015  -53.1679 H         1 UNK         0.3000 
    226 H226       -8.8329  -19.6475  -52.0018 H         1 UNK         0.0600 
    227 H227       -8.6214  -17.8640  -53.7261 H         1 UNK         0.0600 
    228 H228       -8.2882  -17.1733  -52.1456 H         1 UNK         0.0600 
    229 H229       -6.9597  -17.5429  -53.2390 H         1 UNK         0.0600 
    230 H230       -8.5196  -18.6668  -49.9218 H         1 UNK         0.3000 
    231 H231       -6.4377  -19.7843  -48.3535 H         1 UNK         0.0600 
    232 H232       -7.4507  -18.3900  -46.5388 H         1 UNK         0.0600 
    233 H233       -8.6851  -19.2497  -47.4460 H         1 UNK         0.0600 
    234 H234       -8.4207  -17.5282  -47.7270 H         1 UNK         0.0600 
    235 H235       -4.4833  -19.0680  -47.8405 H         1 UNK         0.3000 
    236 H236       -2.5325  -18.0175  -47.9334 H         1 UNK         0.0600 
    237 H237       -4.0914  -15.4100  -47.5783 H         1 UNK         0.0600 
    238 H238       -3.6541  -16.5056  -46.2679 H         1 UNK         0.0600 
    239 H239       -2.4017  -15.6950  -47.1861 H         1 UNK         0.0600 
    240 H240       -3.9350  -18.5087  -50.4559 H         1 UNK         0.3000 
    241 H241       -3.6808  -18.3197  -52.6085 H         1 UNK         0.0600 
    242 H242       -5.7130  -15.0333  -52.1807 H         1 UNK         0.3800 
    243 H243       -5.2827  -16.1350  -50.8979 H         1 UNK         0.3800 
    244 H244       -1.3391  -16.3893  -52.2511 H         1 UNK         0.0800 
    245 H245       -1.8007  -17.1700  -53.7275 H         1 UNK         0.0800 
    246 H246       -0.3449  -18.3965  -49.9473 H         1 UNK         0.0800 
    247 H247        0.3368  -17.1033  -50.8923 H         1 UNK         0.0800 
@<TRIPOS>BOND
     1    1    2 1    
     2    1  127 1    
     3    1  128 1    
     4    1  129 1    
     5    2    3 2    
     6    2    4 am   BACKBONE|DICT|INTERRES
     7    4    5 1    
     8    4  130 1    
     9    5    6 1    
    10    5   65 1    
    11    5  131 1    
    12    6    7 1    
    13    6  132 1    
    14    6  133 1    
    15    7    8 1    
    16    8    9 1    
    17    8  134 1    
    18    8  135 1    
    19    9   10 ar   
    20    9   14 ar   
    21   10   11 ar   
    22   10  136 1    
    23   11   12 ar   
    24   11  126 1    
    25   12   13 ar   
    26   12  137 1    
    27   13   14 ar   
    28   13   15 1    
    29   14  138 1    
    30   15   16 1    
    31   15  139 1    
    32   15  140 1    
    33   16   17 1    
    34   17   18 1    
    35   17  141 1    
    36   17  142 1    
    37   18   19 1    
    38   18   67 1    
    39   18  143 1    
    40   19   20 am   BACKBONE|DICT|INTERRES
    41   19  144 1    
    42   20   21 2    
    43   20   22 1    
    44   22   23 1    
    45   22   24 1    
    46   22  145 1    
    47   23  146 1    
    48   23  147 1    
    49   23  148 1    
    50   24   25 am   BACKBONE|DICT|INTERRES
    51   24  149 1    
    52   25   26 2    
    53   25   27 1    
    54   27   28 1    
    55   27   29 1    
    56   27  150 1    
    57   28  151 1    
    58   28  152 1    
    59   28  153 1    
    60   29   30 am   BACKBONE|DICT|INTERRES
    61   29  154 1    
    62   30   31 2    
    63   30   32 1    
    64   32   33 1    
    65   32   34 1    
    66   32  155 1    
    67   33  156 1    
    68   33  157 1    
    69   33  158 1    
    70   34   35 am   BACKBONE|DICT|INTERRES
    71   34  159 1    
    72   35   36 2    
    73   35   37 1    
    74   37   38 1    
    75   37   39 1    
    76   37  160 1    
    77   38  161 1    
    78   38  162 1    
    79   38  163 1    
    80   39   40 am   BACKBONE|DICT|INTERRES
    81   39  164 1    
    82   40   41 2    
    83   40   42 1    
    84   42   43 1    
    85   42   44 1    
    86   42  165 1    
    87   43  166 1    
    88   43  167 1    
    89   43  168 1    
    90   44   45 am   BACKBONE|DICT|INTERRES
    91   44  169 1    
    92   45   46 2    
    93   45   47 1    
    94   47   48 1    
    95   47   49 1    
    96   47  170 1    
    97   48  171 1    
    98   48  172 1    
    99   48  173 1    
   100   49   50 am   BACKBONE|DICT|INTERRES
   101   49  174 1    
   102   50   51 2    
   103   50   52 1    
   104   52   53 1    
   105   52   54 1    
   106   52  175 1    
   107   53  176 1    
   108   53  177 1    
   109   53  178 1    
   110   54   55 am   BACKBONE|DICT|INTERRES
   111   54  179 1    
   112   55   56 2    
   113   55   57 1    
   114   57   58 1    
   115   57   59 1    
   116   57  180 1    
   117   58  181 1    
   118   58  182 1    
   119   58  183 1    
   120   59   60 am   BACKBONE|DICT|INTERRES
   121   59  184 1    
   122   60   61 2    
   123   60   62 1    
   124   62   63 1    
   125   62   64 1    
   126   62  185 1    
   127   63  186 1    
   128   63  187 1    
   129   63  188 1    
   130   64   65 am   BACKBONE|DICT|INTERRES
   131   64  189 1    
   132   65   66 2    
   133   67   68 2    
   134   67   69 am   BACKBONE|DICT|INTERRES
   135   69   70 1    
   136   69  190 1    
   137   70   71 1    
   138   70   72 1    
   139   70  191 1    
   140   71  192 1    
   141   71  193 1    
   142   71  194 1    
   143   72   73 2    
   144   72   74 am   BACKBONE|DICT|INTERRES
   145   74   75 1    
   146   74  195 1    
   147   75   76 1    
   148   75   77 1    
   149   75  196 1    
   150   76  197 1    
   151   76  198 1    
   152   76  199 1    
   153   77   78 2    
   154   77   79 am   BACKBONE|DICT|INTERRES
   155   79   80 1    
   156   79  200 1    
   157   80   81 1    
   158   80   82 1    
   159   80  201 1    
   160   81  202 1    
   161   81  203 1    
   162   81  204 1    
   163   82   83 2    
   164   82   84 am   BACKBONE|DICT|INTERRES
   165   84   85 1    
   166   84  205 1    
   167   85   86 1    
   168   85   87 1    
   169   85  206 1    
   170   86  207 1    
   171   86  208 1    
   172   86  209 1    
   173   87   88 2    
   174   87   89 am   BACKBONE|DICT|INTERRES
   175   89   90 1    
   176   89  210 1    
   177   90   91 1    
   178   90   92 1    
   179   90  211 1    
   180   91  212 1    
   181   91  213 1    
   182   91  214 1    
   183   92   93 2    
   184   92   94 am   BACKBONE|DICT|INTERRES
   185   94   95 1    
   186   94  215 1    
   187   95   96 1    
   188   95   97 1    
   189   95  216 1    
   190   96  217 1    
   191   96  218 1    
   192   96  219 1    
   193   97   98 2    
   194   97   99 am   BACKBONE|DICT|INTERRES
   195   99  100 1    
   196   99  220 1    
   197  100  101 1    
   198  100  102 1    
   199  100  221 1    
   200  101  222 1    
   201  101  223 1    
   202  101  224 1    
   203  102  103 2    
   204  102  104 am   BACKBONE|DICT|INTERRES
   205  104  105 1    
   206  104  225 1    
   207  105  106 1    
   208  105  107 1    
   209  105  226 1    
   210  106  227 1    
   211  106  228 1    
   212  106  229 1    
   213  107  108 2    
   214  107  109 am   BACKBONE|DICT|INTERRES
   215  109  110 1    
   216  109  230 1    
   217  110  111 1    
   218  110  112 1    
   219  110  231 1    
   220  111  232 1    
   221  111  233 1    
   222  111  234 1    
   223  112  113 2    
   224  112  114 am   BACKBONE|DICT|INTERRES
   225  114  115 1    
   226  114  235 1    
   227  115  116 1    
   228  115  117 1    
   229  115  236 1    
   230  116  237 1    
   231  116  238 1    
   232  116  239 1    
   233  117  118 2    
   234  117  119 am   BACKBONE|DICT|INTERRES
   235  119  120 1    
   236  119  240 1    
   237  120  121 1    
   238  120  124 1    
   239  120  241 1    
   240  121  122 am   BACKBONE|DICT|INTERRES
   241  121  123 2    
   242  122  242 1    
   243  122  243 1    
   244  124  125 1    
   245  124  244 1    
   246  124  245 1    
   247  125  126 1    
   248  126  246 1    
   249  126  247 1    
@<TRIPOS>SUBSTRUCTURE
     1 UNK         1 GROUP             0       ****    0 ROOT    
