@<TRIPOS>MOLECULE
3R540
247   249    1
SMALL
USER_CHARGES


@<TRIPOS>ATOM
      1 CA         -1.0657  -13.4102  -51.4767 C.3       0 UNK        -0.1800 
      2 C          -0.8387  -14.6002  -52.4068 C.2       0 UNK         0.5000 
      3 O          -1.6275  -14.7973  -53.3294 O.2       0 UNK        -0.5000 
      4 N           0.2182  -15.4059  -52.2368 N.am      1 UNK        -0.5000 
      5 CA          1.2249  -15.3966  -51.1704 C.3       1 UNK         0.1400 
      6 C6          2.3296  -16.4365  -51.4790 C.3       23 UNK        -0.0398 
      7 S7          3.8697  -16.1655  -50.5418 S.3       23 UNK        -0.2404 
      8 C8          4.9571  -17.4191  -51.3005 C.3       23 UNK        -0.0205 
      9 C9          4.4322  -18.8309  -51.0814 C.ar      23 UNK        -0.0193 
     10 C10         3.8849  -19.5607  -52.1410 C.ar      23 UNK        -0.1150 
     11 C11         3.3552  -20.8373  -51.9250 C.ar      23 UNK        -0.0193 
     12 C12         3.3688  -21.3767  -50.6358 C.ar      23 UNK        -0.1150 
     13 C13         3.9077  -20.6553  -49.5667 C.ar      23 UNK        -0.0193 
     14 C14         4.4663  -19.3952  -49.8048 C.ar      23 UNK        -0.1150 
     15 C15         3.8598  -21.2408  -48.1597 C.3       23 UNK        -0.0205 
     16 S16         3.3532  -20.0469  -46.8728 S.3       23 UNK        -0.2404 
     17 C17         1.8113  -19.3381  -47.5528 C.3       23 UNK        -0.0398 
     18 CA          0.5980  -20.2955  -47.4897 C.3       11 UNK         0.1400 
     19 N           0.3852  -20.8834  -46.1638 N.am      11 UNK        -0.5000 
     20 C          -0.4629  -21.8889  -45.9067 C.2       10 UNK         0.5000 
     21 O          -1.1052  -22.4774  -46.7758 O.2       10 UNK        -0.5000 
     22 CA         -0.6694  -22.2593  -44.4267 C.3       10 UNK         0.1400 
     23 CB          0.3910  -23.2674  -43.9610 C.3       10 UNK        -0.1800 
     24 N          -0.6477  -21.0771  -43.5623 N.am      10 UNK        -0.5000 
     25 C          -1.6207  -20.1528  -43.5386 C.2       9 UNK         0.5000 
     26 O          -2.6664  -20.2558  -44.1794 O.2       9 UNK        -0.5000 
     27 CA         -1.3617  -18.8760  -42.7131 C.3       9 UNK         0.1400 
     28 CB         -1.8567  -19.0465  -41.2702 C.3       9 UNK        -0.1800 
     29 N           0.0489  -18.4882  -42.7039 N.am      9 UNK        -0.5000 
     30 C           0.7405  -18.1168  -43.7891 C.2       8 UNK         0.5000 
     31 O           0.2277  -17.9705  -44.8970 O.2       8 UNK        -0.5000 
     32 CA          2.2599  -17.9263  -43.6390 C.3       8 UNK         0.1400 
     33 CB          2.6233  -16.4408  -43.5988 C.3       8 UNK        -0.1800 
     34 N           2.8176  -18.5957  -42.4648 N.am      8 UNK        -0.5000 
     35 C           2.9792  -19.9206  -42.3508 C.2       7 UNK         0.5000 
     36 O           2.6478  -20.7241  -43.2216 O.2       7 UNK        -0.5000 
     37 CA          3.5781  -20.4267  -41.0259 C.3       7 UNK         0.1400 
     38 CB          5.1123  -20.3631  -41.0669 C.3       7 UNK        -0.1800 
     39 N           3.0914  -19.6611  -39.8765 N.am      7 UNK        -0.5000 
     40 C           1.8489  -19.7598  -39.3840 C.2       6 UNK         0.5000 
     41 O           1.0135  -20.5625  -39.7993 O.2       6 UNK        -0.5000 
     42 CA          1.4631  -18.7719  -38.2660 C.3       6 UNK         0.1400 
     43 CB          1.8250  -19.3478  -36.8887 C.3       6 UNK        -0.1800 
     44 N           2.0718  -17.4444  -38.4121 N.am      6 UNK        -0.5000 
     45 C           1.8459  -16.6119  -39.4373 C.2       5 UNK         0.5000 
     46 O           1.1480  -16.9049  -40.4091 O.2       5 UNK        -0.5000 
     47 CA          2.5654  -15.2497  -39.3891 C.3       5 UNK         0.1400 
     48 CB          3.9761  -15.3695  -39.9873 C.3       5 UNK        -0.1800 
     49 N           1.8372  -14.1988  -40.1043 N.am      5 UNK        -0.5000 
     50 C           0.6410  -13.7119  -39.7447 C.2       4 UNK         0.5000 
     51 O           0.0361  -14.0760  -38.7346 O.2       4 UNK        -0.5000 
     52 CA          0.0205  -12.6091  -40.6293 C.3       4 UNK         0.1400 
     53 CB          0.0614  -11.2548  -39.9027 C.3       4 UNK        -0.1800 
     54 N           0.6540  -12.4503  -41.9428 N.am      4 UNK        -0.5000 
     55 C           0.4676  -13.2717  -42.9828 C.2       3 UNK         0.5000 
     56 O          -0.2221  -14.2939  -42.9325 O.2       3 UNK        -0.5000 
     57 CA          1.1591  -12.8792  -44.3004 C.3       3 UNK         0.1400 
     58 CB          2.6956  -12.8408  -44.1595 C.3       3 UNK        -0.1800 
     59 N           0.7379  -13.8261  -45.3297 N.am      3 UNK        -0.5000 
     60 C           0.8701  -13.6826  -46.6508 C.2       2 UNK         0.5000 
     61 O           1.4720  -12.7499  -47.1907 O.2       2 UNK        -0.5000 
     62 CA          0.1656  -14.7360  -47.5176 C.3       2 UNK         0.1400 
     63 CB         -1.3419  -14.4222  -47.6047 C.3       2 UNK        -0.1800 
     64 N           0.7560  -14.7214  -48.8531 N.am      2 UNK        -0.5000 
     65 C           0.5758  -15.6552  -49.7930 C.2       1 UNK         0.5000 
     66 O          -0.0861  -16.6776  -49.6195 O.2       1 UNK        -0.5000 
     67 C          -0.6749  -19.5850  -47.9908 C.2       11 UNK         0.5000 
     68 O          -1.0384  -19.7519  -49.1517 O.2       11 UNK        -0.5000 
     69 N          -1.3506  -18.8554  -47.0896 N.am      12 UNK        -0.5000 
     70 CA         -2.6228  -18.1786  -47.3371 C.3       12 UNK         0.1400 
     71 CB         -2.9727  -17.2870  -46.1362 C.3       12 UNK        -0.1800 
     72 C          -3.7689  -19.1606  -47.6387 C.2       12 UNK         0.5000 
     73 O          -4.5653  -18.8998  -48.5385 O.2       12 UNK        -0.5000 
     74 N          -3.8121  -20.2961  -46.9256 N.am      13 UNK        -0.5000 
     75 CA         -4.7288  -21.4067  -47.2008 C.3       13 UNK         0.1400 
     76 CB         -4.6013  -22.4680  -46.0981 C.3       13 UNK        -0.1800 
     77 C          -4.4951  -22.0201  -48.5965 C.2       13 UNK         0.5000 
     78 O          -5.4574  -22.3025  -49.3136 O.2       13 UNK        -0.5000 
     79 N          -3.2156  -22.1477  -48.9711 N.am      14 UNK        -0.5000 
     80 CA         -2.7527  -22.5893  -50.2850 C.3       14 UNK         0.1400 
     81 CB         -1.2964  -23.0660  -50.1674 C.3       14 UNK        -0.1800 
     82 C          -2.9018  -21.5271  -51.3980 C.2       14 UNK         0.5000 
     83 O          -2.6302  -21.8336  -52.5581 O.2       14 UNK        -0.5000 
     84 N          -3.3374  -20.3010  -51.0776 N.am      15 UNK        -0.5000 
     85 CA         -3.5634  -19.2222  -52.0426 C.3       15 UNK         0.1400 
     86 CB         -3.2325  -17.8643  -51.3982 C.3       15 UNK        -0.1800 
     87 C          -4.9830  -19.2835  -52.6429 C.2       15 UNK         0.5000 
     88 O          -5.6425  -18.2513  -52.7675 O.2       15 UNK        -0.5000 
     89 N          -5.4361  -20.5006  -52.9832 N.am      16 UNK        -0.5000 
     90 CA         -6.7528  -20.8613  -53.5247 C.3       16 UNK         0.1400 
     91 CB         -7.0138  -20.1649  -54.8770 C.3       16 UNK        -0.1800 
     92 C          -7.9218  -20.6744  -52.5340 C.2       16 UNK         0.5000 
     93 O          -9.0787  -20.8012  -52.9387 O.2       16 UNK        -0.5000 
     94 N          -7.6197  -20.3899  -51.2597 N.am      17 UNK        -0.5000 
     95 CA         -8.6077  -20.1926  -50.2014 C.3       17 UNK         0.1400 
     96 CB         -7.9742  -19.3984  -49.0506 C.3       17 UNK        -0.1800 
     97 C          -9.1819  -21.5296  -49.7062 C.2       17 UNK         0.5000 
     98 O         -10.4005  -21.6540  -49.5762 O.2       17 UNK        -0.5000 
     99 N          -8.2961  -22.5028  -49.4615 N.am      18 UNK        -0.5000 
    100 CA        -8.6407  -23.8657  -49.0609 C.3       18 UNK         0.1400 
    101 CB        -7.9660  -24.1826  -47.7170 C.3       18 UNK        -0.1800 
    102 C         -8.2084  -24.8859  -50.1259 C.2       18 UNK         0.5000 
    103 O         -8.9112  -25.8776  -50.3251 O.2       18 UNK        -0.5000 
    104 N         -7.0736  -24.6379  -50.7918 N.am      19 UNK        -0.5000 
    105 CA        -6.4766  -25.5119  -51.7985 C.3       19 UNK         0.1400 
    106 CB        -5.7929  -26.7081  -51.1034 C.3       19 UNK        -0.1800 
    107 C         -5.4664  -24.7135  -52.6362 C.2       19 UNK         0.5000 
    108 O         -5.1984  -23.5539  -52.3180 O.2       19 UNK        -0.5000 
    109 N         -4.9113  -25.3681  -53.6665 N.am      20 UNK        -0.5000 
    110 CA        -3.8175  -24.9107  -54.5334 C.3       20 UNK         0.1400 
    111 CB        -2.4754  -24.9927  -53.7733 C.3       20 UNK        -0.1800 
    112 C         -4.0858  -23.5565  -55.2325 C.2       20 UNK         0.5000 
    113 O         -5.2413  -23.2621  -55.5474 O.2       20 UNK        -0.5000 
    114 N         -3.0271  -22.7877  -55.5213 N.am      21 UNK        -0.5000 
    115 CA        -3.0832  -21.5170  -56.2437 C.3       21 UNK         0.1400 
    116 CB        -3.3788  -21.7567  -57.7409 C.3       21 UNK        -0.1800 
    117 C         -1.8025  -20.6912  -56.0149 C.2       21 UNK         0.5000 
    118 O         -1.2380  -20.1537  -56.9691 O.2       21 UNK        -0.5000 
    119 N         -1.3576  -20.5958  -54.7559 N.am      22 UNK        -0.5000 
    120 CA        -0.1965  -19.7866  -54.3335 C.3       22 UNK         0.1400 
    121 C         -0.3948  -18.2409  -54.3885 C.2       22 UNK         0.5000 
    122 N         -1.5691  -17.7100  -54.7040 N.am      22 UNK        -0.7600 
    123 O          0.5482  -17.4991  -54.1306 O.2       22 UNK        -0.5000 
    124 C124        0.3217  -20.2034  -52.9329 C.3       23 UNK        -0.0398 
    125 S125        0.9654  -21.9091  -52.8962 S.3       23 UNK        -0.2404 
    126 C126        2.7582  -21.6299  -53.0816 C.3       23 UNK        -0.0205 
    127 H127       -0.1306  -12.9532  -51.1556 H         1 UNK         0.0600 
    128 H128       -1.6270  -13.7224  -50.5965 H         1 UNK         0.0600 
    129 H129       -1.6451  -12.6400  -51.9861 H         1 UNK         0.0600 
    130 H130        0.3217  -16.1739  -52.8969 H         1 UNK         0.3000 
    131 H131        1.6844  -14.4065  -51.1715 H         1 UNK         0.0600 
    132 H132        1.9673  -17.4516  -51.3042 H         1 UNK         0.0800 
    133 H133        2.5918  -16.3917  -52.5373 H         1 UNK         0.0800 
    134 H134        5.9540  -17.3343  -50.8657 H         1 UNK         0.0800 
    135 H135        5.0677  -17.2058  -52.3649 H         1 UNK         0.0800 
    136 H136        3.8571  -19.1281  -53.1314 H         1 UNK         0.1150 
    137 H137        2.9411  -22.3551  -50.4664 H         1 UNK         0.1150 
    138 H138        4.8861  -18.8282  -48.9858 H         1 UNK         0.1150 
    139 H139        3.1767  -22.0908  -48.1225 H         1 UNK         0.0800 
    140 H140        4.8476  -21.6287  -47.9086 H         1 UNK         0.0800 
    141 H141        1.9792  -19.0149  -48.5811 H         1 UNK         0.0800 
    142 H142        1.6088  -18.4208  -47.0000 H         1 UNK         0.0800 
    143 H143        0.7974  -21.1197  -48.1779 H         1 UNK         0.0600 
    144 H144        0.8855  -20.4580  -45.3971 H         1 UNK         0.3000 
    145 H145       -1.6489  -22.7332  -44.3331 H         1 UNK         0.0600 
    146 H146        0.2519  -23.5330  -42.9130 H         1 UNK         0.0600 
    147 H147        0.3295  -24.1887  -44.5416 H         1 UNK         0.0600 
    148 H148        1.4019  -22.8771  -44.0783 H         1 UNK         0.0600 
    149 H149        0.1957  -20.9152  -43.0288 H         1 UNK         0.3000 
    150 H150       -1.9255  -18.0610  -43.1710 H         1 UNK         0.0600 
    151 H151       -2.9286  -19.2465  -41.2489 H         1 UNK         0.0600 
    152 H152       -1.6806  -18.1449  -40.6827 H         1 UNK         0.0600 
    153 H153       -1.3596  -19.8768  -40.7690 H         1 UNK         0.0600 
    154 H154        0.5227  -18.4845  -41.8094 H         1 UNK         0.3000 
    155 H155        2.7294  -18.3567  -44.5246 H         1 UNK         0.0600 
    156 H156        2.1368  -15.9296  -42.7680 H         1 UNK         0.0600 
    157 H157        2.3105  -15.9513  -44.5206 H         1 UNK         0.0600 
    158 H158        3.6998  -16.2972  -43.5065 H         1 UNK         0.0600 
    159 H159        3.0520  -18.0085  -41.6793 H         1 UNK         0.3000 
    160 H160        3.2835  -21.4712  -40.9018 H         1 UNK         0.0600 
    161 H161        5.4727  -19.3392  -41.1739 H         1 UNK         0.0600 
    162 H162        5.5034  -20.9383  -41.9073 H         1 UNK         0.0600 
    163 H163        5.5481  -20.7795  -40.1586 H         1 UNK         0.0600 
    164 H164        3.7228  -18.9881  -39.4679 H         1 UNK         0.3000 
    165 H165        0.3792  -18.6437  -38.3065 H         1 UNK         0.0600 
    166 H166        1.4697  -18.7024  -36.0852 H         1 UNK         0.0600 
    167 H167        1.3676  -20.3273  -36.7426 H         1 UNK         0.0600 
    168 H168        2.9028  -19.4681  -36.7723 H         1 UNK         0.0600 
    169 H169        2.6697  -17.1407  -37.6569 H         1 UNK         0.3000 
    170 H170        2.6545  -14.9442  -38.3446 H         1 UNK         0.0600 
    171 H171        4.5641  -16.1233  -39.4622 H         1 UNK         0.0600 
    172 H172        3.9477  -15.6507  -41.0399 H         1 UNK         0.0600 
    173 H173        4.5181  -14.4269  -39.9083 H         1 UNK         0.0600 
    174 H174        2.2524  -13.8556  -40.9563 H         1 UNK         0.3000 
    175 H175       -1.0271  -12.8764  -40.7839 H         1 UNK         0.0600 
    176 H176        1.0857  -10.9252  -39.7240 H         1 UNK         0.0600 
    177 H177       -0.4456  -10.4812  -40.4799 H         1 UNK         0.0600 
    178 H178       -0.4379  -11.3130  -38.9345 H         1 UNK         0.0600 
    179 H179        1.2350  -11.6326  -42.0610 H         1 UNK         0.3000 
    180 H180        0.7995  -11.8874  -44.5815 H         1 UNK         0.0600 
    181 H181        3.0999  -13.7846  -43.8000 H         1 UNK         0.0600 
    182 H182        3.0051  -12.0688  -43.4547 H         1 UNK         0.0600 
    183 H183        3.1816  -12.6118  -45.1074 H         1 UNK         0.0600 
    184 H184        0.1915  -14.5932  -44.9539 H         1 UNK         0.3000 
    185 H185        0.3164  -15.7206  -47.0683 H         1 UNK         0.0600 
    186 H186       -1.8779  -15.1745  -48.1823 H         1 UNK         0.0600 
    187 H187       -1.7974  -14.3906  -46.6146 H         1 UNK         0.0600 
    188 H188       -1.5205  -13.4540  -48.0738 H         1 UNK         0.0600 
    189 H189        1.3415  -13.9135  -49.0283 H         1 UNK         0.3000 
    190 H190       -0.9302  -18.7128  -46.1755 H         1 UNK         0.3000 
    191 H191       -2.4868  -17.5414  -48.2132 H         1 UNK         0.0600 
    192 H192       -3.8176  -16.6384  -46.3699 H         1 UNK         0.0600 
    193 H193       -2.1354  -16.6489  -45.8556 H         1 UNK         0.0600 
    194 H194       -3.2464  -17.8754  -45.2609 H         1 UNK         0.0600 
    195 H195       -3.1703  -20.4100  -46.1481 H         1 UNK         0.3000 
    196 H196       -5.7466  -21.0165  -47.1690 H         1 UNK         0.0600 
    197 H197       -3.6090  -22.9170  -46.0784 H         1 UNK         0.0600 
    198 H198       -4.7926  -22.0385  -45.1145 H         1 UNK         0.0600 
    199 H199       -5.3201  -23.2738  -46.2448 H         1 UNK         0.0600 
    200 H200       -2.4915  -21.9061  -48.3039 H         1 UNK         0.3000 
    201 H201       -3.3523  -23.4526  -50.5733 H         1 UNK         0.0600 
    202 H202       -1.1877  -23.8214  -49.3892 H         1 UNK         0.0600 
    203 H203       -0.6188  -22.2450  -49.9353 H         1 UNK         0.0600 
    204 H204       -0.9563  -23.5133  -51.1017 H         1 UNK         0.0600 
    205 H205       -3.5403  -20.0890  -50.1092 H         1 UNK         0.3000 
    206 H206       -2.8731  -19.3433  -52.8745 H         1 UNK         0.0600 
    207 H207       -2.2452  -17.8759  -50.9356 H         1 UNK         0.0600 
    208 H208       -3.2259  -17.0718  -52.1473 H         1 UNK         0.0600 
    209 H209       -3.9598  -17.5834  -50.6380 H         1 UNK         0.0600 
    210 H210       -4.8272  -21.2949  -52.8135 H         1 UNK         0.3000 
    211 H211       -6.7110  -21.9319  -53.7215 H         1 UNK         0.0600 
    212 H212       -7.9154  -20.5562  -55.3491 H         1 UNK         0.0600 
    213 H213       -6.1927  -20.3324  -55.5728 H         1 UNK         0.0600 
    214 H214       -7.1484  -19.0891  -54.7645 H         1 UNK         0.0600 
    215 H215       -6.6466  -20.3217  -51.0003 H         1 UNK         0.3000 
    216 H216       -9.4335  -19.5993  -50.6002 H         1 UNK         0.0600 
    217 H217       -7.1184  -19.9208  -48.6273 H         1 UNK         0.0600 
    218 H218       -8.6917  -19.2331  -48.2461 H         1 UNK         0.0600 
    219 H219       -7.6308  -18.4205  -49.3888 H         1 UNK         0.0600 
    220 H220       -7.3041  -22.3057  -49.5666 H         1 UNK         0.3000 
    221 H221       -9.7198  -23.9676  -48.9289 H         1 UNK         0.0600 
    222 H222       -8.2493  -23.4602  -46.9515 H         1 UNK         0.0600 
    223 H223       -6.8795  -24.1746  -47.8027 H         1 UNK         0.0600 
    224 H224       -8.2581  -25.1704  -47.3586 H         1 UNK         0.0600 
    225 H225       -6.5395  -23.7952  -50.6074 H         1 UNK         0.3000 
    226 H226       -7.2588  -25.8716  -52.4700 H         1 UNK         0.0600 
    227 H227       -5.0003  -26.3768  -50.4312 H         1 UNK         0.0600 
    228 H228       -6.5037  -27.2908  -50.5176 H         1 UNK         0.0600 
    229 H229       -5.3460  -27.3901  -51.8272 H         1 UNK         0.0600 
    230 H230       -5.2450  -26.3004  -53.8646 H         1 UNK         0.3000 
    231 H231       -3.7651  -25.6368  -55.3457 H         1 UNK         0.0600 
    232 H232       -2.4561  -24.3272  -52.9133 H         1 UNK         0.0600 
    233 H233       -1.6249  -24.7473  -54.4095 H         1 UNK         0.0600 
    234 H234       -2.3055  -26.0030  -53.4014 H         1 UNK         0.0600 
    235 H235       -2.1115  -23.0744  -55.2034 H         1 UNK         0.3000 
    236 H236       -3.8983  -20.9243  -55.8252 H         1 UNK         0.0600 
    237 H237       -4.3322  -22.2634  -57.8883 H         1 UNK         0.0600 
    238 H238       -3.4360  -20.8144  -58.2873 H         1 UNK         0.0600 
    239 H239       -2.6021  -22.3632  -58.2079 H         1 UNK         0.0600 
    240 H240       -1.8494  -21.0887  -54.0111 H         1 UNK         0.3000 
    241 H241        0.6065  -19.9885  -55.0449 H         1 UNK         0.0600 
    242 H242       -1.6667  -16.7042  -54.6879 H         1 UNK         0.3800 
    243 H243       -2.3434  -18.2858  -54.9843 H         1 UNK         0.3800 
    244 H244       -0.4719  -20.1161  -52.1905 H         1 UNK         0.0800 
    245 H245        1.1042  -19.5284  -52.5876 H         1 UNK         0.0800 
    246 H246        3.2594  -22.5967  -53.1433 H         1 UNK         0.0800 
    247 H247        2.9428  -21.1289  -54.0331 H         1 UNK         0.0800 
@<TRIPOS>BOND
     1    1    2 1    
     2    1  127 1    
     3    1  128 1    
     4    1  129 1    
     5    2    3 2    
     6    2    4 am   BACKBONE|DICT|INTERRES
     7    4    5 1    
     8    4  130 1    
     9    5    6 1    
    10    5   65 1    
    11    5  131 1    
    12    6    7 1    
    13    6  132 1    
    14    6  133 1    
    15    7    8 1    
    16    8    9 1    
    17    8  134 1    
    18    8  135 1    
    19    9   10 ar   
    20    9   14 ar   
    21   10   11 ar   
    22   10  136 1    
    23   11   12 ar   
    24   11  126 1    
    25   12   13 ar   
    26   12  137 1    
    27   13   14 ar   
    28   13   15 1    
    29   14  138 1    
    30   15   16 1    
    31   15  139 1    
    32   15  140 1    
    33   16   17 1    
    34   17   18 1    
    35   17  141 1    
    36   17  142 1    
    37   18   19 1    
    38   18   67 1    
    39   18  143 1    
    40   19   20 am   BACKBONE|DICT|INTERRES
    41   19  144 1    
    42   20   21 2    
    43   20   22 1    
    44   22   23 1    
    45   22   24 1    
    46   22  145 1    
    47   23  146 1    
    48   23  147 1    
    49   23  148 1    
    50   24   25 am   BACKBONE|DICT|INTERRES
    51   24  149 1    
    52   25   26 2    
    53   25   27 1    
    54   27   28 1    
    55   27   29 1    
    56   27  150 1    
    57   28  151 1    
    58   28  152 1    
    59   28  153 1    
    60   29   30 am   BACKBONE|DICT|INTERRES
    61   29  154 1    
    62   30   31 2    
    63   30   32 1    
    64   32   33 1    
    65   32   34 1    
    66   32  155 1    
    67   33  156 1    
    68   33  157 1    
    69   33  158 1    
    70   34   35 am   BACKBONE|DICT|INTERRES
    71   34  159 1    
    72   35   36 2    
    73   35   37 1    
    74   37   38 1    
    75   37   39 1    
    76   37  160 1    
    77   38  161 1    
    78   38  162 1    
    79   38  163 1    
    80   39   40 am   BACKBONE|DICT|INTERRES
    81   39  164 1    
    82   40   41 2    
    83   40   42 1    
    84   42   43 1    
    85   42   44 1    
    86   42  165 1    
    87   43  166 1    
    88   43  167 1    
    89   43  168 1    
    90   44   45 am   BACKBONE|DICT|INTERRES
    91   44  169 1    
    92   45   46 2    
    93   45   47 1    
    94   47   48 1    
    95   47   49 1    
    96   47  170 1    
    97   48  171 1    
    98   48  172 1    
    99   48  173 1    
   100   49   50 am   BACKBONE|DICT|INTERRES
   101   49  174 1    
   102   50   51 2    
   103   50   52 1    
   104   52   53 1    
   105   52   54 1    
   106   52  175 1    
   107   53  176 1    
   108   53  177 1    
   109   53  178 1    
   110   54   55 am   BACKBONE|DICT|INTERRES
   111   54  179 1    
   112   55   56 2    
   113   55   57 1    
   114   57   58 1    
   115   57   59 1    
   116   57  180 1    
   117   58  181 1    
   118   58  182 1    
   119   58  183 1    
   120   59   60 am   BACKBONE|DICT|INTERRES
   121   59  184 1    
   122   60   61 2    
   123   60   62 1    
   124   62   63 1    
   125   62   64 1    
   126   62  185 1    
   127   63  186 1    
   128   63  187 1    
   129   63  188 1    
   130   64   65 am   BACKBONE|DICT|INTERRES
   131   64  189 1    
   132   65   66 2    
   133   67   68 2    
   134   67   69 am   BACKBONE|DICT|INTERRES
   135   69   70 1    
   136   69  190 1    
   137   70   71 1    
   138   70   72 1    
   139   70  191 1    
   140   71  192 1    
   141   71  193 1    
   142   71  194 1    
   143   72   73 2    
   144   72   74 am   BACKBONE|DICT|INTERRES
   145   74   75 1    
   146   74  195 1    
   147   75   76 1    
   148   75   77 1    
   149   75  196 1    
   150   76  197 1    
   151   76  198 1    
   152   76  199 1    
   153   77   78 2    
   154   77   79 am   BACKBONE|DICT|INTERRES
   155   79   80 1    
   156   79  200 1    
   157   80   81 1    
   158   80   82 1    
   159   80  201 1    
   160   81  202 1    
   161   81  203 1    
   162   81  204 1    
   163   82   83 2    
   164   82   84 am   BACKBONE|DICT|INTERRES
   165   84   85 1    
   166   84  205 1    
   167   85   86 1    
   168   85   87 1    
   169   85  206 1    
   170   86  207 1    
   171   86  208 1    
   172   86  209 1    
   173   87   88 2    
   174   87   89 am   BACKBONE|DICT|INTERRES
   175   89   90 1    
   176   89  210 1    
   177   90   91 1    
   178   90   92 1    
   179   90  211 1    
   180   91  212 1    
   181   91  213 1    
   182   91  214 1    
   183   92   93 2    
   184   92   94 am   BACKBONE|DICT|INTERRES
   185   94   95 1    
   186   94  215 1    
   187   95   96 1    
   188   95   97 1    
   189   95  216 1    
   190   96  217 1    
   191   96  218 1    
   192   96  219 1    
   193   97   98 2    
   194   97   99 am   BACKBONE|DICT|INTERRES
   195   99  100 1    
   196   99  220 1    
   197  100  101 1    
   198  100  102 1    
   199  100  221 1    
   200  101  222 1    
   201  101  223 1    
   202  101  224 1    
   203  102  103 2    
   204  102  104 am   BACKBONE|DICT|INTERRES
   205  104  105 1    
   206  104  225 1    
   207  105  106 1    
   208  105  107 1    
   209  105  226 1    
   210  106  227 1    
   211  106  228 1    
   212  106  229 1    
   213  107  108 2    
   214  107  109 am   BACKBONE|DICT|INTERRES
   215  109  110 1    
   216  109  230 1    
   217  110  111 1    
   218  110  112 1    
   219  110  231 1    
   220  111  232 1    
   221  111  233 1    
   222  111  234 1    
   223  112  113 2    
   224  112  114 am   BACKBONE|DICT|INTERRES
   225  114  115 1    
   226  114  235 1    
   227  115  116 1    
   228  115  117 1    
   229  115  236 1    
   230  116  237 1    
   231  116  238 1    
   232  116  239 1    
   233  117  118 2    
   234  117  119 am   BACKBONE|DICT|INTERRES
   235  119  120 1    
   236  119  240 1    
   237  120  121 1    
   238  120  124 1    
   239  120  241 1    
   240  121  122 am   BACKBONE|DICT|INTERRES
   241  121  123 2    
   242  122  242 1    
   243  122  243 1    
   244  124  125 1    
   245  124  244 1    
   246  124  245 1    
   247  125  126 1    
   248  126  246 1    
   249  126  247 1    
@<TRIPOS>SUBSTRUCTURE
     1 UNK         1 GROUP             0       ****    0 ROOT    
