@<TRIPOS>MOLECULE
3R540
247   249    1
SMALL
USER_CHARGES


@<TRIPOS>ATOM
      1 CA          6.9703  -13.3921  -51.3124 C.3       0 UNK        -0.1800 
      2 C           5.6134  -13.9808  -50.9522 C.2       0 UNK         0.5000 
      3 O           5.4918  -15.1976  -50.8098 O.2       0 UNK        -0.5000 
      4 N           4.5932  -13.1250  -50.8133 N.am      1 UNK        -0.5000 
      5 CA          3.2383  -13.4997  -50.4033 C.3       1 UNK         0.1400 
      6 C6          2.2284  -12.3811  -50.7525 C.3       23 UNK        -0.0398 
      7 S7          0.4762  -12.8012  -50.4622 S.3       23 UNK        -0.2404 
      8 C8          0.1412  -14.0404  -51.7573 C.3       23 UNK        -0.0205 
      9 C9          0.1817  -15.4535  -51.1939 C.ar      23 UNK        -0.0193 
     10 C10         1.1844  -16.3541  -51.5684 C.ar      23 UNK        -0.1150 
     11 C11         1.2227  -17.6416  -51.0224 C.ar      23 UNK        -0.0193 
     12 C12         0.2355  -18.0306  -50.1124 C.ar      23 UNK        -0.1150 
     13 C13        -0.7777  -17.1423  -49.7403 C.ar      23 UNK        -0.0193 
     14 C14        -0.8002  -15.8590  -50.2870 C.ar      23 UNK        -0.1150 
     15 C15        -1.8536  -17.5740  -48.7598 C.3       23 UNK        -0.0205 
     16 S16        -1.1870  -17.7598  -47.0788 S.3       23 UNK        -0.2404 
     17 C17        -2.1276  -19.2151  -46.5307 C.3       23 UNK        -0.0398 
     18 CA         -1.4593  -20.5325  -46.9921 C.3       11 UNK         0.1400 
     19 N          -0.1313  -20.7447  -46.4020 N.am      11 UNK        -0.5000 
     20 C           0.7448  -21.6696  -46.8203 C.2       10 UNK         0.5000 
     21 O           0.5438  -22.4018  -47.7847 O.2       10 UNK        -0.5000 
     22 CA          2.0349  -21.8539  -46.0035 C.3       10 UNK         0.1400 
     23 CB          3.1473  -20.9389  -46.5306 C.3       10 UNK        -0.1800 
     24 N           1.8202  -21.6138  -44.5775 N.am      10 UNK        -0.5000 
     25 C           1.1486  -22.4518  -43.7725 C.2       9 UNK         0.5000 
     26 O           0.7101  -23.5405  -44.1457 O.2       9 UNK        -0.5000 
     27 CA          0.8633  -21.9704  -42.3330 C.3       9 UNK         0.1400 
     28 CB          2.0139  -22.3611  -41.3948 C.3       9 UNK        -0.1800 
     29 N           0.6455  -20.5243  -42.2492 N.am      9 UNK        -0.5000 
     30 C          -0.3242  -19.8667  -42.9008 C.2       8 UNK         0.5000 
     31 O          -1.2356  -20.4437  -43.4941 O.2       8 UNK        -0.5000 
     32 CA         -0.2452  -18.3251  -42.9655 C.3       8 UNK         0.1400 
     33 CB         -1.3431  -17.6969  -42.0946 C.3       8 UNK        -0.1800 
     34 N           1.0479  -17.7410  -42.5963 N.am      8 UNK        -0.5000 
     35 C           2.2430  -18.0189  -43.1402 C.2       7 UNK         0.5000 
     36 O           2.4099  -18.8403  -44.0414 O.2       7 UNK        -0.5000 
     37 CA          3.4712  -17.3226  -42.5221 C.3       7 UNK         0.1400 
     38 CB          3.8368  -16.0556  -43.3079 C.3       7 UNK        -0.1800 
     39 N           3.2948  -16.9767  -41.1102 N.am      7 UNK        -0.5000 
     40 C           3.0939  -17.8403  -40.1062 C.2       6 UNK         0.5000 
     41 O           3.0697  -19.0624  -40.2591 O.2       6 UNK        -0.5000 
     42 CA          2.8262  -17.2490  -38.7056 C.3       6 UNK         0.1400 
     43 CB          4.1414  -16.9809  -37.9493 C.3       6 UNK        -0.1800 
     44 N           1.9425  -16.0714  -38.7064 N.am      6 UNK        -0.5000 
     45 C           2.1776  -14.8450  -39.1931 C.2       5 UNK         0.5000 
     46 O           3.2542  -14.4855  -39.6757 O.2       5 UNK        -0.5000 
     47 CA          0.9879  -13.8659  -39.1768 C.3       5 UNK         0.1400 
     48 CB          1.1124  -12.8842  -38.0020 C.3       5 UNK        -0.1800 
     49 N           0.8785  -13.1090  -40.4271 N.am      5 UNK        -0.5000 
     50 C           0.7258  -13.6508  -41.6431 C.2       4 UNK         0.5000 
     51 O           0.6140  -14.8641  -41.8420 O.2       4 UNK        -0.5000 
     52 CA          0.7075  -12.6717  -42.8277 C.3       4 UNK         0.1400 
     53 CB          2.1006  -12.0624  -43.0715 C.3       4 UNK        -0.1800 
     54 N           0.2710  -13.3774  -44.0265 N.am      4 UNK        -0.5000 
     55 C          -0.3243  -12.8442  -45.0959 C.2       3 UNK         0.5000 
     56 O          -0.5740  -11.6421  -45.2061 O.2       3 UNK        -0.5000 
     57 CA         -0.6749  -13.8247  -46.2379 C.3       3 UNK         0.1400 
     58 CB         -1.6155  -13.2029  -47.2845 C.3       3 UNK        -0.1800 
     59 N           0.5212  -14.3265  -46.9179 N.am      3 UNK        -0.5000 
     60 C           1.3776  -15.2222  -46.4081 C.2       2 UNK         0.5000 
     61 O           1.2256  -15.7372  -45.3011 O.2       2 UNK        -0.5000 
     62 CA          2.6009  -15.6227  -47.2540 C.3       2 UNK         0.1400 
     63 CB          2.6968  -17.1485  -47.3947 C.3       2 UNK        -0.1800 
     64 N           2.6100  -15.0286  -48.5914 N.am      2 UNK        -0.5000 
     65 C           3.2222  -13.8816  -48.9078 C.2       1 UNK         0.5000 
     66 O           3.7661  -13.1422  -48.0842 O.2       1 UNK        -0.5000 
     67 C          -2.3934  -21.7309  -46.7430 C.2       11 UNK         0.5000 
     68 O          -3.1585  -22.0972  -47.6361 O.2       11 UNK        -0.5000 
     69 N          -2.2898  -22.3440  -45.5559 N.am      12 UNK        -0.5000 
     70 CA         -2.9769  -23.5884  -45.2152 C.3       12 UNK         0.1400 
     71 CB         -2.8289  -23.8693  -43.7124 C.3       12 UNK        -0.1800 
     72 C          -2.4736  -24.7739  -46.0606 C.2       12 UNK         0.5000 
     73 O          -3.2908  -25.5358  -46.5773 O.2       12 UNK        -0.5000 
     74 N          -1.1464  -24.8799  -46.2263 N.am      13 UNK        -0.5000 
     75 CA         -0.4891  -25.8973  -47.0518 C.3       13 UNK         0.1400 
     76 CB          1.0254  -25.8633  -46.7982 C.3       13 UNK        -0.1800 
     77 C          -0.7956  -25.7509  -48.5560 C.2       13 UNK         0.5000 
     78 O          -1.0307  -26.7553  -49.2281 O.2       13 UNK        -0.5000 
     79 N          -0.8160  -24.5051  -49.0499 N.am      14 UNK        -0.5000 
     80 CA         -1.1570  -24.1439  -50.4292 C.3       14 UNK         0.1400 
     81 CB         -0.6423  -22.7238  -50.7177 C.3       14 UNK        -0.1800 
     82 C          -2.6643  -24.2389  -50.7405 C.2       14 UNK         0.5000 
     83 O          -3.0357  -24.1454  -51.9103 O.2       14 UNK        -0.5000 
     84 N          -3.4934  -24.4127  -49.7010 N.am      15 UNK        -0.5000 
     85 CA         -4.9519  -24.5148  -49.7237 C.3       15 UNK         0.1400 
     86 CB         -5.4069  -25.7815  -50.4775 C.3       15 UNK        -0.1800 
     87 C          -5.6109  -23.2221  -50.2379 C.2       15 UNK         0.5000 
     88 O          -6.3039  -23.2288  -51.2581 O.2       15 UNK        -0.5000 
     89 N          -5.3722  -22.1202  -49.5148 N.am      16 UNK        -0.5000 
     90 CA         -6.0028  -20.8168  -49.7312 C.3       16 UNK         0.1400 
     91 CB         -5.5045  -19.8312  -48.6671 C.3       16 UNK        -0.1800 
     92 C          -7.5420  -20.8839  -49.7456 C.2       16 UNK         0.5000 
     93 O          -8.1323  -21.6666  -48.9977 O.2       16 UNK        -0.5000 
     94 N          -8.1496  -20.0906  -50.6382 N.am      17 UNK        -0.5000 
     95 CA         -9.5746  -20.0297  -50.9976 C.3       17 UNK         0.1400 
     96 CB        -10.4578  -19.6799  -49.7846 C.3       17 UNK        -0.1800 
     97 C         -10.1023  -21.2805  -51.7338 C.2       17 UNK         0.5000 
     98 O         -10.8635  -21.1319  -52.6895 O.2       17 UNK        -0.5000 
     99 N          -9.6838  -22.4777  -51.3045 N.am      18 UNK        -0.5000 
    100 CA       -10.0557  -23.7657  -51.8909 C.3       18 UNK         0.1400 
    101 CB        -9.6924  -24.8928  -50.9119 C.3       18 UNK        -0.1800 
    102 C         -9.4041  -23.9911  -53.2670 C.2       18 UNK         0.5000 
    103 O        -10.1094  -24.2658  -54.2384 O.2       18 UNK        -0.5000 
    104 N         -8.0750  -23.8442  -53.3231 N.am      19 UNK        -0.5000 
    105 CA        -7.2583  -23.9348  -54.5364 C.3       19 UNK         0.1400 
    106 CB        -6.0909  -24.8997  -54.2715 C.3       19 UNK        -0.1800 
    107 C         -6.7305  -22.5528  -54.9713 C.2       19 UNK         0.5000 
    108 O         -5.9870  -22.4736  -55.9492 O.2       19 UNK        -0.5000 
    109 N         -7.1170  -21.4975  -54.2370 N.am      20 UNK        -0.5000 
    110 CA        -6.7304  -20.0916  -54.4084 C.3       20 UNK         0.1400 
    111 CB        -7.1695  -19.5486  -55.7846 C.3       20 UNK        -0.1800 
    112 C         -5.2449  -19.8110  -54.0886 C.2       20 UNK         0.5000 
    113 O         -4.6890  -18.8307  -54.5858 O.2       20 UNK        -0.5000 
    114 N         -4.6531  -20.6476  -53.2226 N.am      21 UNK        -0.5000 
    115 CA        -3.2801  -20.5735  -52.7135 C.3       21 UNK         0.1400 
    116 CB        -3.0732  -19.3030  -51.8550 C.3       21 UNK        -0.1800 
    117 C         -2.2138  -20.7454  -53.8193 C.2       21 UNK         0.5000 
    118 O         -2.4282  -21.5031  -54.7676 O.2       21 UNK        -0.5000 
    119 N         -1.0646  -20.0826  -53.6433 N.am      22 UNK        -0.5000 
    120 CA         0.1012  -20.1111  -54.5355 C.3       22 UNK         0.1400 
    121 C         -0.1988  -19.5287  -55.9447 C.2       22 UNK         0.5000 
    122 N          0.2852  -20.1648  -57.0030 N.am      22 UNK        -0.7600 
    123 O         -0.8220  -18.4789  -56.0838 O.2       22 UNK        -0.5000 
    124 C124        1.3091  -19.3770  -53.8988 C.3       23 UNK        -0.0398 
    125 S125        1.7795  -20.0754  -52.2776 S.3       23 UNK        -0.2404 
    126 C126        2.3531  -18.5979  -51.3790 C.3       23 UNK        -0.0205 
    127 H127        6.9201  -12.3108  -51.4512 H         1 UNK         0.0600 
    128 H128        7.6910  -13.6013  -50.5206 H         1 UNK         0.0600 
    129 H129        7.3389  -13.8371  -52.2379 H         1 UNK         0.0600 
    130 H130        4.7655  -12.1346  -50.9106 H         1 UNK         0.3000 
    131 H131        2.9715  -14.3807  -50.9853 H         1 UNK         0.0600 
    132 H132        2.4547  -11.4784  -50.1823 H         1 UNK         0.0800 
    133 H133        2.3335  -12.1017  -51.8018 H         1 UNK         0.0800 
    134 H134        0.8402  -13.9247  -52.5869 H         1 UNK         0.0800 
    135 H135       -0.8518  -13.8553  -52.1691 H         1 UNK         0.0800 
    136 H136        1.9428  -16.0508  -52.2765 H         1 UNK         0.1150 
    137 H137        0.2632  -19.0230  -49.6837 H         1 UNK         0.1150 
    138 H138       -1.5811  -15.1675  -50.0051 H         1 UNK         0.1150 
    139 H139       -2.2780  -18.5156  -49.1048 H         1 UNK         0.0800 
    140 H140       -2.6767  -16.8582  -48.7379 H         1 UNK         0.0800 
    141 H141       -3.1465  -19.1306  -46.9092 H         1 UNK         0.0800 
    142 H142       -2.2192  -19.1770  -45.4464 H         1 UNK         0.0800 
    143 H143       -1.3221  -20.4756  -48.0738 H         1 UNK         0.0600 
    144 H144        0.0998  -20.1856  -45.5949 H         1 UNK         0.3000 
    145 H145        2.3667  -22.8863  -46.1295 H         1 UNK         0.0600 
    146 H146        4.0708  -21.0717  -45.9672 H         1 UNK         0.0600 
    147 H147        3.3668  -21.1554  -47.5769 H         1 UNK         0.0600 
    148 H148        2.8628  -19.8907  -46.4677 H         1 UNK         0.0600 
    149 H149        2.1133  -20.7058  -44.2244 H         1 UNK         0.3000 
    150 H150       -0.0463  -22.4679  -41.9906 H         1 UNK         0.0600 
    151 H151        2.9452  -21.8663  -41.6738 H         1 UNK         0.0600 
    152 H152        2.1910  -23.4372  -41.4200 H         1 UNK         0.0600 
    153 H153        1.7895  -22.0921  -40.3625 H         1 UNK         0.0600 
    154 H154        1.3616  -19.9841  -41.7818 H         1 UNK         0.3000 
    155 H155       -0.4317  -18.0428  -44.0032 H         1 UNK         0.0600 
    156 H156       -2.3234  -18.1091  -42.3377 H         1 UNK         0.0600 
    157 H157       -1.4015  -16.6199  -42.2510 H         1 UNK         0.0600 
    158 H158       -1.1637  -17.8745  -41.0337 H         1 UNK         0.0600 
    159 H159        1.0126  -16.9807  -41.9278 H         1 UNK         0.3000 
    160 H160        4.3085  -18.0199  -42.5897 H         1 UNK         0.0600 
    161 H161        3.0432  -15.3102  -43.2535 H         1 UNK         0.0600 
    162 H162        4.0008  -16.2846  -44.3614 H         1 UNK         0.0600 
    163 H163        4.7511  -15.6017  -42.9258 H         1 UNK         0.0600 
    164 H164        3.3035  -15.9886  -40.8750 H         1 UNK         0.3000 
    165 H165        2.2856  -18.0155  -38.1478 H         1 UNK         0.0600 
    166 H166        3.9491  -16.6026  -36.9453 H         1 UNK         0.0600 
    167 H167        4.7732  -16.2581  -38.4658 H         1 UNK         0.0600 
    168 H168        4.7208  -17.8990  -37.8454 H         1 UNK         0.0600 
    169 H169        1.0133  -16.2551  -38.3535 H         1 UNK         0.3000 
    170 H170        0.0640  -14.4353  -39.0563 H         1 UNK         0.0600 
    171 H171        1.1723  -13.4172  -37.0522 H         1 UNK         0.0600 
    172 H172        2.0070  -12.2660  -38.0881 H         1 UNK         0.0600 
    173 H173        0.2489  -12.2210  -37.9473 H         1 UNK         0.0600 
    174 H174        0.9919  -12.1090  -40.3516 H         1 UNK         0.3000 
    175 H175       -0.0056  -11.8779  -42.5965 H         1 UNK         0.0600 
    176 H176        2.8378  -12.8309  -43.3059 H         1 UNK         0.0600 
    177 H177        2.0829  -11.3544  -43.9001 H         1 UNK         0.0600 
    178 H178        2.4569  -11.5219  -42.1941 H         1 UNK         0.0600 
    179 H179        0.4626  -14.3769  -44.0242 H         1 UNK         0.3000 
    180 H180       -1.1987  -14.6723  -45.7904 H         1 UNK         0.0600 
    181 H181       -1.1433  -12.3720  -47.8096 H         1 UNK         0.0600 
    182 H182       -2.5245  -12.8233  -46.8166 H         1 UNK         0.0600 
    183 H183       -1.9192  -13.9407  -48.0260 H         1 UNK         0.0600 
    184 H184        0.7194  -13.9406  -47.8291 H         1 UNK         0.3000 
    185 H185        3.4842  -15.2901  -46.7050 H         1 UNK         0.0600 
    186 H186        2.8139  -17.6113  -46.4158 H         1 UNK         0.0600 
    187 H187        1.8025  -17.5710  -47.8505 H         1 UNK         0.0600 
    188 H188        3.5562  -17.4423  -47.9972 H         1 UNK         0.0600 
    189 H189        2.1519  -15.5639  -49.3165 H         1 UNK         0.3000 
    190 H190       -1.6880  -21.9366  -44.8485 H         1 UNK         0.3000 
    191 H191       -4.0393  -23.4536  -45.4290 H         1 UNK         0.0600 
    192 H192       -3.3827  -24.7649  -43.4285 H         1 UNK         0.0600 
    193 H193       -3.2182  -23.0429  -43.1173 H         1 UNK         0.0600 
    194 H194       -1.7889  -24.0244  -43.4270 H         1 UNK         0.0600 
    195 H195       -0.5413  -24.2345  -45.7317 H         1 UNK         0.3000 
    196 H196       -0.8615  -26.8728  -46.7322 H         1 UNK         0.0600 
    197 H197        1.4655  -24.9172  -47.1122 H         1 UNK         0.0600 
    198 H198        1.2529  -26.0045  -45.7413 H         1 UNK         0.0600 
    199 H199        1.5302  -26.6575  -47.3495 H         1 UNK         0.0600 
    200 H200       -0.5208  -23.7378  -48.4497 H         1 UNK         0.3000 
    201 H201       -0.6418  -24.8341  -51.1001 H         1 UNK         0.0600 
    202 H202       -1.1512  -21.9787  -50.1053 H         1 UNK         0.0600 
    203 H203       -0.7976  -22.4566  -51.7628 H         1 UNK         0.0600 
    204 H204        0.4275  -22.6428  -50.5251 H         1 UNK         0.0600 
    205 H205       -3.0757  -24.4371  -48.7806 H         1 UNK         0.3000 
    206 H206       -5.2656  -24.6269  -48.6848 H         1 UNK         0.0600 
    207 H207       -4.9613  -26.6759  -50.0422 H         1 UNK         0.0600 
    208 H208       -5.1337  -25.7539  -51.5314 H         1 UNK         0.0600 
    209 H209       -6.4888  -25.9005  -50.4244 H         1 UNK         0.0600 
    210 H210       -4.7289  -22.1855  -48.7303 H         1 UNK         0.3000 
    211 H211       -5.6787  -20.4645  -50.7084 H         1 UNK         0.0600 
    212 H212       -4.4258  -19.7039  -48.7395 H         1 UNK         0.0600 
    213 H213       -5.7376  -20.1761  -47.6591 H         1 UNK         0.0600 
    214 H214       -5.9571  -18.8471  -48.7948 H         1 UNK         0.0600 
    215 H215       -7.5633  -19.4719  -51.1793 H         1 UNK         0.3000 
    216 H216       -9.6581  -19.2015  -51.7032 H         1 UNK         0.0600 
    217 H217      -10.4761  -20.4801  -49.0446 H         1 UNK         0.0600 
    218 H218      -11.4885  -19.5049  -50.0950 H         1 UNK         0.0600 
    219 H219      -10.1088  -18.7731  -49.2908 H         1 UNK         0.0600 
    220 H220       -9.0706  -22.4962  -50.4952 H         1 UNK         0.3000 
    221 H221      -11.1389  -23.7777  -52.0297 H         1 UNK         0.0600 
    222 H222      -10.2493  -24.7968  -49.9798 H         1 UNK         0.0600 
    223 H223       -8.6307  -24.8865  -50.6663 H         1 UNK         0.0600 
    224 H224       -9.9289  -25.8707  -51.3334 H         1 UNK         0.0600 
    225 H225       -7.5588  -23.6370  -52.4681 H         1 UNK         0.3000 
    226 H226       -7.8477  -24.3321  -55.3648 H         1 UNK         0.0600 
    227 H227       -5.3969  -24.4949  -53.5342 H         1 UNK         0.0600 
    228 H228       -6.4468  -25.8633  -53.9069 H         1 UNK         0.0600 
    229 H229       -5.5230  -25.0866  -55.1834 H         1 UNK         0.0600 
    230 H230       -7.7377  -21.6939  -53.4658 H         1 UNK         0.3000 
    231 H231       -7.2972  -19.5404  -53.6573 H         1 UNK         0.0600 
    232 H232       -8.2203  -19.7649  -55.9775 H         1 UNK         0.0600 
    233 H233       -6.5826  -19.9764  -56.5975 H         1 UNK         0.0600 
    234 H234       -7.0488  -18.4658  -55.8337 H         1 UNK         0.0600 
    235 H235       -5.1764  -21.4618  -52.9316 H         1 UNK         0.3000 
    236 H236       -3.1692  -21.4318  -52.0509 H         1 UNK         0.0600 
    237 H237       -3.8718  -19.1671  -51.1294 H         1 UNK         0.0600 
    238 H238       -2.1430  -19.3657  -51.2912 H         1 UNK         0.0600 
    239 H239       -3.0309  -18.3998  -52.4651 H         1 UNK         0.0600 
    240 H240       -0.9754  -19.4770  -52.8414 H         1 UNK         0.3000 
    241 H241        0.3748  -21.1610  -54.6574 H         1 UNK         0.0600 
    242 H242        0.8066  -21.0234  -56.9132 H         1 UNK         0.3800 
    243 H243        0.1123  -19.7875  -57.9221 H         1 UNK         0.3800 
    244 H244        1.0867  -18.3145  -53.7884 H         1 UNK         0.0800 
    245 H245        2.1811  -19.4395  -54.5522 H         1 UNK         0.0800 
    246 H246        2.8407  -18.9189  -50.4574 H         1 UNK         0.0800 
    247 H247        3.1209  -18.0944  -51.9687 H         1 UNK         0.0800 
@<TRIPOS>BOND
     1    1    2 1    
     2    1  127 1    
     3    1  128 1    
     4    1  129 1    
     5    2    3 2    
     6    2    4 am   BACKBONE|DICT|INTERRES
     7    4    5 1    
     8    4  130 1    
     9    5    6 1    
    10    5   65 1    
    11    5  131 1    
    12    6    7 1    
    13    6  132 1    
    14    6  133 1    
    15    7    8 1    
    16    8    9 1    
    17    8  134 1    
    18    8  135 1    
    19    9   10 ar   
    20    9   14 ar   
    21   10   11 ar   
    22   10  136 1    
    23   11   12 ar   
    24   11  126 1    
    25   12   13 ar   
    26   12  137 1    
    27   13   14 ar   
    28   13   15 1    
    29   14  138 1    
    30   15   16 1    
    31   15  139 1    
    32   15  140 1    
    33   16   17 1    
    34   17   18 1    
    35   17  141 1    
    36   17  142 1    
    37   18   19 1    
    38   18   67 1    
    39   18  143 1    
    40   19   20 am   BACKBONE|DICT|INTERRES
    41   19  144 1    
    42   20   21 2    
    43   20   22 1    
    44   22   23 1    
    45   22   24 1    
    46   22  145 1    
    47   23  146 1    
    48   23  147 1    
    49   23  148 1    
    50   24   25 am   BACKBONE|DICT|INTERRES
    51   24  149 1    
    52   25   26 2    
    53   25   27 1    
    54   27   28 1    
    55   27   29 1    
    56   27  150 1    
    57   28  151 1    
    58   28  152 1    
    59   28  153 1    
    60   29   30 am   BACKBONE|DICT|INTERRES
    61   29  154 1    
    62   30   31 2    
    63   30   32 1    
    64   32   33 1    
    65   32   34 1    
    66   32  155 1    
    67   33  156 1    
    68   33  157 1    
    69   33  158 1    
    70   34   35 am   BACKBONE|DICT|INTERRES
    71   34  159 1    
    72   35   36 2    
    73   35   37 1    
    74   37   38 1    
    75   37   39 1    
    76   37  160 1    
    77   38  161 1    
    78   38  162 1    
    79   38  163 1    
    80   39   40 am   BACKBONE|DICT|INTERRES
    81   39  164 1    
    82   40   41 2    
    83   40   42 1    
    84   42   43 1    
    85   42   44 1    
    86   42  165 1    
    87   43  166 1    
    88   43  167 1    
    89   43  168 1    
    90   44   45 am   BACKBONE|DICT|INTERRES
    91   44  169 1    
    92   45   46 2    
    93   45   47 1    
    94   47   48 1    
    95   47   49 1    
    96   47  170 1    
    97   48  171 1    
    98   48  172 1    
    99   48  173 1    
   100   49   50 am   BACKBONE|DICT|INTERRES
   101   49  174 1    
   102   50   51 2    
   103   50   52 1    
   104   52   53 1    
   105   52   54 1    
   106   52  175 1    
   107   53  176 1    
   108   53  177 1    
   109   53  178 1    
   110   54   55 am   BACKBONE|DICT|INTERRES
   111   54  179 1    
   112   55   56 2    
   113   55   57 1    
   114   57   58 1    
   115   57   59 1    
   116   57  180 1    
   117   58  181 1    
   118   58  182 1    
   119   58  183 1    
   120   59   60 am   BACKBONE|DICT|INTERRES
   121   59  184 1    
   122   60   61 2    
   123   60   62 1    
   124   62   63 1    
   125   62   64 1    
   126   62  185 1    
   127   63  186 1    
   128   63  187 1    
   129   63  188 1    
   130   64   65 am   BACKBONE|DICT|INTERRES
   131   64  189 1    
   132   65   66 2    
   133   67   68 2    
   134   67   69 am   BACKBONE|DICT|INTERRES
   135   69   70 1    
   136   69  190 1    
   137   70   71 1    
   138   70   72 1    
   139   70  191 1    
   140   71  192 1    
   141   71  193 1    
   142   71  194 1    
   143   72   73 2    
   144   72   74 am   BACKBONE|DICT|INTERRES
   145   74   75 1    
   146   74  195 1    
   147   75   76 1    
   148   75   77 1    
   149   75  196 1    
   150   76  197 1    
   151   76  198 1    
   152   76  199 1    
   153   77   78 2    
   154   77   79 am   BACKBONE|DICT|INTERRES
   155   79   80 1    
   156   79  200 1    
   157   80   81 1    
   158   80   82 1    
   159   80  201 1    
   160   81  202 1    
   161   81  203 1    
   162   81  204 1    
   163   82   83 2    
   164   82   84 am   BACKBONE|DICT|INTERRES
   165   84   85 1    
   166   84  205 1    
   167   85   86 1    
   168   85   87 1    
   169   85  206 1    
   170   86  207 1    
   171   86  208 1    
   172   86  209 1    
   173   87   88 2    
   174   87   89 am   BACKBONE|DICT|INTERRES
   175   89   90 1    
   176   89  210 1    
   177   90   91 1    
   178   90   92 1    
   179   90  211 1    
   180   91  212 1    
   181   91  213 1    
   182   91  214 1    
   183   92   93 2    
   184   92   94 am   BACKBONE|DICT|INTERRES
   185   94   95 1    
   186   94  215 1    
   187   95   96 1    
   188   95   97 1    
   189   95  216 1    
   190   96  217 1    
   191   96  218 1    
   192   96  219 1    
   193   97   98 2    
   194   97   99 am   BACKBONE|DICT|INTERRES
   195   99  100 1    
   196   99  220 1    
   197  100  101 1    
   198  100  102 1    
   199  100  221 1    
   200  101  222 1    
   201  101  223 1    
   202  101  224 1    
   203  102  103 2    
   204  102  104 am   BACKBONE|DICT|INTERRES
   205  104  105 1    
   206  104  225 1    
   207  105  106 1    
   208  105  107 1    
   209  105  226 1    
   210  106  227 1    
   211  106  228 1    
   212  106  229 1    
   213  107  108 2    
   214  107  109 am   BACKBONE|DICT|INTERRES
   215  109  110 1    
   216  109  230 1    
   217  110  111 1    
   218  110  112 1    
   219  110  231 1    
   220  111  232 1    
   221  111  233 1    
   222  111  234 1    
   223  112  113 2    
   224  112  114 am   BACKBONE|DICT|INTERRES
   225  114  115 1    
   226  114  235 1    
   227  115  116 1    
   228  115  117 1    
   229  115  236 1    
   230  116  237 1    
   231  116  238 1    
   232  116  239 1    
   233  117  118 2    
   234  117  119 am   BACKBONE|DICT|INTERRES
   235  119  120 1    
   236  119  240 1    
   237  120  121 1    
   238  120  124 1    
   239  120  241 1    
   240  121  122 am   BACKBONE|DICT|INTERRES
   241  121  123 2    
   242  122  242 1    
   243  122  243 1    
   244  124  125 1    
   245  124  244 1    
   246  124  245 1    
   247  125  126 1    
   248  126  246 1    
   249  126  247 1    
@<TRIPOS>SUBSTRUCTURE
     1 UNK         1 GROUP             0       ****    0 ROOT    
