@<TRIPOS>MOLECULE
3R540
247   249    1
SMALL
USER_CHARGES


@<TRIPOS>ATOM
      1 CA          0.1950   -9.6116  -50.0680 C.3       0 UNK        -0.1800 
      2 C           0.4692  -10.9940  -49.4960 C.2       0 UNK         0.5000 
      3 O           0.2749  -11.2100  -48.2990 O.2       0 UNK        -0.5000 
      4 N           0.9019  -11.9378  -50.3455 N.am      1 UNK        -0.5000 
      5 CA          1.2537  -13.3193  -49.9815 C.3       1 UNK         0.1400 
      6 C6          1.8201  -14.1069  -51.1894 C.3       23 UNK        -0.0398 
      7 S7          3.0398  -15.3734  -50.6953 S.3       23 UNK        -0.2404 
      8 C8          2.5437  -16.8076  -51.7019 C.3       23 UNK        -0.0205 
      9 C9          1.7349  -17.8285  -50.9135 C.ar      23 UNK        -0.0193 
     10 C10         0.3725  -17.6216  -50.6690 C.ar      23 UNK        -0.1150 
     11 C11        -0.3847  -18.5998  -50.0168 C.ar      23 UNK        -0.0193 
     12 C12         0.2290  -19.7863  -49.6189 C.ar      23 UNK        -0.1150 
     13 C13         1.5960  -19.9871  -49.8062 C.ar      23 UNK        -0.0193 
     14 C14         2.3448  -19.0057  -50.4620 C.ar      23 UNK        -0.1150 
     15 C15         2.2433  -21.2770  -49.3207 C.3       23 UNK        -0.0205 
     16 S16         2.9795  -21.1287  -47.6549 S.3       23 UNK        -0.2404 
     17 C17         1.5382  -20.7642  -46.5935 C.3       23 UNK        -0.0398 
     18 CA          0.7074  -22.0263  -46.2530 C.3       11 UNK         0.1400 
     19 N           1.0996  -22.6384  -44.9826 N.am      11 UNK        -0.5000 
     20 C           0.7840  -23.8918  -44.6290 C.2       10 UNK         0.5000 
     21 O           0.1632  -24.6696  -45.3538 O.2       10 UNK        -0.5000 
     22 CA          1.1683  -24.3148  -43.2004 C.3       10 UNK         0.1400 
     23 CB          2.6531  -24.6993  -43.1248 C.3       10 UNK        -0.1800 
     24 N           0.8854  -23.2675  -42.2163 N.am      10 UNK        -0.5000 
     25 C          -0.3307  -22.7841  -41.9360 C.2       9 UNK         0.5000 
     26 O          -1.3570  -23.1981  -42.4752 O.2       9 UNK        -0.5000 
     27 CA         -0.4264  -21.6200  -40.9295 C.3       9 UNK         0.1400 
     28 CB         -0.4819  -22.1395  -39.4812 C.3       9 UNK        -0.1800 
     29 N           0.5965  -20.5757  -41.0927 N.am      9 UNK        -0.5000 
     30 C           1.9210  -20.6430  -40.8784 C.2       8 UNK         0.5000 
     31 O           2.5008  -21.6712  -40.5270 O.2       8 UNK        -0.5000 
     32 CA          2.7554  -19.3692  -41.1269 C.3       8 UNK         0.1400 
     33 CB          3.7092  -19.5776  -42.3148 C.3       8 UNK        -0.1800 
     34 N           1.9341  -18.1805  -41.3710 N.am      8 UNK        -0.5000 
     35 C           1.3593  -17.4457  -40.4057 C.2       7 UNK         0.5000 
     36 O           1.5166  -17.6679  -39.2046 O.2       7 UNK        -0.5000 
     37 CA          0.4402  -16.2801  -40.8341 C.3       7 UNK         0.1400 
     38 CB          1.1745  -14.9380  -40.6956 C.3       7 UNK        -0.1800 
     39 N          -0.0819  -16.3881  -42.1970 N.am      7 UNK        -0.5000 
     40 C          -0.8668  -17.3715  -42.6587 C.2       6 UNK         0.5000 
     41 O          -1.2734  -18.3045  -41.9659 O.2       6 UNK        -0.5000 
     42 CA         -1.1814  -17.3462  -44.1672 C.3       6 UNK         0.1400 
     43 CB         -2.4865  -16.5829  -44.4301 C.3       6 UNK        -0.1800 
     44 N          -0.0988  -16.7799  -44.9778 N.am      6 UNK        -0.5000 
     45 C           1.1496  -17.2696  -45.0230 C.2       5 UNK         0.5000 
     46 O           1.5178  -18.2389  -44.3616 O.2       5 UNK        -0.5000 
     47 CA          2.1677  -16.5361  -45.9076 C.3       5 UNK         0.1400 
     48 CB          2.2102  -17.1518  -47.3117 C.3       5 UNK        -0.1800 
     49 N           1.8754  -15.1058  -45.9974 N.am      5 UNK        -0.5000 
     50 C           2.2191  -14.2232  -45.0494 C.2       4 UNK         0.5000 
     51 O           2.8247  -14.5301  -44.0221 O.2       4 UNK        -0.5000 
     52 CA          1.8159  -12.7551  -45.2693 C.3       4 UNK         0.1400 
     53 CB          2.8222  -12.0468  -46.1885 C.3       4 UNK        -0.1800 
     54 N           0.4646  -12.5829  -45.8019 N.am      4 UNK        -0.5000 
     55 C          -0.6602  -12.8888  -45.1390 C.2       3 UNK         0.5000 
     56 O          -0.6758  -13.4468  -44.0413 O.2       3 UNK        -0.5000 
     57 CA         -1.9875  -12.5063  -45.8139 C.3       3 UNK         0.1400 
     58 CB         -2.2336  -10.9926  -45.7110 C.3       3 UNK        -0.1800 
     59 N          -1.9776  -12.9002  -47.2207 N.am      3 UNK        -0.5000 
     60 C          -2.6591  -13.9380  -47.7232 C.2       2 UNK         0.5000 
     61 O          -3.4855  -14.5817  -47.0792 O.2       2 UNK        -0.5000 
     62 CA         -2.3811  -14.3419  -49.1881 C.3       2 UNK         0.1400 
     63 CB         -3.5555  -13.9500  -50.0979 C.3       2 UNK        -0.1800 
     64 N          -1.1433  -13.7992  -49.7501 N.am      2 UNK        -0.5000 
     65 C           0.0912  -14.0762  -49.3063 C.2       1 UNK         0.5000 
     66 O           0.3210  -14.8230  -48.3582 O.2       1 UNK        -0.5000 
     67 C          -0.8089  -21.7497  -46.3146 C.2       11 UNK         0.5000 
     68 O          -1.3790  -21.8698  -47.3954 O.2       11 UNK        -0.5000 
     69 N          -1.4594  -21.4496  -45.1789 N.am      12 UNK        -0.5000 
     70 CA         -2.9184  -21.2962  -45.1158 C.3       12 UNK         0.1400 
     71 CB         -3.3508  -20.7108  -43.7629 C.3       12 UNK        -0.1800 
     72 C          -3.6606  -22.6154  -45.3977 C.2       12 UNK         0.5000 
     73 O          -4.6909  -22.5993  -46.0708 O.2       12 UNK        -0.5000 
     74 N          -3.1050  -23.7311  -44.9050 N.am      13 UNK        -0.5000 
     75 CA         -3.5891  -25.0827  -45.1777 C.3       13 UNK         0.1400 
     76 CB         -2.9424  -26.0661  -44.1900 C.3       13 UNK        -0.1800 
     77 C          -3.3382  -25.5151  -46.6354 C.2       13 UNK         0.5000 
     78 O          -4.2272  -26.1043  -47.2513 O.2       13 UNK        -0.5000 
     79 N          -2.1402  -25.2179  -47.1605 N.am      14 UNK        -0.5000 
     80 CA         -1.7331  -25.5552  -48.5269 C.3       14 UNK         0.1400 
     81 CB         -0.2079  -25.4230  -48.6519 C.3       14 UNK        -0.1800 
     82 C          -2.4264  -24.7011  -49.6044 C.2       14 UNK         0.5000 
     83 O          -2.6969  -25.2070  -50.6944 O.2       14 UNK        -0.5000 
     84 N          -2.6554  -23.4136  -49.3031 N.am      15 UNK        -0.5000 
     85 CA         -3.2934  -22.3860  -50.1378 C.3       15 UNK         0.1400 
     86 CB         -4.7764  -22.7397  -50.3583 C.3       15 UNK        -0.1800 
     87 C          -2.5520  -22.0900  -51.4632 C.2       15 UNK         0.5000 
     88 O          -3.1526  -21.5506  -52.3971 O.2       15 UNK        -0.5000 
     89 N          -1.2722  -22.4900  -51.5304 N.am      16 UNK        -0.5000 
     90 CA         -0.4204  -22.5728  -52.7226 C.3       16 UNK         0.1400 
     91 CB         -0.0784  -21.1698  -53.2612 C.3       16 UNK        -0.1800 
     92 C          -1.0325  -23.4955  -53.7997 C.2       16 UNK         0.5000 
     93 O          -1.0703  -23.1325  -54.9746 O.2       16 UNK        -0.5000 
     94 N          -1.5637  -24.6498  -53.3641 N.am      17 UNK        -0.5000 
     95 CA         -2.3419  -25.6135  -54.1554 C.3       17 UNK         0.1400 
     96 CB         -1.4765  -26.2684  -55.2527 C.3       17 UNK        -0.1800 
     97 C          -3.6505  -24.9952  -54.6947 C.2       17 UNK         0.5000 
     98 O          -4.0579  -25.2750  -55.8228 O.2       17 UNK        -0.5000 
     99 N          -4.2582  -24.1352  -53.8643 N.am      18 UNK        -0.5000 
    100 CA        -5.4543  -23.3199  -54.1001 C.3       18 UNK         0.1400 
    101 CB        -6.6815  -24.2017  -54.4089 C.3       18 UNK        -0.1800 
    102 C         -5.2697  -22.1850  -55.1307 C.2       18 UNK         0.5000 
    103 O         -6.2555  -21.5329  -55.4773 O.2       18 UNK        -0.5000 
    104 N         -4.0339  -21.9348  -55.5891 N.am      19 UNK        -0.5000 
    105 CA        -3.7241  -20.8843  -56.5607 C.3       19 UNK         0.1400 
    106 CB        -2.3674  -21.1716  -57.2203 C.3       19 UNK        -0.1800 
    107 C         -3.7280  -19.4765  -55.9393 C.2       19 UNK         0.5000 
    108 O         -4.1104  -18.5234  -56.6194 O.2       19 UNK        -0.5000 
    109 N         -3.3029  -19.3685  -54.6727 N.am      20 UNK        -0.5000 
    110 CA        -3.2181  -18.1026  -53.9379 C.3       20 UNK         0.1400 
    111 CB        -1.8389  -18.0041  -53.2767 C.3       20 UNK        -0.1800 
    112 C         -4.3330  -17.9570  -52.8879 C.2       20 UNK         0.5000 
    113 O         -4.5308  -16.8558  -52.3730 O.2       20 UNK        -0.5000 
    114 N         -5.0347  -19.0590  -52.5859 N.am      21 UNK        -0.5000 
    115 CA        -6.1996  -19.2050  -51.7046 C.3       21 UNK         0.1400 
    116 CB        -7.3743  -18.3258  -52.1736 C.3       21 UNK        -0.1800 
    117 C         -5.9145  -18.9976  -50.2041 C.2       21 UNK         0.5000 
    118 O         -6.3647  -19.8105  -49.3976 O.2       21 UNK        -0.5000 
    119 N         -5.1858  -17.9298  -49.8534 N.am      22 UNK        -0.5000 
    120 CA        -4.8651  -17.5112  -48.4746 C.3       22 UNK         0.1400 
    121 C         -6.1121  -17.1076  -47.6209 C.2       22 UNK         0.5000 
    122 N         -7.2215  -16.7089  -48.2329 N.am      22 UNK        -0.7600 
    123 O         -6.0807  -17.1276  -46.3937 O.2       22 UNK        -0.5000 
    124 C124       -3.8990  -18.5070  -47.7591 C.3       23 UNK        -0.0398 
    125 S125       -2.1370  -18.0845  -47.9651 S.3       23 UNK        -0.2404 
    126 C126       -1.8642  -18.4025  -49.7327 C.3       23 UNK        -0.0205 
    127 H127        0.3974   -9.5673  -51.1383 H         1 UNK         0.0600 
    128 H128       -0.8482   -9.3403  -49.9063 H         1 UNK         0.0600 
    129 H129        0.8218   -8.8711  -49.5714 H         1 UNK         0.0600 
    130 H130        1.0322  -11.6927  -51.3169 H         1 UNK         0.3000 
    131 H131        2.0455  -13.2305  -49.2361 H         1 UNK         0.0600 
    132 H132        2.3492  -13.4304  -51.8619 H         1 UNK         0.0800 
    133 H133        1.0194  -14.5450  -51.7878 H         1 UNK         0.0800 
    134 H134        3.4494  -17.2763  -52.0897 H         1 UNK         0.0800 
    135 H135        1.9824  -16.4885  -52.5809 H         1 UNK         0.0800 
    136 H136       -0.0979  -16.7056  -50.9942 H         1 UNK         0.1150 
    137 H137       -0.3625  -20.5469  -49.1385 H         1 UNK         0.1150 
    138 H138        3.4002  -19.1657  -50.6318 H         1 UNK         0.1150 
    139 H139        1.5147  -22.0888  -49.3242 H         1 UNK         0.0800 
    140 H140        3.0249  -21.5746  -50.0211 H         1 UNK         0.0800 
    141 H141        1.9225  -20.3144  -45.6802 H         1 UNK         0.0800 
    142 H142        0.9426  -19.9808  -47.0624 H         1 UNK         0.0800 
    143 H143        0.8931  -22.7687  -47.0305 H         1 UNK         0.0600 
    144 H144        1.6092  -22.0623  -44.3296 H         1 UNK         0.3000 
    145 H145        0.5714  -25.1916  -42.9408 H         1 UNK         0.0600 
    146 H146        2.9115  -25.0761  -42.1350 H         1 UNK         0.0600 
    147 H147        2.8903  -25.4849  -43.8436 H         1 UNK         0.0600 
    148 H148        3.3025  -23.8495  -43.3389 H         1 UNK         0.0600 
    149 H149        1.6717  -22.8770  -41.7035 H         1 UNK         0.3000 
    150 H150       -1.3761  -21.1206  -41.1272 H         1 UNK         0.0600 
    151 H151       -1.3214  -22.8228  -39.3470 H         1 UNK         0.0600 
    152 H152       -0.6137  -21.3203  -38.7743 H         1 UNK         0.0600 
    153 H153        0.4231  -22.6804  -39.2038 H         1 UNK         0.0600 
    154 H154        0.2251  -19.6827  -41.3981 H         1 UNK         0.3000 
    155 H155        3.3641  -19.1991  -40.2365 H         1 UNK         0.0600 
    156 H156        4.4343  -20.3628  -42.0974 H         1 UNK         0.0600 
    157 H157        4.2712  -18.6704  -42.5376 H         1 UNK         0.0600 
    158 H158        3.1752  -19.8733  -43.2178 H         1 UNK         0.0600 
    159 H159        1.7465  -17.9599  -42.3436 H         1 UNK         0.3000 
    160 H160       -0.4145  -16.2752  -40.1547 H         1 UNK         0.0600 
    161 H161        2.0381  -14.8839  -41.3596 H         1 UNK         0.0600 
    162 H162        0.5172  -14.1009  -40.9321 H         1 UNK         0.0600 
    163 H163        1.5340  -14.7910  -39.6763 H         1 UNK         0.0600 
    164 H164        0.1997  -15.6650  -42.8453 H         1 UNK         0.3000 
    165 H165       -1.3139  -18.3773  -44.4980 H         1 UNK         0.0600 
    166 H166       -2.7585  -16.6127  -45.4837 H         1 UNK         0.0600 
    167 H167       -3.3149  -17.0222  -43.8729 H         1 UNK         0.0600 
    168 H168       -2.4108  -15.5364  -44.1350 H         1 UNK         0.0600 
    169 H169       -0.3201  -15.9736  -45.5433 H         1 UNK         0.3000 
    170 H170        3.1560  -16.6663  -45.4613 H         1 UNK         0.0600 
    171 H171        2.6160  -18.1616  -47.2787 H         1 UNK         0.0600 
    172 H172        1.2192  -17.2130  -47.7626 H         1 UNK         0.0600 
    173 H173        2.8485  -16.5740  -47.9785 H         1 UNK         0.0600 
    174 H174        1.3477  -14.8055  -46.8143 H         1 UNK         0.3000 
    175 H175        1.8482  -12.2597  -44.2966 H         1 UNK         0.0600 
    176 H176        2.8386  -12.4889  -47.1840 H         1 UNK         0.0600 
    177 H177        2.5821  -10.9889  -46.2963 H         1 UNK         0.0600 
    178 H178        3.8331  -12.1120  -45.7842 H         1 UNK         0.0600 
    179 H179        0.3943  -12.1071  -46.6980 H         1 UNK         0.3000 
    180 H180       -2.7905  -13.0126  -45.2741 H         1 UNK         0.0600 
    181 H181       -2.2359  -10.6677  -44.6698 H         1 UNK         0.0600 
    182 H182       -1.4671  -10.4187  -46.2333 H         1 UNK         0.0600 
    183 H183       -3.1998  -10.7236  -46.1379 H         1 UNK         0.0600 
    184 H184       -1.3065  -12.4254  -47.8131 H         1 UNK         0.3000 
    185 H185       -2.2894  -15.4275  -49.2034 H         1 UNK         0.0600 
    186 H186       -4.4978  -14.3497  -49.7209 H         1 UNK         0.0600 
    187 H187       -3.6642  -12.8671  -50.1683 H         1 UNK         0.0600 
    188 H188       -3.4213  -14.3431  -51.1061 H         1 UNK         0.0600 
    189 H189       -1.2434  -13.1384  -50.5067 H         1 UNK         0.3000 
    190 H190       -0.9525  -21.4179  -44.3081 H         1 UNK         0.3000 
    191 H191       -3.2073  -20.5872  -45.8923 H         1 UNK         0.0600 
    192 H192       -4.4260  -20.5283  -43.7502 H         1 UNK         0.0600 
    193 H193       -2.8656  -19.7592  -43.5615 H         1 UNK         0.0600 
    194 H194       -3.1303  -21.3825  -42.9349 H         1 UNK         0.0600 
    195 H195       -2.2902  -23.6458  -44.3077 H         1 UNK         0.3000 
    196 H196       -4.6677  -25.0969  -45.0071 H         1 UNK         0.0600 
    197 H197       -3.3144  -27.0790  -44.3488 H         1 UNK         0.0600 
    198 H198       -3.1683  -25.7936  -43.1589 H         1 UNK         0.0600 
    199 H199       -1.8579  -26.0946  -44.2964 H         1 UNK         0.0600 
    200 H200       -1.4371  -24.7952  -46.5629 H         1 UNK         0.3000 
    201 H201       -1.9973  -26.5985  -48.7121 H         1 UNK         0.0600 
    202 H202        0.3041  -26.0516  -47.9229 H         1 UNK         0.0600 
    203 H203        0.1211  -24.3959  -48.4976 H         1 UNK         0.0600 
    204 H204        0.1316  -25.7312  -49.6416 H         1 UNK         0.0600 
    205 H205       -2.3135  -23.0650  -48.4095 H         1 UNK         0.3000 
    206 H206       -3.2579  -21.4624  -49.5600 H         1 UNK         0.0600 
    207 H207       -5.2939  -22.8524  -49.4053 H         1 UNK         0.0600 
    208 H208       -5.2920  -21.9564  -50.9091 H         1 UNK         0.0600 
    209 H209       -4.8992  -23.6680  -50.9156 H         1 UNK         0.0600 
    210 H210       -0.8878  -22.9045  -50.6947 H         1 UNK         0.3000 
    211 H211        0.5121  -23.0412  -52.4049 H         1 UNK         0.0600 
    212 H212       -0.9420  -20.6981  -53.7262 H         1 UNK         0.0600 
    213 H213        0.7034  -21.2259  -54.0191 H         1 UNK         0.0600 
    214 H214        0.2827  -20.5134  -52.4705 H         1 UNK         0.0600 
    215 H215       -1.5617  -24.8327  -52.3664 H         1 UNK         0.3000 
    216 H216       -2.6435  -26.4008  -53.4630 H         1 UNK         0.0600 
    217 H217       -0.5607  -26.6864  -54.8350 H         1 UNK         0.0600 
    218 H218       -1.1973  -25.5582  -56.0313 H         1 UNK         0.0600 
    219 H219       -2.0141  -27.0848  -55.7360 H         1 UNK         0.0600 
    220 H220       -3.8037  -23.9704  -52.9774 H         1 UNK         0.3000 
    221 H221       -5.6555  -22.8151  -53.1558 H         1 UNK         0.0600 
    222 H222       -6.6050  -24.6782  -55.3864 H         1 UNK         0.0600 
    223 H223       -6.8029  -24.9850  -53.6607 H         1 UNK         0.0600 
    224 H224       -7.5982  -23.6109  -54.4081 H         1 UNK         0.0600 
    225 H225       -3.2591  -22.4979  -55.2617 H         1 UNK         0.3000 
    226 H226       -4.4853  -20.9069  -57.3437 H         1 UNK         0.0600 
    227 H227       -2.3308  -22.1803  -57.6322 H         1 UNK         0.0600 
    228 H228       -2.1807  -20.4770  -58.0402 H         1 UNK         0.0600 
    229 H229       -1.5443  -21.0659  -56.5131 H         1 UNK         0.0600 
    230 H230       -3.0287  -20.2063  -54.1731 H         1 UNK         0.3000 
    231 H231       -3.3154  -17.2564  -54.6210 H         1 UNK         0.0600 
    232 H232       -1.6917  -18.8012  -52.5495 H         1 UNK         0.0600 
    233 H233       -1.0391  -18.0706  -54.0144 H         1 UNK         0.0600 
    234 H234       -1.7234  -17.0516  -52.7588 H         1 UNK         0.0600 
    235 H235       -4.7199  -19.9192  -53.0130 H         1 UNK         0.3000 
    236 H236       -6.5209  -20.2404  -51.8220 H         1 UNK         0.0600 
    237 H237       -7.6266  -18.5304  -53.2142 H         1 UNK         0.0600 
    238 H238       -8.2673  -18.5220  -51.5787 H         1 UNK         0.0600 
    239 H239       -7.1534  -17.2619  -52.0854 H         1 UNK         0.0600 
    240 H240       -4.8776  -17.3155  -50.6031 H         1 UNK         0.3000 
    241 H241       -4.3379  -16.5666  -48.5864 H         1 UNK         0.0600 
    242 H242       -8.0208  -16.4420  -47.6800 H         1 UNK         0.3800 
    243 H243       -7.2715  -16.6711  -49.2377 H         1 UNK         0.3800 
    244 H244       -4.0622  -19.5358  -48.0803 H         1 UNK         0.0800 
    245 H245       -4.0619  -18.5198  -46.6816 H         1 UNK         0.0800 
    246 H246       -2.4137  -19.2914  -50.0410 H         1 UNK         0.0800 
    247 H247       -2.2647  -17.5721  -50.3144 H         1 UNK         0.0800 
@<TRIPOS>BOND
     1    1    2 1    
     2    1  127 1    
     3    1  128 1    
     4    1  129 1    
     5    2    3 2    
     6    2    4 am   BACKBONE|DICT|INTERRES
     7    4    5 1    
     8    4  130 1    
     9    5    6 1    
    10    5   65 1    
    11    5  131 1    
    12    6    7 1    
    13    6  132 1    
    14    6  133 1    
    15    7    8 1    
    16    8    9 1    
    17    8  134 1    
    18    8  135 1    
    19    9   10 ar   
    20    9   14 ar   
    21   10   11 ar   
    22   10  136 1    
    23   11   12 ar   
    24   11  126 1    
    25   12   13 ar   
    26   12  137 1    
    27   13   14 ar   
    28   13   15 1    
    29   14  138 1    
    30   15   16 1    
    31   15  139 1    
    32   15  140 1    
    33   16   17 1    
    34   17   18 1    
    35   17  141 1    
    36   17  142 1    
    37   18   19 1    
    38   18   67 1    
    39   18  143 1    
    40   19   20 am   BACKBONE|DICT|INTERRES
    41   19  144 1    
    42   20   21 2    
    43   20   22 1    
    44   22   23 1    
    45   22   24 1    
    46   22  145 1    
    47   23  146 1    
    48   23  147 1    
    49   23  148 1    
    50   24   25 am   BACKBONE|DICT|INTERRES
    51   24  149 1    
    52   25   26 2    
    53   25   27 1    
    54   27   28 1    
    55   27   29 1    
    56   27  150 1    
    57   28  151 1    
    58   28  152 1    
    59   28  153 1    
    60   29   30 am   BACKBONE|DICT|INTERRES
    61   29  154 1    
    62   30   31 2    
    63   30   32 1    
    64   32   33 1    
    65   32   34 1    
    66   32  155 1    
    67   33  156 1    
    68   33  157 1    
    69   33  158 1    
    70   34   35 am   BACKBONE|DICT|INTERRES
    71   34  159 1    
    72   35   36 2    
    73   35   37 1    
    74   37   38 1    
    75   37   39 1    
    76   37  160 1    
    77   38  161 1    
    78   38  162 1    
    79   38  163 1    
    80   39   40 am   BACKBONE|DICT|INTERRES
    81   39  164 1    
    82   40   41 2    
    83   40   42 1    
    84   42   43 1    
    85   42   44 1    
    86   42  165 1    
    87   43  166 1    
    88   43  167 1    
    89   43  168 1    
    90   44   45 am   BACKBONE|DICT|INTERRES
    91   44  169 1    
    92   45   46 2    
    93   45   47 1    
    94   47   48 1    
    95   47   49 1    
    96   47  170 1    
    97   48  171 1    
    98   48  172 1    
    99   48  173 1    
   100   49   50 am   BACKBONE|DICT|INTERRES
   101   49  174 1    
   102   50   51 2    
   103   50   52 1    
   104   52   53 1    
   105   52   54 1    
   106   52  175 1    
   107   53  176 1    
   108   53  177 1    
   109   53  178 1    
   110   54   55 am   BACKBONE|DICT|INTERRES
   111   54  179 1    
   112   55   56 2    
   113   55   57 1    
   114   57   58 1    
   115   57   59 1    
   116   57  180 1    
   117   58  181 1    
   118   58  182 1    
   119   58  183 1    
   120   59   60 am   BACKBONE|DICT|INTERRES
   121   59  184 1    
   122   60   61 2    
   123   60   62 1    
   124   62   63 1    
   125   62   64 1    
   126   62  185 1    
   127   63  186 1    
   128   63  187 1    
   129   63  188 1    
   130   64   65 am   BACKBONE|DICT|INTERRES
   131   64  189 1    
   132   65   66 2    
   133   67   68 2    
   134   67   69 am   BACKBONE|DICT|INTERRES
   135   69   70 1    
   136   69  190 1    
   137   70   71 1    
   138   70   72 1    
   139   70  191 1    
   140   71  192 1    
   141   71  193 1    
   142   71  194 1    
   143   72   73 2    
   144   72   74 am   BACKBONE|DICT|INTERRES
   145   74   75 1    
   146   74  195 1    
   147   75   76 1    
   148   75   77 1    
   149   75  196 1    
   150   76  197 1    
   151   76  198 1    
   152   76  199 1    
   153   77   78 2    
   154   77   79 am   BACKBONE|DICT|INTERRES
   155   79   80 1    
   156   79  200 1    
   157   80   81 1    
   158   80   82 1    
   159   80  201 1    
   160   81  202 1    
   161   81  203 1    
   162   81  204 1    
   163   82   83 2    
   164   82   84 am   BACKBONE|DICT|INTERRES
   165   84   85 1    
   166   84  205 1    
   167   85   86 1    
   168   85   87 1    
   169   85  206 1    
   170   86  207 1    
   171   86  208 1    
   172   86  209 1    
   173   87   88 2    
   174   87   89 am   BACKBONE|DICT|INTERRES
   175   89   90 1    
   176   89  210 1    
   177   90   91 1    
   178   90   92 1    
   179   90  211 1    
   180   91  212 1    
   181   91  213 1    
   182   91  214 1    
   183   92   93 2    
   184   92   94 am   BACKBONE|DICT|INTERRES
   185   94   95 1    
   186   94  215 1    
   187   95   96 1    
   188   95   97 1    
   189   95  216 1    
   190   96  217 1    
   191   96  218 1    
   192   96  219 1    
   193   97   98 2    
   194   97   99 am   BACKBONE|DICT|INTERRES
   195   99  100 1    
   196   99  220 1    
   197  100  101 1    
   198  100  102 1    
   199  100  221 1    
   200  101  222 1    
   201  101  223 1    
   202  101  224 1    
   203  102  103 2    
   204  102  104 am   BACKBONE|DICT|INTERRES
   205  104  105 1    
   206  104  225 1    
   207  105  106 1    
   208  105  107 1    
   209  105  226 1    
   210  106  227 1    
   211  106  228 1    
   212  106  229 1    
   213  107  108 2    
   214  107  109 am   BACKBONE|DICT|INTERRES
   215  109  110 1    
   216  109  230 1    
   217  110  111 1    
   218  110  112 1    
   219  110  231 1    
   220  111  232 1    
   221  111  233 1    
   222  111  234 1    
   223  112  113 2    
   224  112  114 am   BACKBONE|DICT|INTERRES
   225  114  115 1    
   226  114  235 1    
   227  115  116 1    
   228  115  117 1    
   229  115  236 1    
   230  116  237 1    
   231  116  238 1    
   232  116  239 1    
   233  117  118 2    
   234  117  119 am   BACKBONE|DICT|INTERRES
   235  119  120 1    
   236  119  240 1    
   237  120  121 1    
   238  120  124 1    
   239  120  241 1    
   240  121  122 am   BACKBONE|DICT|INTERRES
   241  121  123 2    
   242  122  242 1    
   243  122  243 1    
   244  124  125 1    
   245  124  244 1    
   246  124  245 1    
   247  125  126 1    
   248  126  246 1    
   249  126  247 1    
@<TRIPOS>SUBSTRUCTURE
     1 UNK         1 GROUP             0       ****    0 ROOT    
