@<TRIPOS>MOLECULE
3R540
247   249    1
SMALL
USER_CHARGES


@<TRIPOS>ATOM
      1 CA          3.3785  -14.2960  -43.7526 C.3       0 UNK        -0.1800 
      2 C           2.7436  -13.7631  -45.0273 C.2       0 UNK         0.5000 
      3 O           1.7460  -13.0463  -44.9600 O.2       0 UNK        -0.5000 
      4 N           3.3352  -14.0834  -46.1875 N.am      1 UNK        -0.5000 
      5 CA          2.8701  -13.7072  -47.5332 C.3       1 UNK         0.1400 
      6 C6          3.7339  -14.3579  -48.6409 C.3       23 UNK        -0.0398 
      7 S7          3.3860  -16.1370  -48.8343 S.3       23 UNK        -0.2404 
      8 C8          2.0180  -16.0752  -50.0355 C.3       23 UNK        -0.0205 
      9 C9          2.0850  -17.2264  -51.0242 C.ar      23 UNK        -0.0193 
     10 C10         2.8051  -17.0794  -52.2119 C.ar      23 UNK        -0.1150 
     11 C11         2.8533  -18.1154  -53.1475 C.ar      23 UNK        -0.0193 
     12 C12         2.1595  -19.3021  -52.8949 C.ar      23 UNK        -0.1150 
     13 C13         1.4416  -19.4650  -51.7056 C.ar      23 UNK        -0.0193 
     14 C14         1.4190  -18.4278  -50.7689 C.ar      23 UNK        -0.1150 
     15 C15         0.6898  -20.7607  -51.4428 C.3       23 UNK        -0.0205 
     16 S16         1.7498  -21.9886  -50.6222 S.3       23 UNK        -0.2404 
     17 C17         1.5492  -21.5547  -48.8605 C.3       23 UNK        -0.0398 
     18 CA          1.0760  -22.7697  -48.0254 C.3       11 UNK         0.1400 
     19 N           1.4897  -22.6711  -46.6237 N.am      11 UNK        -0.5000 
     20 C           1.5057  -23.7084  -45.7747 C.2       10 UNK         0.5000 
     21 O           1.1796  -24.8544  -46.0860 O.2       10 UNK        -0.5000 
     22 CA          1.9102  -23.3981  -44.3229 C.3       10 UNK         0.1400 
     23 CB          3.4370  -23.2965  -44.1910 C.3       10 UNK        -0.1800 
     24 N           1.2951  -22.1732  -43.8079 N.am      10 UNK        -0.5000 
     25 C          -0.0208  -21.9780  -43.6654 C.2       9 UNK         0.5000 
     26 O          -0.8665  -22.8048  -43.9993 O.2       9 UNK        -0.5000 
     27 CA         -0.4891  -20.6389  -43.0774 C.3       9 UNK         0.1400 
     28 CB         -0.4564  -20.6611  -41.5385 C.3       9 UNK        -0.1800 
     29 N           0.1945  -19.4589  -43.6107 N.am      9 UNK        -0.5000 
     30 C           1.4553  -19.0391  -43.4358 C.2       8 UNK         0.5000 
     31 O           2.3372  -19.6970  -42.8828 O.2       8 UNK        -0.5000 
     32 CA          1.7623  -17.6171  -43.9457 C.3       8 UNK         0.1400 
     33 CB          2.1700  -17.6527  -45.4271 C.3       8 UNK        -0.1800 
     34 N           0.6200  -16.7128  -43.7680 N.am      8 UNK        -0.5000 
     35 C           0.1051  -16.3595  -42.5782 C.2       7 UNK         0.5000 
     36 O           0.6294  -16.6314  -41.4977 O.2       7 UNK        -0.5000 
     37 CA         -1.2456  -15.6224  -42.5931 C.3       7 UNK         0.1400 
     38 CB         -1.0476  -14.1058  -42.7276 C.3       7 UNK        -0.1800 
     39 N          -2.1093  -16.1092  -43.6705 N.am      7 UNK        -0.5000 
     40 C          -2.8411  -17.2322  -43.6043 C.2       6 UNK         0.5000 
     41 O          -2.9230  -17.9346  -42.5972 O.2       6 UNK        -0.5000 
     42 CA         -3.5937  -17.6617  -44.8808 C.3       6 UNK         0.1400 
     43 CB         -5.0335  -17.1279  -44.8684 C.3       6 UNK        -0.1800 
     44 N          -2.9333  -17.2195  -46.1092 N.am      6 UNK        -0.5000 
     45 C          -1.7705  -17.7069  -46.5633 C.2       5 UNK         0.5000 
     46 O          -1.1733  -18.6445  -46.0363 O.2       5 UNK        -0.5000 
     47 CA         -1.1434  -16.9840  -47.7713 C.3       5 UNK         0.1400 
     48 CB         -1.5856  -17.6472  -49.0792 C.3       5 UNK        -0.1800 
     49 N          -1.4647  -15.5520  -47.8208 N.am      5 UNK        -0.5000 
     50 C          -1.0832  -14.6684  -46.8898 C.2       4 UNK         0.5000 
     51 O          -0.3693  -14.9690  -45.9331 O.2       4 UNK        -0.5000 
     52 CA         -1.6881  -13.2616  -46.9862 C.3       4 UNK         0.1400 
     53 CB         -3.1411  -13.3075  -46.4629 C.3       4 UNK        -0.1800 
     54 N          -0.8921  -12.3095  -46.2083 N.am      4 UNK        -0.5000 
     55 C          -1.0852  -10.9817  -46.1882 C.2       3 UNK         0.5000 
     56 O          -1.9255  -10.4027  -46.8781 O.2       3 UNK        -0.5000 
     57 CA         -0.1834  -10.1485  -45.2634 C.3       3 UNK         0.1400 
     58 CB         -0.3638  -10.5346  -43.7860 C.3       3 UNK        -0.1800 
     59 N           1.2120  -10.3136  -45.6501 N.am      3 UNK        -0.5000 
     60 C           1.8950   -9.4727  -46.4395 C.2       2 UNK         0.5000 
     61 O           1.4579   -8.3888  -46.8288 O.2       2 UNK        -0.5000 
     62 CA          3.3015   -9.9219  -46.8907 C.3       2 UNK         0.1400 
     63 CB          4.3769   -9.3467  -45.9565 C.3       2 UNK        -0.1800 
     64 N           3.4479  -11.3776  -46.9462 N.am      2 UNK        -0.5000 
     65 C           2.7630  -12.1841  -47.7697 C.2       1 UNK         0.5000 
     66 O           2.0385  -11.7706  -48.6756 O.2       1 UNK        -0.5000 
     67 C          -0.4419  -23.0194  -48.1520 C.2       11 UNK         0.5000 
     68 O          -0.8546  -23.8363  -48.9744 O.2       11 UNK        -0.5000 
     69 N          -1.2398  -22.3653  -47.2938 N.am      12 UNK        -0.5000 
     70 CA         -2.6865  -22.5680  -47.2093 C.3       12 UNK         0.1400 
     71 CB         -3.3158  -21.4900  -46.3151 C.3       12 UNK        -0.1800 
     72 C          -3.0521  -23.9798  -46.7191 C.2       12 UNK         0.5000 
     73 O          -3.9622  -24.5926  -47.2727 O.2       12 UNK        -0.5000 
     74 N          -2.3174  -24.4941  -45.7238 N.am      13 UNK        -0.5000 
     75 CA         -2.4503  -25.8591  -45.2141 C.3       13 UNK         0.1400 
     76 CB         -1.5754  -26.0368  -43.9642 C.3       13 UNK        -0.1800 
     77 C          -2.1132  -26.9173  -46.2792 C.2       13 UNK         0.5000 
     78 O          -2.8717  -27.8738  -46.4399 O.2       13 UNK        -0.5000 
     79 N          -1.0184  -26.6996  -47.0231 N.am      14 UNK        -0.5000 
     80 CA         -0.5925  -27.5426  -48.1438 C.3       14 UNK         0.1400 
     81 CB          0.7948  -27.0908  -48.6245 C.3       14 UNK        -0.1800 
     82 C          -1.5983  -27.5528  -49.3125 C.2       14 UNK         0.5000 
     83 O          -1.8003  -28.5976  -49.9322 O.2       14 UNK        -0.5000 
     84 N          -2.2314  -26.4012  -49.5706 N.am      15 UNK        -0.5000 
     85 CA         -3.2740  -26.2198  -50.5824 C.3       15 UNK         0.1400 
     86 CB         -3.3546  -24.7296  -50.9382 C.3       15 UNK        -0.1800 
     87 C          -4.6628  -26.7443  -50.1593 C.2       15 UNK         0.5000 
     88 O          -5.5660  -26.7662  -50.9965 O.2       15 UNK        -0.5000 
     89 N          -4.8111  -27.1518  -48.8898 N.am      16 UNK        -0.5000 
     90 CA         -6.0430  -27.6011  -48.2353 C.3       16 UNK         0.1400 
     91 CB         -6.6016  -28.8809  -48.8936 C.3       16 UNK        -0.1800 
     92 C          -7.0808  -26.4661  -48.1035 C.2       16 UNK         0.5000 
     93 O          -8.2391  -26.6269  -48.4938 O.2       16 UNK        -0.5000 
     94 N          -6.6263  -25.3480  -47.5229 N.am      17 UNK        -0.5000 
     95 CA         -7.3483  -24.1089  -47.2289 C.3       17 UNK         0.1400 
     96 CB         -8.6107  -24.3715  -46.3758 C.3       17 UNK        -0.1800 
     97 C          -7.6087  -23.2516  -48.4847 C.2       17 UNK         0.5000 
     98 O          -6.9554  -23.4423  -49.5121 O.2       17 UNK        -0.5000 
     99 N          -8.5155  -22.2712  -48.3456 N.am      18 UNK        -0.5000 
    100 CA        -8.9025  -21.2543  -49.3359 C.3       18 UNK         0.1400 
    101 CB        -9.5292  -21.9065  -50.5865 C.3       18 UNK        -0.1800 
    102 C         -7.7746  -20.2567  -49.6870 C.2       18 UNK         0.5000 
    103 O         -7.8283  -19.6230  -50.7430 O.2       18 UNK        -0.5000 
    104 N         -6.7849  -20.1252  -48.7887 N.am      19 UNK        -0.5000 
    105 CA        -5.5597  -19.3185  -48.8699 C.3       19 UNK         0.1400 
    106 CB        -5.8728  -17.8119  -48.9694 C.3       19 UNK        -0.1800 
    107 C         -4.5962  -19.7877  -49.9779 C.2       19 UNK         0.5000 
    108 O         -3.4886  -20.2194  -49.6652 O.2       19 UNK        -0.5000 
    109 N         -5.0506  -19.7189  -51.2361 N.am      20 UNK        -0.5000 
    110 CA        -4.3901  -20.1967  -52.4542 C.3       20 UNK         0.1400 
    111 CB        -4.3016  -21.7345  -52.4387 C.3       20 UNK        -0.1800 
    112 C         -3.0290  -19.5245  -52.7334 C.2       20 UNK         0.5000 
    113 O         -2.0738  -20.2009  -53.1187 O.2       20 UNK        -0.5000 
    114 N         -2.9689  -18.1971  -52.5533 N.am      21 UNK        -0.5000 
    115 CA        -1.8142  -17.3658  -52.9045 C.3       21 UNK         0.1400 
    116 CB        -2.0667  -15.9272  -52.4241 C.3       21 UNK        -0.1800 
    117 C         -1.5444  -17.3774  -54.4226 C.2       21 UNK         0.5000 
    118 O         -2.4954  -17.4093  -55.2084 O.2       21 UNK        -0.5000 
    119 N         -0.2639  -17.3303  -54.8082 N.am      22 UNK        -0.5000 
    120 CA         0.1730  -17.3517  -56.2153 C.3       22 UNK         0.1400 
    121 C         -0.0532  -16.0296  -57.0113 C.2       22 UNK         0.5000 
    122 N         -0.4309  -14.9247  -56.3795 N.am      22 UNK        -0.7600 
    123 O          0.1033  -16.0115  -58.2294 O.2       22 UNK        -0.5000 
    124 C124        1.6201  -17.8882  -56.3626 C.3       23 UNK        -0.0398 
    125 S125        2.8993  -16.8239  -55.6050 S.3       23 UNK        -0.2404 
    126 C126        3.6817  -17.9533  -54.4122 C.3       23 UNK        -0.0205 
    127 H127        3.9363  -13.5036  -43.2540 H         1 UNK         0.0600 
    128 H128        4.0593  -15.1225  -43.9567 H         1 UNK         0.0600 
    129 H129        2.6082  -14.6500  -43.0684 H         1 UNK         0.0600 
    130 H130        4.1560  -14.6715  -46.1684 H         1 UNK         0.3000 
    131 H131        1.8509  -14.0868  -47.6279 H         1 UNK         0.0600 
    132 H132        3.5899  -13.8731  -49.6083 H         1 UNK         0.0800 
    133 H133        4.7945  -14.2344  -48.4161 H         1 UNK         0.0800 
    134 H134        2.0292  -15.1362  -50.5899 H         1 UNK         0.0800 
    135 H135        1.0711  -16.0862  -49.4980 H         1 UNK         0.0800 
    136 H136        3.3348  -16.1574  -52.4082 H         1 UNK         0.1150 
    137 H137        2.1896  -20.1074  -53.6154 H         1 UNK         0.1150 
    138 H138        0.8834  -18.5551  -49.8414 H         1 UNK         0.1150 
    139 H139       -0.2127  -20.5769  -50.8568 H         1 UNK         0.0800 
    140 H140        0.3483  -21.1803  -52.3901 H         1 UNK         0.0800 
    141 H141        0.8806  -20.7016  -48.7357 H         1 UNK         0.0800 
    142 H142        2.5274  -21.2188  -48.5133 H         1 UNK         0.0800 
    143 H143        1.5741  -23.6571  -48.4240 H         1 UNK         0.0600 
    144 H144        1.7585  -21.7607  -46.2813 H         1 UNK         0.3000 
    145 H145        1.5686  -24.2283  -43.7012 H         1 UNK         0.0600 
    146 H146        3.7338  -23.1693  -43.1498 H         1 UNK         0.0600 
    147 H147        3.9223  -24.2015  -44.5588 H         1 UNK         0.0600 
    148 H148        3.8364  -22.4544  -44.7577 H         1 UNK         0.0600 
    149 H149        1.9138  -21.4292  -43.4961 H         1 UNK         0.3000 
    150 H150       -1.5323  -20.5199  -43.3744 H         1 UNK         0.0600 
    151 H151       -1.0589  -21.4827  -41.1492 H         1 UNK         0.0600 
    152 H152       -0.8609  -19.7367  -41.1255 H         1 UNK         0.0600 
    153 H153        0.5552  -20.7873  -41.1521 H         1 UNK         0.0600 
    154 H154       -0.3886  -18.8808  -44.2067 H         1 UNK         0.3000 
    155 H155        2.5978  -17.2228  -43.3647 H         1 UNK         0.0600 
    156 H156        1.4266  -18.1572  -46.0430 H         1 UNK         0.0600 
    157 H157        3.1126  -18.1855  -45.5566 H         1 UNK         0.0600 
    158 H158        2.3046  -16.6503  -45.8299 H         1 UNK         0.0600 
    159 H159        0.1780  -16.3558  -44.6084 H         1 UNK         0.3000 
    160 H160       -1.7388  -15.8086  -41.6365 H         1 UNK         0.0600 
    161 H161       -0.5120  -13.8482  -43.6391 H         1 UNK         0.0600 
    162 H162       -0.4677  -13.7145  -41.8910 H         1 UNK         0.0600 
    163 H163       -2.0018  -13.5792  -42.7384 H         1 UNK         0.0600 
    164 H164       -2.0454  -15.6163  -44.5489 H         1 UNK         0.3000 
    165 H165       -3.6349  -18.7529  -44.8865 H         1 UNK         0.0600 
    166 H166       -5.5969  -17.4941  -45.7267 H         1 UNK         0.0600 
    167 H167       -5.5627  -17.4533  -43.9717 H         1 UNK         0.0600 
    168 H168       -5.0598  -16.0376  -44.8880 H         1 UNK         0.0600 
    169 H169       -3.3621  -16.4533  -46.6049 H         1 UNK         0.3000 
    170 H170       -0.0606  -17.0872  -47.6812 H         1 UNK         0.0600 
    171 H171       -1.3701  -18.7164  -49.0687 H         1 UNK         0.0600 
    172 H172       -2.6539  -17.5287  -49.2529 H         1 UNK         0.0600 
    173 H173       -1.0622  -17.2195  -49.9314 H         1 UNK         0.0600 
    174 H174       -2.0605  -15.2461  -48.5765 H         1 UNK         0.3000 
    175 H175       -1.6783  -12.9528  -48.0332 H         1 UNK         0.0600 
    176 H176       -3.1758  -13.5507  -45.4000 H         1 UNK         0.0600 
    177 H177       -3.6530  -12.3558  -46.6007 H         1 UNK         0.0600 
    178 H178       -3.7333  -14.0557  -46.9908 H         1 UNK         0.0600 
    179 H179       -0.1427  -12.7252  -45.6590 H         1 UNK         0.3000 
    180 H180       -0.4818   -9.1028  -45.3642 H         1 UNK         0.0600 
    181 H181        0.0126  -11.5343  -43.5750 H         1 UNK         0.0600 
    182 H182       -1.4156  -10.5093  -43.4986 H         1 UNK         0.0600 
    183 H183        0.1682   -9.8402  -43.1357 H         1 UNK         0.0600 
    184 H184        1.6267  -11.2106  -45.4126 H         1 UNK         0.3000 
    185 H185        3.4696   -9.5262  -47.8945 H         1 UNK         0.0600 
    186 H186        4.3132   -8.2587  -45.9114 H         1 UNK         0.0600 
    187 H187        4.2692   -9.7243  -44.9388 H         1 UNK         0.0600 
    188 H188        5.3787   -9.5983  -46.3050 H         1 UNK         0.0600 
    189 H189        4.0195  -11.8035  -46.2314 H         1 UNK         0.3000 
    190 H190       -0.8300  -21.7325  -46.6236 H         1 UNK         0.3000 
    191 H191       -3.0993  -22.4552  -48.2138 H         1 UNK         0.0600 
    192 H192       -2.9242  -21.5241  -45.2985 H         1 UNK         0.0600 
    193 H193       -4.3976  -21.6143  -46.2564 H         1 UNK         0.0600 
    194 H194       -3.1248  -20.4951  -46.7157 H         1 UNK         0.0600 
    195 H195       -1.6310  -23.9022  -45.2612 H         1 UNK         0.3000 
    196 H196       -3.4921  -26.0038  -44.9205 H         1 UNK         0.0600 
    197 H197       -1.6695  -27.0459  -43.5613 H         1 UNK         0.0600 
    198 H198       -1.8702  -25.3433  -43.1765 H         1 UNK         0.0600 
    199 H199       -0.5208  -25.8658  -44.1810 H         1 UNK         0.0600 
    200 H200       -0.4263  -25.9056  -46.8011 H         1 UNK         0.3000 
    201 H201       -0.5065  -28.5664  -47.7742 H         1 UNK         0.0600 
    202 H202        1.5293  -27.1510  -47.8212 H         1 UNK         0.0600 
    203 H203        0.7802  -26.0628  -48.9874 H         1 UNK         0.0600 
    204 H204        1.1509  -27.7221  -49.4395 H         1 UNK         0.0600 
    205 H205       -1.9541  -25.5695  -49.0593 H         1 UNK         0.3000 
    206 H206       -2.9821  -26.7657  -51.4818 H         1 UNK         0.0600 
    207 H207       -2.3947  -24.3530  -51.2921 H         1 UNK         0.0600 
    208 H208       -4.0834  -24.5589  -51.7311 H         1 UNK         0.0600 
    209 H209       -3.6569  -24.1281  -50.0799 H         1 UNK         0.0600 
    210 H210       -4.0040  -27.0792  -48.2836 H         1 UNK         0.3000 
    211 H211       -5.7566  -27.8663  -47.2165 H         1 UNK         0.0600 
    212 H212       -6.9728  -28.6969  -49.9018 H         1 UNK         0.0600 
    213 H213       -7.4315  -29.2838  -48.3122 H         1 UNK         0.0600 
    214 H214       -5.8394  -29.6580  -48.9526 H         1 UNK         0.0600 
    215 H215       -5.6223  -25.2807  -47.3619 H         1 UNK         0.3000 
    216 H216       -6.6617  -23.5252  -46.6142 H         1 UNK         0.0600 
    217 H217       -8.9888  -23.4516  -45.9293 H         1 UNK         0.0600 
    218 H218       -8.3948  -25.0543  -45.5539 H         1 UNK         0.0600 
    219 H219       -9.4183  -24.8054  -46.9663 H         1 UNK         0.0600 
    220 H220       -8.9910  -22.1997  -47.4566 H         1 UNK         0.3000 
    221 H221       -9.6817  -20.6577  -48.8596 H         1 UNK         0.0600 
    222 H222       -8.7896  -22.4499  -51.1752 H         1 UNK         0.0600 
    223 H223      -10.3201  -22.6048  -50.3132 H         1 UNK         0.0600 
    224 H224       -9.9742  -21.1545  -51.2391 H         1 UNK         0.0600 
    225 H225       -6.8526  -20.7076  -47.9673 H         1 UNK         0.3000 
    226 H226       -5.0432  -19.4717  -47.9213 H         1 UNK         0.0600 
    227 H227       -6.5151  -17.4911  -48.1495 H         1 UNK         0.0600 
    228 H228       -4.9608  -17.2182  -48.9147 H         1 UNK         0.0600 
    229 H229       -6.3728  -17.5526  -49.9026 H         1 UNK         0.0600 
    230 H230       -6.0127  -19.4107  -51.3478 H         1 UNK         0.3000 
    231 H231       -5.0417  -19.9154  -53.2824 H         1 UNK         0.0600 
    232 H232       -5.2712  -22.1875  -52.2304 H         1 UNK         0.0600 
    233 H233       -3.5996  -22.0770  -51.6788 H         1 UNK         0.0600 
    234 H234       -3.9595  -22.1203  -53.3995 H         1 UNK         0.0600 
    235 H235       -3.8047  -17.7144  -52.2603 H         1 UNK         0.3000 
    236 H236       -0.9417  -17.7657  -52.3852 H         1 UNK         0.0600 
    237 H237       -1.1791  -15.3092  -52.5652 H         1 UNK         0.0600 
    238 H238       -2.8839  -15.4587  -52.9744 H         1 UNK         0.0600 
    239 H239       -2.3216  -15.8918  -51.3659 H         1 UNK         0.0600 
    240 H240        0.4725  -17.2878  -54.1177 H         1 UNK         0.3000 
    241 H241       -0.4621  -18.0822  -56.7206 H         1 UNK         0.0600 
    242 H242       -0.5797  -14.0780  -56.9057 H         1 UNK         0.3800 
    243 H243       -0.5615  -14.9253  -55.3814 H         1 UNK         0.3800 
    244 H244        1.6768  -18.8895  -55.9343 H         1 UNK         0.0800 
    245 H245        1.8689  -18.0140  -57.4177 H         1 UNK         0.0800 
    246 H246        3.8732  -18.9183  -54.8841 H         1 UNK         0.0800 
    247 H247        4.6597  -17.5514  -54.1436 H         1 UNK         0.0800 
@<TRIPOS>BOND
     1    1    2 1    
     2    1  127 1    
     3    1  128 1    
     4    1  129 1    
     5    2    3 2    
     6    2    4 am   BACKBONE|DICT|INTERRES
     7    4    5 1    
     8    4  130 1    
     9    5    6 1    
    10    5   65 1    
    11    5  131 1    
    12    6    7 1    
    13    6  132 1    
    14    6  133 1    
    15    7    8 1    
    16    8    9 1    
    17    8  134 1    
    18    8  135 1    
    19    9   10 ar   
    20    9   14 ar   
    21   10   11 ar   
    22   10  136 1    
    23   11   12 ar   
    24   11  126 1    
    25   12   13 ar   
    26   12  137 1    
    27   13   14 ar   
    28   13   15 1    
    29   14  138 1    
    30   15   16 1    
    31   15  139 1    
    32   15  140 1    
    33   16   17 1    
    34   17   18 1    
    35   17  141 1    
    36   17  142 1    
    37   18   19 1    
    38   18   67 1    
    39   18  143 1    
    40   19   20 am   BACKBONE|DICT|INTERRES
    41   19  144 1    
    42   20   21 2    
    43   20   22 1    
    44   22   23 1    
    45   22   24 1    
    46   22  145 1    
    47   23  146 1    
    48   23  147 1    
    49   23  148 1    
    50   24   25 am   BACKBONE|DICT|INTERRES
    51   24  149 1    
    52   25   26 2    
    53   25   27 1    
    54   27   28 1    
    55   27   29 1    
    56   27  150 1    
    57   28  151 1    
    58   28  152 1    
    59   28  153 1    
    60   29   30 am   BACKBONE|DICT|INTERRES
    61   29  154 1    
    62   30   31 2    
    63   30   32 1    
    64   32   33 1    
    65   32   34 1    
    66   32  155 1    
    67   33  156 1    
    68   33  157 1    
    69   33  158 1    
    70   34   35 am   BACKBONE|DICT|INTERRES
    71   34  159 1    
    72   35   36 2    
    73   35   37 1    
    74   37   38 1    
    75   37   39 1    
    76   37  160 1    
    77   38  161 1    
    78   38  162 1    
    79   38  163 1    
    80   39   40 am   BACKBONE|DICT|INTERRES
    81   39  164 1    
    82   40   41 2    
    83   40   42 1    
    84   42   43 1    
    85   42   44 1    
    86   42  165 1    
    87   43  166 1    
    88   43  167 1    
    89   43  168 1    
    90   44   45 am   BACKBONE|DICT|INTERRES
    91   44  169 1    
    92   45   46 2    
    93   45   47 1    
    94   47   48 1    
    95   47   49 1    
    96   47  170 1    
    97   48  171 1    
    98   48  172 1    
    99   48  173 1    
   100   49   50 am   BACKBONE|DICT|INTERRES
   101   49  174 1    
   102   50   51 2    
   103   50   52 1    
   104   52   53 1    
   105   52   54 1    
   106   52  175 1    
   107   53  176 1    
   108   53  177 1    
   109   53  178 1    
   110   54   55 am   BACKBONE|DICT|INTERRES
   111   54  179 1    
   112   55   56 2    
   113   55   57 1    
   114   57   58 1    
   115   57   59 1    
   116   57  180 1    
   117   58  181 1    
   118   58  182 1    
   119   58  183 1    
   120   59   60 am   BACKBONE|DICT|INTERRES
   121   59  184 1    
   122   60   61 2    
   123   60   62 1    
   124   62   63 1    
   125   62   64 1    
   126   62  185 1    
   127   63  186 1    
   128   63  187 1    
   129   63  188 1    
   130   64   65 am   BACKBONE|DICT|INTERRES
   131   64  189 1    
   132   65   66 2    
   133   67   68 2    
   134   67   69 am   BACKBONE|DICT|INTERRES
   135   69   70 1    
   136   69  190 1    
   137   70   71 1    
   138   70   72 1    
   139   70  191 1    
   140   71  192 1    
   141   71  193 1    
   142   71  194 1    
   143   72   73 2    
   144   72   74 am   BACKBONE|DICT|INTERRES
   145   74   75 1    
   146   74  195 1    
   147   75   76 1    
   148   75   77 1    
   149   75  196 1    
   150   76  197 1    
   151   76  198 1    
   152   76  199 1    
   153   77   78 2    
   154   77   79 am   BACKBONE|DICT|INTERRES
   155   79   80 1    
   156   79  200 1    
   157   80   81 1    
   158   80   82 1    
   159   80  201 1    
   160   81  202 1    
   161   81  203 1    
   162   81  204 1    
   163   82   83 2    
   164   82   84 am   BACKBONE|DICT|INTERRES
   165   84   85 1    
   166   84  205 1    
   167   85   86 1    
   168   85   87 1    
   169   85  206 1    
   170   86  207 1    
   171   86  208 1    
   172   86  209 1    
   173   87   88 2    
   174   87   89 am   BACKBONE|DICT|INTERRES
   175   89   90 1    
   176   89  210 1    
   177   90   91 1    
   178   90   92 1    
   179   90  211 1    
   180   91  212 1    
   181   91  213 1    
   182   91  214 1    
   183   92   93 2    
   184   92   94 am   BACKBONE|DICT|INTERRES
   185   94   95 1    
   186   94  215 1    
   187   95   96 1    
   188   95   97 1    
   189   95  216 1    
   190   96  217 1    
   191   96  218 1    
   192   96  219 1    
   193   97   98 2    
   194   97   99 am   BACKBONE|DICT|INTERRES
   195   99  100 1    
   196   99  220 1    
   197  100  101 1    
   198  100  102 1    
   199  100  221 1    
   200  101  222 1    
   201  101  223 1    
   202  101  224 1    
   203  102  103 2    
   204  102  104 am   BACKBONE|DICT|INTERRES
   205  104  105 1    
   206  104  225 1    
   207  105  106 1    
   208  105  107 1    
   209  105  226 1    
   210  106  227 1    
   211  106  228 1    
   212  106  229 1    
   213  107  108 2    
   214  107  109 am   BACKBONE|DICT|INTERRES
   215  109  110 1    
   216  109  230 1    
   217  110  111 1    
   218  110  112 1    
   219  110  231 1    
   220  111  232 1    
   221  111  233 1    
   222  111  234 1    
   223  112  113 2    
   224  112  114 am   BACKBONE|DICT|INTERRES
   225  114  115 1    
   226  114  235 1    
   227  115  116 1    
   228  115  117 1    
   229  115  236 1    
   230  116  237 1    
   231  116  238 1    
   232  116  239 1    
   233  117  118 2    
   234  117  119 am   BACKBONE|DICT|INTERRES
   235  119  120 1    
   236  119  240 1    
   237  120  121 1    
   238  120  124 1    
   239  120  241 1    
   240  121  122 am   BACKBONE|DICT|INTERRES
   241  121  123 2    
   242  122  242 1    
   243  122  243 1    
   244  124  125 1    
   245  124  244 1    
   246  124  245 1    
   247  125  126 1    
   248  126  246 1    
   249  126  247 1    
@<TRIPOS>SUBSTRUCTURE
     1 UNK         1 GROUP             0       ****    0 ROOT    
