@<TRIPOS>MOLECULE
3R540
247   249    1
SMALL
USER_CHARGES


@<TRIPOS>ATOM
      1 CA          0.5113   -8.8187  -48.7679 C.3       0 UNK        -0.1800 
      2 C           0.9348  -10.2799  -48.8007 C.2       0 UNK         0.5000 
      3 O           1.4844  -10.7785  -47.8190 O.2       0 UNK        -0.5000 
      4 N           0.6805  -10.9681  -49.9220 N.am      1 UNK        -0.5000 
      5 CA          1.0177  -12.3769  -50.1667 C.3       1 UNK         0.1400 
      6 C6          0.1831  -13.3419  -49.2728 C.3       23 UNK        -0.0398 
      7 S7         -0.1820  -14.9174  -50.1113 S.3       23 UNK        -0.2404 
      8 C8         -0.7109  -15.9505  -48.7133 C.3       23 UNK        -0.0205 
      9 C9         -1.4937  -17.1534  -49.2108 C.ar      23 UNK        -0.0193 
     10 C10        -2.8884  -17.1511  -49.1510 C.ar      23 UNK        -0.1150 
     11 C11        -3.6257  -18.2195  -49.6685 C.ar      23 UNK        -0.0193 
     12 C12        -2.9520  -19.3100  -50.2259 C.ar      23 UNK        -0.1150 
     13 C13        -1.5540  -19.3437  -50.2554 C.ar      23 UNK        -0.0193 
     14 C14        -0.8301  -18.2600  -49.7475 C.ar      23 UNK        -0.1150 
     15 C15        -0.8231  -20.5479  -50.8369 C.3       23 UNK        -0.0205 
     16 S16        -1.1705  -22.0879  -49.9243 S.3       23 UNK        -0.2404 
     17 C17        -0.7773  -21.5782  -48.2189 C.3       23 UNK        -0.0398 
     18 CA         -0.4742  -22.7571  -47.2677 C.3       11 UNK         0.1400 
     19 N           0.1650  -22.2877  -46.0379 N.am      11 UNK        -0.5000 
     20 C           0.6952  -23.0705  -45.0897 C.2       10 UNK         0.5000 
     21 O           0.7382  -24.2974  -45.1603 O.2       10 UNK        -0.5000 
     22 CA          1.2131  -22.3661  -43.8232 C.3       10 UNK         0.1400 
     23 CB          2.5929  -21.7378  -44.0673 C.3       10 UNK        -0.1800 
     24 N           0.2816  -21.3485  -43.3339 N.am      10 UNK        -0.5000 
     25 C          -0.9588  -21.6133  -42.8977 C.2       9 UNK         0.5000 
     26 O          -1.4243  -22.7499  -42.8124 O.2       9 UNK        -0.5000 
     27 CA         -1.8441  -20.4075  -42.5389 C.3       9 UNK         0.1400 
     28 CB         -1.5032  -19.8804  -41.1373 C.3       9 UNK        -0.1800 
     29 N          -1.7434  -19.3218  -43.5152 N.am      9 UNK        -0.5000 
     30 C          -2.1177  -19.4145  -44.7995 C.2       8 UNK         0.5000 
     31 O          -2.6253  -20.4206  -45.2914 O.2       8 UNK        -0.5000 
     32 CA         -1.8264  -18.2031  -45.7031 C.3       8 UNK         0.1400 
     33 CB         -2.8788  -17.1030  -45.5061 C.3       8 UNK        -0.1800 
     34 N          -0.4833  -17.6582  -45.4964 N.am      8 UNK        -0.5000 
     35 C           0.6443  -18.3468  -45.7261 C.2       7 UNK         0.5000 
     36 O           0.6673  -19.4934  -46.1694 O.2       7 UNK        -0.5000 
     37 CA          1.9704  -17.6625  -45.3624 C.3       7 UNK         0.1400 
     38 CB          2.4277  -16.7336  -46.4923 C.3       7 UNK        -0.1800 
     39 N           1.8907  -16.9303  -44.0990 N.am      7 UNK        -0.5000 
     40 C           1.7180  -17.5211  -42.9078 C.2       6 UNK         0.5000 
     41 O           1.6799  -18.7415  -42.7457 O.2       6 UNK        -0.5000 
     42 CA          1.4813  -16.5884  -41.7089 C.3       6 UNK         0.1400 
     43 CB          2.8030  -16.0043  -41.1879 C.3       6 UNK        -0.1800 
     44 N           0.5492  -15.5091  -42.0403 N.am      6 UNK        -0.5000 
     45 C          -0.7561  -15.7027  -42.2811 C.2       5 UNK         0.5000 
     46 O          -1.3024  -16.8023  -42.2151 O.2       5 UNK        -0.5000 
     47 CA         -1.5974  -14.4799  -42.6860 C.3       5 UNK         0.1400 
     48 CB         -2.2458  -13.8431  -41.4480 C.3       5 UNK        -0.1800 
     49 N          -0.8455  -13.4585  -43.4109 N.am      5 UNK        -0.5000 
     50 C          -0.2738  -13.6130  -44.6125 C.2       4 UNK         0.5000 
     51 O          -0.3002  -14.6671  -45.2534 O.2       4 UNK        -0.5000 
     52 CA          0.4505  -12.3792  -45.1963 C.3       4 UNK         0.1400 
     53 CB          0.5030  -11.1655  -44.2413 C.3       4 UNK        -0.1800 
     54 N           1.8024  -12.6563  -45.6915 N.am      4 UNK        -0.5000 
     55 C           2.7879  -13.3107  -45.0597 C.2       3 UNK         0.5000 
     56 O           2.6445  -13.8927  -43.9827 O.2       3 UNK        -0.5000 
     57 CA          4.1473  -13.3443  -45.7813 C.3       3 UNK         0.1400 
     58 CB          5.1854  -14.2284  -45.0535 C.3       3 UNK        -0.1800 
     59 N           3.9477  -13.7784  -47.1643 N.am      3 UNK        -0.5000 
     60 C           4.8393  -13.6961  -48.1611 C.2       2 UNK         0.5000 
     61 O           5.9744  -13.2361  -48.0354 O.2       2 UNK        -0.5000 
     62 CA          4.3704  -14.1965  -49.5425 C.3       2 UNK         0.1400 
     63 CB          4.5604  -15.7154  -49.6708 C.3       2 UNK        -0.1800 
     64 N           2.9693  -13.8559  -49.8018 N.am      2 UNK        -0.5000 
     65 C           2.5492  -12.6213  -50.1099 C.2       1 UNK         0.5000 
     66 O           3.3258  -11.6933  -50.3536 O.2       1 UNK        -0.5000 
     67 C          -1.7307  -23.6042  -46.9759 C.2       11 UNK         0.5000 
     68 O          -1.8985  -24.6640  -47.5794 O.2       11 UNK        -0.5000 
     69 N          -2.5739  -23.1570  -46.0352 N.am      12 UNK        -0.5000 
     70 CA         -3.7558  -23.8840  -45.5688 C.3       12 UNK         0.1400 
     71 CB         -4.5684  -22.9998  -44.6122 C.3       12 UNK        -0.1800 
     72 C          -3.4133  -25.2342  -44.9142 C.2       12 UNK         0.5000 
     73 O          -4.1232  -26.2130  -45.1431 O.2       12 UNK        -0.5000 
     74 N          -2.3270  -25.2665  -44.1332 N.am      13 UNK        -0.5000 
     75 CA         -1.8302  -26.4648  -43.4651 C.3       13 UNK         0.1400 
     76 CB         -0.8735  -26.0573  -42.3327 C.3       13 UNK        -0.1800 
     77 C          -1.1498  -27.4508  -44.4322 C.2       13 UNK         0.5000 
     78 O          -1.5153  -28.6268  -44.4540 O.2       13 UNK        -0.5000 
     79 N          -0.1503  -26.9699  -45.1829 N.am      14 UNK        -0.5000 
     80 CA          0.7649  -27.8148  -45.9509 C.3       14 UNK         0.1400 
     81 CB          2.1415  -27.1345  -46.0165 C.3       14 UNK        -0.1800 
     82 C           0.2704  -28.1363  -47.3693 C.2       14 UNK         0.5000 
     83 O           0.5041  -29.2488  -47.8437 O.2       14 UNK        -0.5000 
     84 N          -0.3686  -27.1643  -48.0321 N.am      15 UNK        -0.5000 
     85 CA         -0.7490  -27.2427  -49.4465 C.3       15 UNK         0.1400 
     86 CB         -0.1626  -26.0226  -50.1776 C.3       15 UNK        -0.1800 
     87 C          -2.2724  -27.3296  -49.6506 C.2       15 UNK         0.5000 
     88 O          -2.7170  -27.3955  -50.7967 O.2       15 UNK        -0.5000 
     89 N          -3.0419  -27.3187  -48.5515 N.am      16 UNK        -0.5000 
     90 CA         -4.5079  -27.3150  -48.4964 C.3       16 UNK         0.1400 
     91 CB         -5.0844  -28.6375  -49.0457 C.3       16 UNK        -0.1800 
     92 C          -5.1330  -26.0606  -49.1471 C.2       16 UNK         0.5000 
     93 O          -6.1995  -26.1542  -49.7570 O.2       16 UNK        -0.5000 
     94 N          -4.4545  -24.9121  -48.9911 N.am      17 UNK        -0.5000 
     95 CA         -4.7999  -23.5908  -49.5285 C.3       17 UNK         0.1400 
     96 CB         -6.1107  -23.0566  -48.9135 C.3       17 UNK        -0.1800 
     97 C          -4.7983  -23.5880  -51.0699 C.2       17 UNK         0.5000 
     98 O          -5.8256  -23.3391  -51.7046 O.2       17 UNK        -0.5000 
     99 N          -3.6264  -23.9029  -51.6326 N.am      18 UNK        -0.5000 
    100 CA        -3.3349  -23.9008  -53.0651 C.3       18 UNK         0.1400 
    101 CB        -2.0077  -24.6510  -53.2764 C.3       18 UNK        -0.1800 
    102 C         -3.2760  -22.4795  -53.6686 C.2       18 UNK         0.5000 
    103 O         -3.4348  -21.4863  -52.9562 O.2       18 UNK        -0.5000 
    104 N         -3.0193  -22.4182  -54.9828 N.am      19 UNK        -0.5000 
    105 CA        -2.9114  -21.2079  -55.8036 C.3       19 UNK         0.1400 
    106 CB        -1.7234  -20.3280  -55.3458 C.3       19 UNK        -0.1800 
    107 C         -4.2574  -20.4581  -55.9129 C.2       19 UNK         0.5000 
    108 O         -5.3057  -21.1039  -55.9904 O.2       19 UNK        -0.5000 
    109 N         -4.2109  -19.1240  -55.9638 N.am      20 UNK        -0.5000 
    110 CA        -5.3535  -18.2303  -56.1111 C.3       20 UNK         0.1400 
    111 CB        -5.7830  -18.1756  -57.5909 C.3       20 UNK        -0.1800 
    112 C         -4.9685  -16.8386  -55.5858 C.2       20 UNK         0.5000 
    113 O         -3.8043  -16.6101  -55.2429 O.2       20 UNK        -0.5000 
    114 N         -5.9583  -15.9371  -55.5375 N.am      21 UNK        -0.5000 
    115 CA        -5.9088  -14.5274  -55.1218 C.3       21 UNK         0.1400 
    116 CB        -4.9034  -13.7163  -55.9626 C.3       21 UNK        -0.1800 
    117 C         -5.6850  -14.3094  -53.6127 C.2       21 UNK         0.5000 
    118 O         -6.3952  -13.4960  -53.0192 O.2       21 UNK        -0.5000 
    119 N         -4.7406  -15.0487  -53.0187 N.am      22 UNK        -0.5000 
    120 CA        -4.3783  -15.0235  -51.5915 C.3       22 UNK         0.1400 
    121 C         -3.8180  -13.6401  -51.1254 C.2       22 UNK         0.5000 
    122 N         -3.9123  -13.2844  -49.8494 N.am      22 UNK        -0.7600 
    123 O         -3.2419  -12.8900  -51.9109 O.2       22 UNK        -0.5000 
    124 C124       -5.5166  -15.5979  -50.6934 C.3       23 UNK        -0.0398 
    125 S125       -5.8747  -17.3533  -51.0596 S.3       23 UNK        -0.2404 
    126 C126       -5.1468  -18.2008  -49.6179 C.3       23 UNK        -0.0205 
    127 H127        0.0233   -8.5164  -49.6948 H         1 UNK         0.0600 
    128 H128        1.3818   -8.1804  -48.6169 H         1 UNK         0.0600 
    129 H129       -0.1839   -8.6491  -47.9457 H         1 UNK         0.0600 
    130 H130        0.2561  -10.4878  -50.7030 H         1 UNK         0.3000 
    131 H131        0.7344  -12.5458  -51.2068 H         1 UNK         0.0600 
    132 H132       -0.7833  -12.8913  -49.0415 H         1 UNK         0.0800 
    133 H133        0.6596  -13.5205  -48.3076 H         1 UNK         0.0800 
    134 H134        0.1603  -16.2830  -48.1525 H         1 UNK         0.0800 
    135 H135       -1.3163  -15.3585  -48.0251 H         1 UNK         0.0800 
    136 H136       -3.3966  -16.3058  -48.7130 H         1 UNK         0.1150 
    137 H137       -3.5131  -20.1418  -50.6289 H         1 UNK         0.1150 
    138 H138        0.2502  -18.2676  -49.7815 H         1 UNK         0.1150 
    139 H139       -1.1179  -20.6761  -51.8786 H         1 UNK         0.0800 
    140 H140        0.2549  -20.3802  -50.8431 H         1 UNK         0.0800 
    141 H141       -1.5883  -20.9588  -47.8318 H         1 UNK         0.0800 
    142 H142        0.0973  -20.9291  -48.2754 H         1 UNK         0.0800 
    143 H143        0.2473  -23.4107  -47.7629 H         1 UNK         0.0600 
    144 H144        0.2117  -21.2785  -45.9164 H         1 UNK         0.3000 
    145 H145        1.3194  -23.1229  -43.0433 H         1 UNK         0.0600 
    146 H146        2.9920  -21.2978  -43.1533 H         1 UNK         0.0600 
    147 H147        3.3081  -22.4876  -44.4075 H         1 UNK         0.0600 
    148 H148        2.5529  -20.9546  -44.8243 H         1 UNK         0.0600 
    149 H149        0.6088  -20.3879  -43.3371 H         1 UNK         0.3000 
    150 H150       -2.8809  -20.7495  -42.5286 H         1 UNK         0.0600 
    151 H151       -1.5712  -20.6748  -40.3930 H         1 UNK         0.0600 
    152 H152       -2.1932  -19.0924  -40.8353 H         1 UNK         0.0600 
    153 H153       -0.4924  -19.4736  -41.0944 H         1 UNK         0.0600 
    154 H154       -1.3790  -18.4376  -43.1704 H         1 UNK         0.3000 
    155 H155       -1.8844  -18.5459  -46.7376 H         1 UNK         0.0600 
    156 H156       -3.8670  -17.4590  -45.7992 H         1 UNK         0.0600 
    157 H157       -2.6563  -16.2241  -46.1108 H         1 UNK         0.0600 
    158 H158       -2.9417  -16.7885  -44.4654 H         1 UNK         0.0600 
    159 H159       -0.4158  -16.6981  -45.1746 H         1 UNK         0.3000 
    160 H160        2.7215  -18.4475  -45.2520 H         1 UNK         0.0600 
    161 H161        1.8217  -15.8296  -46.5410 H         1 UNK         0.0600 
    162 H162        2.3588  -17.2342  -47.4589 H         1 UNK         0.0600 
    163 H163        3.4679  -16.4445  -46.3578 H         1 UNK         0.0600 
    164 H164        1.9021  -15.9176  -44.1415 H         1 UNK         0.3000 
    165 H165        1.0391  -17.1837  -40.9069 H         1 UNK         0.0600 
    166 H166        2.6382  -15.3748  -40.3134 H         1 UNK         0.0600 
    167 H167        3.4874  -16.8000  -40.8911 H         1 UNK         0.0600 
    168 H168        3.3102  -15.4037  -41.9427 H         1 UNK         0.0600 
    169 H169        0.9421  -14.5874  -42.1724 H         1 UNK         0.3000 
    170 H170       -2.3951  -14.8289  -43.3432 H         1 UNK         0.0600 
    171 H171       -2.8389  -14.5751  -40.8979 H         1 UNK         0.0600 
    172 H172       -1.4978  -13.4442  -40.7616 H         1 UNK         0.0600 
    173 H173       -2.9152  -13.0291  -41.7269 H         1 UNK         0.0600 
    174 H174       -0.7603  -12.5608  -42.9570 H         1 UNK         0.3000 
    175 H175       -0.1377  -12.0852  -46.0663 H         1 UNK         0.0600 
    176 H176        1.0697  -11.3848  -43.3352 H         1 UNK         0.0600 
    177 H177        0.9798  -10.3140  -44.7274 H         1 UNK         0.0600 
    178 H178       -0.4958  -10.8391  -43.9489 H         1 UNK         0.0600 
    179 H179        2.0162  -12.1775  -46.5619 H         1 UNK         0.3000 
    180 H180        4.5209  -12.3186  -45.7965 H         1 UNK         0.0600 
    181 H181        4.8645  -15.2676  -44.9912 H         1 UNK         0.0600 
    182 H182        5.3441  -13.8777  -44.0331 H         1 UNK         0.0600 
    183 H183        6.1556  -14.2072  -45.5485 H         1 UNK         0.0600 
    184 H184        3.0328  -14.1496  -47.3706 H         1 UNK         0.3000 
    185 H185        4.9950  -13.7178  -50.3001 H         1 UNK         0.0600 
    186 H186        5.5995  -15.9944  -49.4912 H         1 UNK         0.0600 
    187 H187        3.9465  -16.2639  -48.9579 H         1 UNK         0.0600 
    188 H188        4.3004  -16.0609  -50.6715 H         1 UNK         0.0600 
    189 H189        2.2856  -14.5922  -49.6939 H         1 UNK         0.3000 
    190 H190       -2.4122  -22.2426  -45.6192 H         1 UNK         0.3000 
    191 H191       -4.3830  -24.0928  -46.4345 H         1 UNK         0.0600 
    192 H192       -4.8914  -22.0822  -45.1040 H         1 UNK         0.0600 
    193 H193       -5.4649  -23.5171  -44.2684 H         1 UNK         0.0600 
    194 H194       -3.9907  -22.7219  -43.7308 H         1 UNK         0.0600 
    195 H195       -1.8273  -24.4015  -43.9545 H         1 UNK         0.3000 
    196 H196       -2.6795  -26.9795  -43.0103 H         1 UNK         0.0600 
    197 H197       -0.4842  -26.9341  -41.8139 H         1 UNK         0.0600 
    198 H198       -1.3830  -25.4403  -41.5923 H         1 UNK         0.0600 
    199 H199       -0.0207  -25.4894  -42.7063 H         1 UNK         0.0600 
    200 H200        0.0904  -25.9814  -45.1217 H         1 UNK         0.3000 
    201 H201        0.8959  -28.7633  -45.4250 H         1 UNK         0.0600 
    202 H202        2.5287  -26.9294  -45.0183 H         1 UNK         0.0600 
    203 H203        2.0995  -26.1897  -46.5599 H         1 UNK         0.0600 
    204 H204        2.8680  -27.7711  -46.5232 H         1 UNK         0.0600 
    205 H205       -0.5707  -26.2864  -47.5670 H         1 UNK         0.3000 
    206 H206       -0.3235  -28.1358  -49.9082 H         1 UNK         0.0600 
    207 H207        0.9105  -25.9372  -50.0061 H         1 UNK         0.0600 
    208 H208       -0.3090  -26.1064  -51.2542 H         1 UNK         0.0600 
    209 H209       -0.6279  -25.0923  -49.8544 H         1 UNK         0.0600 
    210 H210       -2.5708  -27.2352  -47.6617 H         1 UNK         0.3000 
    211 H211       -4.7728  -27.2664  -47.4407 H         1 UNK         0.0600 
    212 H212       -4.9315  -28.7332  -50.1209 H         1 UNK         0.0600 
    213 H213       -6.1576  -28.7009  -48.8627 H         1 UNK         0.0600 
    214 H214       -4.6233  -29.4990  -48.5626 H         1 UNK         0.0600 
    215 H215       -3.5641  -24.9614  -48.5027 H         1 UNK         0.3000 
    216 H216       -4.0042  -22.9137  -49.2153 H         1 UNK         0.0600 
    217 H217       -6.3098  -22.0402  -49.2552 H         1 UNK         0.0600 
    218 H218       -6.0554  -23.0260  -47.8258 H         1 UNK         0.0600 
    219 H219       -6.9719  -23.6656  -49.1887 H         1 UNK         0.0600 
    220 H220       -2.8381  -24.0697  -51.0255 H         1 UNK         0.3000 
    221 H221       -4.1308  -24.4463  -53.5759 H         1 UNK         0.0600 
    222 H222       -1.1777  -24.1425  -52.7837 H         1 UNK         0.0600 
    223 H223       -2.0655  -25.6643  -52.8794 H         1 UNK         0.0600 
    224 H224       -1.7569  -24.7418  -54.3335 H         1 UNK         0.0600 
    225 H225       -2.9379  -23.2866  -55.4920 H         1 UNK         0.3000 
    226 H226       -2.6849  -21.5544  -56.8128 H         1 UNK         0.0600 
    227 H227       -0.8162  -20.9223  -55.2363 H         1 UNK         0.0600 
    228 H228       -1.5044  -19.5479  -56.0756 H         1 UNK         0.0600 
    229 H229       -1.9170  -19.8413  -54.3891 H         1 UNK         0.0600 
    230 H230       -3.3297  -18.6436  -55.8278 H         1 UNK         0.3000 
    231 H231       -6.1797  -18.6011  -55.5006 H         1 UNK         0.0600 
    232 H232       -4.9817  -17.7947  -58.2252 H         1 UNK         0.0600 
    233 H233       -6.6493  -17.5285  -57.7314 H         1 UNK         0.0600 
    234 H234       -6.0604  -19.1625  -57.9614 H         1 UNK         0.0600 
    235 H235       -6.8787  -16.2512  -55.8122 H         1 UNK         0.3000 
    236 H236       -6.9007  -14.1306  -55.3444 H         1 UNK         0.0600 
    237 H237       -5.1002  -13.8273  -57.0289 H         1 UNK         0.0600 
    238 H238       -4.9727  -12.6535  -55.7276 H         1 UNK         0.0600 
    239 H239       -3.8731  -14.0203  -55.7768 H         1 UNK         0.0600 
    240 H240       -4.1984  -15.6706  -53.6103 H         1 UNK         0.3000 
    241 H241       -3.5228  -15.6938  -51.5070 H         1 UNK         0.0600 
    242 H242       -3.5363  -12.3916  -49.5732 H         1 UNK         0.3800 
    243 H243       -4.3736  -13.8569  -49.1628 H         1 UNK         0.3800 
    244 H244       -5.2812  -15.5122  -49.6345 H         1 UNK         0.0800 
    245 H245       -6.4349  -15.0256  -50.8284 H         1 UNK         0.0800 
    246 H246       -5.4904  -17.7306  -48.6954 H         1 UNK         0.0800 
    247 H247       -5.5247  -19.2240  -49.5908 H         1 UNK         0.0800 
@<TRIPOS>BOND
     1    1    2 1    
     2    1  127 1    
     3    1  128 1    
     4    1  129 1    
     5    2    3 2    
     6    2    4 am   BACKBONE|DICT|INTERRES
     7    4    5 1    
     8    4  130 1    
     9    5    6 1    
    10    5   65 1    
    11    5  131 1    
    12    6    7 1    
    13    6  132 1    
    14    6  133 1    
    15    7    8 1    
    16    8    9 1    
    17    8  134 1    
    18    8  135 1    
    19    9   10 ar   
    20    9   14 ar   
    21   10   11 ar   
    22   10  136 1    
    23   11   12 ar   
    24   11  126 1    
    25   12   13 ar   
    26   12  137 1    
    27   13   14 ar   
    28   13   15 1    
    29   14  138 1    
    30   15   16 1    
    31   15  139 1    
    32   15  140 1    
    33   16   17 1    
    34   17   18 1    
    35   17  141 1    
    36   17  142 1    
    37   18   19 1    
    38   18   67 1    
    39   18  143 1    
    40   19   20 am   BACKBONE|DICT|INTERRES
    41   19  144 1    
    42   20   21 2    
    43   20   22 1    
    44   22   23 1    
    45   22   24 1    
    46   22  145 1    
    47   23  146 1    
    48   23  147 1    
    49   23  148 1    
    50   24   25 am   BACKBONE|DICT|INTERRES
    51   24  149 1    
    52   25   26 2    
    53   25   27 1    
    54   27   28 1    
    55   27   29 1    
    56   27  150 1    
    57   28  151 1    
    58   28  152 1    
    59   28  153 1    
    60   29   30 am   BACKBONE|DICT|INTERRES
    61   29  154 1    
    62   30   31 2    
    63   30   32 1    
    64   32   33 1    
    65   32   34 1    
    66   32  155 1    
    67   33  156 1    
    68   33  157 1    
    69   33  158 1    
    70   34   35 am   BACKBONE|DICT|INTERRES
    71   34  159 1    
    72   35   36 2    
    73   35   37 1    
    74   37   38 1    
    75   37   39 1    
    76   37  160 1    
    77   38  161 1    
    78   38  162 1    
    79   38  163 1    
    80   39   40 am   BACKBONE|DICT|INTERRES
    81   39  164 1    
    82   40   41 2    
    83   40   42 1    
    84   42   43 1    
    85   42   44 1    
    86   42  165 1    
    87   43  166 1    
    88   43  167 1    
    89   43  168 1    
    90   44   45 am   BACKBONE|DICT|INTERRES
    91   44  169 1    
    92   45   46 2    
    93   45   47 1    
    94   47   48 1    
    95   47   49 1    
    96   47  170 1    
    97   48  171 1    
    98   48  172 1    
    99   48  173 1    
   100   49   50 am   BACKBONE|DICT|INTERRES
   101   49  174 1    
   102   50   51 2    
   103   50   52 1    
   104   52   53 1    
   105   52   54 1    
   106   52  175 1    
   107   53  176 1    
   108   53  177 1    
   109   53  178 1    
   110   54   55 am   BACKBONE|DICT|INTERRES
   111   54  179 1    
   112   55   56 2    
   113   55   57 1    
   114   57   58 1    
   115   57   59 1    
   116   57  180 1    
   117   58  181 1    
   118   58  182 1    
   119   58  183 1    
   120   59   60 am   BACKBONE|DICT|INTERRES
   121   59  184 1    
   122   60   61 2    
   123   60   62 1    
   124   62   63 1    
   125   62   64 1    
   126   62  185 1    
   127   63  186 1    
   128   63  187 1    
   129   63  188 1    
   130   64   65 am   BACKBONE|DICT|INTERRES
   131   64  189 1    
   132   65   66 2    
   133   67   68 2    
   134   67   69 am   BACKBONE|DICT|INTERRES
   135   69   70 1    
   136   69  190 1    
   137   70   71 1    
   138   70   72 1    
   139   70  191 1    
   140   71  192 1    
   141   71  193 1    
   142   71  194 1    
   143   72   73 2    
   144   72   74 am   BACKBONE|DICT|INTERRES
   145   74   75 1    
   146   74  195 1    
   147   75   76 1    
   148   75   77 1    
   149   75  196 1    
   150   76  197 1    
   151   76  198 1    
   152   76  199 1    
   153   77   78 2    
   154   77   79 am   BACKBONE|DICT|INTERRES
   155   79   80 1    
   156   79  200 1    
   157   80   81 1    
   158   80   82 1    
   159   80  201 1    
   160   81  202 1    
   161   81  203 1    
   162   81  204 1    
   163   82   83 2    
   164   82   84 am   BACKBONE|DICT|INTERRES
   165   84   85 1    
   166   84  205 1    
   167   85   86 1    
   168   85   87 1    
   169   85  206 1    
   170   86  207 1    
   171   86  208 1    
   172   86  209 1    
   173   87   88 2    
   174   87   89 am   BACKBONE|DICT|INTERRES
   175   89   90 1    
   176   89  210 1    
   177   90   91 1    
   178   90   92 1    
   179   90  211 1    
   180   91  212 1    
   181   91  213 1    
   182   91  214 1    
   183   92   93 2    
   184   92   94 am   BACKBONE|DICT|INTERRES
   185   94   95 1    
   186   94  215 1    
   187   95   96 1    
   188   95   97 1    
   189   95  216 1    
   190   96  217 1    
   191   96  218 1    
   192   96  219 1    
   193   97   98 2    
   194   97   99 am   BACKBONE|DICT|INTERRES
   195   99  100 1    
   196   99  220 1    
   197  100  101 1    
   198  100  102 1    
   199  100  221 1    
   200  101  222 1    
   201  101  223 1    
   202  101  224 1    
   203  102  103 2    
   204  102  104 am   BACKBONE|DICT|INTERRES
   205  104  105 1    
   206  104  225 1    
   207  105  106 1    
   208  105  107 1    
   209  105  226 1    
   210  106  227 1    
   211  106  228 1    
   212  106  229 1    
   213  107  108 2    
   214  107  109 am   BACKBONE|DICT|INTERRES
   215  109  110 1    
   216  109  230 1    
   217  110  111 1    
   218  110  112 1    
   219  110  231 1    
   220  111  232 1    
   221  111  233 1    
   222  111  234 1    
   223  112  113 2    
   224  112  114 am   BACKBONE|DICT|INTERRES
   225  114  115 1    
   226  114  235 1    
   227  115  116 1    
   228  115  117 1    
   229  115  236 1    
   230  116  237 1    
   231  116  238 1    
   232  116  239 1    
   233  117  118 2    
   234  117  119 am   BACKBONE|DICT|INTERRES
   235  119  120 1    
   236  119  240 1    
   237  120  121 1    
   238  120  124 1    
   239  120  241 1    
   240  121  122 am   BACKBONE|DICT|INTERRES
   241  121  123 2    
   242  122  242 1    
   243  122  243 1    
   244  124  125 1    
   245  124  244 1    
   246  124  245 1    
   247  125  126 1    
   248  126  246 1    
   249  126  247 1    
@<TRIPOS>SUBSTRUCTURE
     1 UNK         1 GROUP             0       ****    0 ROOT    
