@<TRIPOS>MOLECULE
3R540
247   249    1
SMALL
USER_CHARGES


@<TRIPOS>ATOM
      1 CA          4.1127  -17.9988  -45.4552 C.3       0 UNK        -0.1800 
      2 C           4.2766  -16.7961  -46.3707 C.2       0 UNK         0.5000 
      3 O           5.3397  -16.1759  -46.3934 O.2       0 UNK        -0.5000 
      4 N           3.2208  -16.4638  -47.1242 N.am      1 UNK        -0.5000 
      5 CA          3.1319  -15.3871  -48.1201 C.3       1 UNK         0.1400 
      6 C6          4.2053  -15.5003  -49.2366 C.3       23 UNK        -0.0398 
      7 S7          3.6432  -14.7843  -50.8173 S.3       23 UNK        -0.2404 
      8 C8          3.3977  -16.2753  -51.8338 C.3       23 UNK        -0.0205 
      9 C9          2.2758  -17.1614  -51.3101 C.ar      23 UNK        -0.0193 
     10 C10         0.9440  -16.7580  -51.4419 C.ar      23 UNK        -0.1150 
     11 C11        -0.0948  -17.5827  -51.0010 C.ar      23 UNK        -0.0193 
     12 C12         0.2052  -18.8205  -50.4280 C.ar      23 UNK        -0.1150 
     13 C13         1.5325  -19.2349  -50.2882 C.ar      23 UNK        -0.0193 
     14 C14         2.5639  -18.3993  -50.7267 C.ar      23 UNK        -0.1150 
     15 C15         1.8507  -20.6047  -49.7087 C.3       23 UNK        -0.0205 
     16 S16         2.4320  -20.5285  -47.9843 S.3       23 UNK        -0.2404 
     17 C17         0.9798  -19.8994  -47.0783 C.3       23 UNK        -0.0398 
     18 CA         -0.0549  -21.0027  -46.7283 C.3       11 UNK         0.1400 
     19 N          -0.5913  -20.8511  -45.3745 N.am      11 UNK        -0.5000 
     20 C          -1.2964  -21.7850  -44.7203 C.2       10 UNK         0.5000 
     21 O          -1.4735  -22.9285  -45.1384 O.2       10 UNK        -0.5000 
     22 CA         -1.9488  -21.3519  -43.3948 C.3       10 UNK         0.1400 
     23 CB         -1.0326  -21.6691  -42.2032 C.3       10 UNK        -0.1800 
     24 N          -2.2856  -19.9262  -43.3944 N.am      10 UNK        -0.5000 
     25 C          -3.3130  -19.4003  -44.0783 C.2       9 UNK         0.5000 
     26 O          -4.1064  -20.0751  -44.7343 O.2       9 UNK        -0.5000 
     27 CA         -3.4483  -17.8637  -44.0719 C.3       9 UNK         0.1400 
     28 CB         -4.2436  -17.3973  -42.8438 C.3       9 UNK        -0.1800 
     29 N          -2.1575  -17.1722  -44.1013 N.am      9 UNK        -0.5000 
     30 C          -1.2734  -17.2505  -45.1055 C.2       8 UNK         0.5000 
     31 O          -1.4868  -17.8596  -46.1513 O.2       8 UNK        -0.5000 
     32 CA          0.1064  -16.5995  -44.8964 C.3       8 UNK         0.1400 
     33 CB          0.1513  -15.2248  -45.5718 C.3       8 UNK        -0.1800 
     34 N           0.5271  -16.4803  -43.4958 N.am      8 UNK        -0.5000 
     35 C           0.6477  -17.5062  -42.6387 C.2       7 UNK         0.5000 
     36 O           0.3875  -18.6712  -42.9446 O.2       7 UNK        -0.5000 
     37 CA          1.1080  -17.1591  -41.2086 C.3       7 UNK         0.1400 
     38 CB          1.3566  -18.4040  -40.3313 C.3       7 UNK        -0.1800 
     39 N           2.2654  -16.2619  -41.1996 N.am      7 UNK        -0.5000 
     40 C           3.4886  -16.5003  -41.6963 C.2       6 UNK         0.5000 
     41 O           3.8361  -17.5817  -42.1696 O.2       6 UNK        -0.5000 
     42 CA          4.4976  -15.3357  -41.6744 C.3       6 UNK         0.1400 
     43 CB          4.9990  -15.0276  -43.0912 C.3       6 UNK        -0.1800 
     44 N           3.9223  -14.1118  -41.1133 N.am      6 UNK        -0.5000 
     45 C           4.1223  -13.6740  -39.8633 C.2       5 UNK         0.5000 
     46 O           4.8612  -14.2306  -39.0504 O.2       5 UNK        -0.5000 
     47 CA          3.3426  -12.4143  -39.4361 C.3       5 UNK         0.1400 
     48 CB          4.1518  -11.1484  -39.7560 C.3       5 UNK        -0.1800 
     49 N           2.0238  -12.3069  -40.0634 N.am      5 UNK        -0.5000 
     50 C           1.0124  -13.1710  -39.8954 C.2       4 UNK         0.5000 
     51 O           1.0658  -14.1504  -39.1525 O.2       4 UNK        -0.5000 
     52 CA         -0.2543  -12.9375  -40.7409 C.3       4 UNK         0.1400 
     53 CB         -1.3076  -12.1666  -39.9319 C.3       4 UNK        -0.1800 
     54 N          -0.0024  -12.2291  -41.9991 N.am      4 UNK        -0.5000 
     55 C           0.7677  -12.6787  -42.9991 C.2       3 UNK         0.5000 
     56 O           1.3477  -13.7677  -42.9605 O.2       3 UNK        -0.5000 
     57 CA          0.8745  -11.7701  -44.2447 C.3       3 UNK         0.1400 
     58 CB          0.9020  -10.2669  -43.8879 C.3       3 UNK        -0.1800 
     59 N           2.0019  -12.0937  -45.1247 N.am      3 UNK        -0.5000 
     60 C           3.3085  -12.0701  -44.8310 C.2       2 UNK         0.5000 
     61 O           3.7581  -11.8339  -43.7074 O.2       2 UNK        -0.5000 
     62 CA          4.2628  -12.3367  -46.0160 C.3       2 UNK         0.1400 
     63 CB          5.7489  -12.1888  -45.6453 C.3       2 UNK        -0.1800 
     64 N           4.0593  -13.6479  -46.6356 N.am      2 UNK        -0.5000 
     65 C           3.0912  -13.9700  -47.5020 C.2       1 UNK         0.5000 
     66 O           2.1789  -13.2001  -47.8070 O.2       1 UNK        -0.5000 
     67 C          -1.2043  -21.0597  -47.7551 C.2       11 UNK         0.5000 
     68 O          -1.2478  -21.9793  -48.5699 O.2       11 UNK        -0.5000 
     69 N          -2.1435  -20.1043  -47.6654 N.am      12 UNK        -0.5000 
     70 CA         -3.3467  -20.0058  -48.4966 C.3       12 UNK         0.1400 
     71 CB         -4.1367  -18.7444  -48.1224 C.3       12 UNK        -0.1800 
     72 C          -4.2409  -21.2555  -48.4136 C.2       12 UNK         0.5000 
     73 O          -4.7537  -21.7088  -49.4370 O.2       12 UNK        -0.5000 
     74 N          -4.3415  -21.8417  -47.2142 N.am      13 UNK        -0.5000 
     75 CA         -5.0234  -23.1092  -46.9426 C.3       13 UNK         0.1400 
     76 CB         -5.1317  -23.2971  -45.4213 C.3       13 UNK        -0.1800 
     77 C          -4.3767  -24.3493  -47.6033 C.2       13 UNK         0.5000 
     78 O          -4.9818  -25.4201  -47.5655 O.2       13 UNK        -0.5000 
     79 N          -3.1848  -24.2016  -48.1961 N.am      14 UNK        -0.5000 
     80 CA         -2.4665  -25.2434  -48.9299 C.3       14 UNK         0.1400 
     81 CB         -1.1955  -25.6005  -48.1404 C.3       14 UNK        -0.1800 
     82 C          -2.1198  -24.8088  -50.3689 C.2       14 UNK         0.5000 
     83 O          -1.4194  -25.5511  -51.0606 O.2       14 UNK        -0.5000 
     84 N          -2.5854  -23.6244  -50.8010 N.am      15 UNK        -0.5000 
     85 CA         -2.2338  -22.9941  -52.0757 C.3       15 UNK         0.1400 
     86 CB         -2.9063  -21.6195  -52.1817 C.3       15 UNK        -0.1800 
     87 C          -2.5893  -23.8698  -53.2874 C.2       15 UNK         0.5000 
     88 O          -3.7295  -24.3309  -53.3933 O.2       15 UNK        -0.5000 
     89 N          -1.5855  -24.1163  -54.1418 N.am      16 UNK        -0.5000 
     90 CA         -1.6128  -24.9651  -55.3422 C.3       16 UNK         0.1400 
     91 CB         -2.5366  -24.3412  -56.4094 C.3       16 UNK        -0.1800 
     92 C          -1.9695  -26.4458  -55.0708 C.2       16 UNK         0.5000 
     93 O          -2.3189  -27.1626  -56.0092 O.2       16 UNK        -0.5000 
     94 N          -1.9238  -26.8636  -53.7939 N.am      17 UNK        -0.5000 
     95 CA         -2.4591  -28.1132  -53.2369 C.3       17 UNK         0.1400 
     96 CB         -1.7166  -29.3412  -53.8032 C.3       17 UNK        -0.1800 
     97 C          -3.9972  -28.2398  -53.3625 C.2       17 UNK         0.5000 
     98 O          -4.5369  -29.3245  -53.1392 O.2       17 UNK        -0.5000 
     99 N          -4.6750  -27.1364  -53.7058 N.am      18 UNK        -0.5000 
    100 CA        -6.1192  -27.0469  -53.9086 C.3       18 UNK         0.1400 
    101 CB        -6.3796  -26.2856  -55.2184 C.3       18 UNK        -0.1800 
    102 C         -6.8126  -26.3324  -52.7374 C.2       18 UNK         0.5000 
    103 O         -7.9752  -26.6334  -52.4656 O.2       18 UNK        -0.5000 
    104 N         -6.0795  -25.4213  -52.0769 N.am      19 UNK        -0.5000 
    105 CA        -6.4915  -24.4922  -51.0212 C.3       19 UNK         0.1400 
    106 CB        -7.2493  -25.1907  -49.8759 C.3       19 UNK        -0.1800 
    107 C         -7.2974  -23.3080  -51.5829 C.2       19 UNK         0.5000 
    108 O         -8.1725  -23.4895  -52.4310 O.2       19 UNK        -0.5000 
    109 N         -6.9761  -22.1051  -51.0885 N.am      20 UNK        -0.5000 
    110 CA        -7.5834  -20.8097  -51.4189 C.3       20 UNK         0.1400 
    111 CB        -9.0677  -20.7709  -51.0013 C.3       20 UNK        -0.1800 
    112 C         -7.3682  -20.3565  -52.8798 C.2       20 UNK         0.5000 
    113 O         -8.0321  -19.4212  -53.3310 O.2       20 UNK        -0.5000 
    114 N         -6.4099  -20.9797  -53.5835 N.am      21 UNK        -0.5000 
    115 CA        -6.0430  -20.6851  -54.9740 C.3       21 UNK         0.1400 
    116 CB        -5.0520  -21.7499  -55.4685 C.3       21 UNK        -0.1800 
    117 C         -5.4778  -19.2643  -55.1845 C.2       21 UNK         0.5000 
    118 O         -5.5042  -18.7614  -56.3085 O.2       21 UNK        -0.5000 
    119 N         -5.0132  -18.6350  -54.0975 N.am      22 UNK        -0.5000 
    120 CA        -4.6485  -17.2122  -54.0270 C.3       22 UNK         0.1400 
    121 C         -5.8569  -16.2321  -54.1345 C.2       22 UNK         0.5000 
    122 N         -7.1028  -16.6757  -54.0039 N.am      22 UNK        -0.7600 
    123 O         -5.6576  -15.0390  -54.3459 O.2       22 UNK        -0.5000 
    124 C124       -3.8204  -16.9009  -52.7541 C.3       23 UNK        -0.0398 
    125 S125       -2.2662  -17.8485  -52.6723 S.3       23 UNK        -0.2404 
    126 C126       -1.5402  -17.1452  -51.1616 C.3       23 UNK        -0.0205 
    127 H127        3.1495  -17.9778  -44.9456 H         1 UNK         0.0600 
    128 H128        4.8933  -18.0108  -44.6948 H         1 UNK         0.0600 
    129 H129        4.1860  -18.9230  -46.0275 H         1 UNK         0.0600 
    130 H130        2.3889  -17.0290  -47.0532 H         1 UNK         0.3000 
    131 H131        2.1564  -15.5455  -48.5839 H         1 UNK         0.0600 
    132 H132        5.1407  -15.0207  -48.9429 H         1 UNK         0.0800 
    133 H133        4.4616  -16.5469  -49.4039 H         1 UNK         0.0800 
    134 H134        3.1612  -15.9688  -52.8536 H         1 UNK         0.0800 
    135 H135        4.3357  -16.8296  -51.8949 H         1 UNK         0.0800 
    136 H136        0.7177  -15.8046  -51.8986 H         1 UNK         0.1150 
    137 H137       -0.5988  -19.4678  -50.1106 H         1 UNK         0.1150 
    138 H138        3.5904  -18.7239  -50.6282 H         1 UNK         0.1150 
    139 H139        0.9876  -21.2664  -49.7806 H         1 UNK         0.0800 
    140 H140        2.6292  -21.0723  -50.3131 H         1 UNK         0.0800 
    141 H141        0.5368  -19.0553  -47.6089 H         1 UNK         0.0800 
    142 H142        1.3825  -19.4753  -46.1582 H         1 UNK         0.0800 
    143 H143        0.4485  -21.9719  -46.7527 H         1 UNK         0.0600 
    144 H144       -0.4944  -19.9444  -44.9402 H         1 UNK         0.3000 
    145 H145       -2.8704  -21.9250  -43.2724 H         1 UNK         0.0600 
    146 H146       -1.4890  -21.3647  -41.2613 H         1 UNK         0.0600 
    147 H147       -0.8383  -22.7404  -42.1393 H         1 UNK         0.0600 
    148 H148       -0.0677  -21.1687  -42.2862 H         1 UNK         0.0600 
    149 H149       -1.6225  -19.3093  -42.9407 H         1 UNK         0.3000 
    150 H150       -4.0028  -17.5760  -44.9673 H         1 UNK         0.0600 
    151 H151       -5.2209  -17.8804  -42.8057 H         1 UNK         0.0600 
    152 H152       -4.4156  -16.3211  -42.8705 H         1 UNK         0.0600 
    153 H153       -3.7246  -17.6323  -41.9136 H         1 UNK         0.0600 
    154 H154       -1.9020  -16.6474  -43.2785 H         1 UNK         0.3000 
    155 H155        0.8364  -17.2391  -45.3924 H         1 UNK         0.0600 
    156 H156        1.1434  -14.7851  -45.4856 H         1 UNK         0.0600 
    157 H157       -0.5650  -14.5348  -45.1253 H         1 UNK         0.0600 
    158 H158       -0.0806  -15.2989  -46.6353 H         1 UNK         0.0600 
    159 H159        0.8027  -15.5498  -43.1893 H         1 UNK         0.3000 
    160 H160        0.2886  -16.6003  -40.7546 H         1 UNK         0.0600 
    161 H161        2.1271  -19.0518  -40.7501 H         1 UNK         0.0600 
    162 H162        0.4486  -19.0007  -40.2364 H         1 UNK         0.0600 
    163 H163        1.6655  -18.1212  -39.3251 H         1 UNK         0.0600 
    164 H164        2.0981  -15.3440  -40.8103 H         1 UNK         0.3000 
    165 H165        5.3529  -15.6605  -41.0789 H         1 UNK         0.0600 
    166 H166        4.1778  -14.7693  -43.7608 H         1 UNK         0.0600 
    167 H167        5.7027  -14.1966  -43.0768 H         1 UNK         0.0600 
    168 H168        5.5201  -15.8838  -43.5200 H         1 UNK         0.0600 
    169 H169        3.2997  -13.5942  -41.7230 H         1 UNK         0.3000 
    170 H170        3.1963  -12.4659  -38.3553 H         1 UNK         0.0600 
    171 H171        5.1357  -11.1844  -39.2864 H         1 UNK         0.0600 
    172 H172        4.3044  -11.0302  -40.8299 H         1 UNK         0.0600 
    173 H173        3.6492  -10.2541  -39.3871 H         1 UNK         0.0600 
    174 H174        1.8932  -11.5415  -40.7083 H         1 UNK         0.3000 
    175 H175       -0.6649  -13.9184  -40.9891 H         1 UNK         0.0600 
    176 H176       -0.9644  -11.1631  -39.6770 H         1 UNK         0.0600 
    177 H177       -2.2410  -12.0723  -40.4871 H         1 UNK         0.0600 
    178 H178       -1.5378  -12.6819  -38.9983 H         1 UNK         0.0600 
    179 H179       -0.4541  -11.3321  -42.1037 H         1 UNK         0.3000 
    180 H180       -0.0246  -11.9572  -44.8328 H         1 UNK         0.0600 
    181 H181        1.7128  -10.0290  -43.1980 H         1 UNK         0.0600 
    182 H182       -0.0317   -9.9439  -43.4269 H         1 UNK         0.0600 
    183 H183        1.0378   -9.6555  -44.7802 H         1 UNK         0.0600 
    184 H184        1.7588  -12.3570  -46.0750 H         1 UNK         0.3000 
    185 H185        4.0457  -11.5693  -46.7620 H         1 UNK         0.0600 
    186 H186        6.3805  -12.2496  -46.5317 H         1 UNK         0.0600 
    187 H187        5.9447  -11.2238  -45.1759 H         1 UNK         0.0600 
    188 H188        6.0742  -12.9647  -44.9546 H         1 UNK         0.0600 
    189 H189        4.7333  -14.3734  -46.4052 H         1 UNK         0.3000 
    190 H190       -2.0022  -19.3496  -46.9960 H         1 UNK         0.3000 
    191 H191       -3.0199  -19.8944  -49.5294 H         1 UNK         0.0600 
    192 H192       -4.9962  -18.6136  -48.7811 H         1 UNK         0.0600 
    193 H193       -3.5200  -17.8499  -48.2104 H         1 UNK         0.0600 
    194 H194       -4.5114  -18.7916  -47.1002 H         1 UNK         0.0600 
    195 H195       -3.9287  -21.3732  -46.4156 H         1 UNK         0.3000 
    196 H196       -6.0353  -23.0291  -47.3446 H         1 UNK         0.0600 
    197 H197       -5.6961  -24.1974  -45.1755 H         1 UNK         0.0600 
    198 H198       -5.6453  -22.4564  -44.9543 H         1 UNK         0.0600 
    199 H199       -4.1496  -23.3900  -44.9582 H         1 UNK         0.0600 
    200 H200       -2.7166  -23.3020  -48.1554 H         1 UNK         0.3000 
    201 H201       -3.0789  -26.1422  -49.0215 H         1 UNK         0.0600 
    202 H202       -1.4407  -25.9370  -47.1329 H         1 UNK         0.0600 
    203 H203       -0.5266  -24.7434  -48.0517 H         1 UNK         0.0600 
    204 H204       -0.6405  -26.4049  -48.6245 H         1 UNK         0.0600 
    205 H205       -3.1744  -23.0827  -50.1839 H         1 UNK         0.3000 
    206 H206       -1.1536  -22.8348  -52.0644 H         1 UNK         0.0600 
    207 H207       -2.6834  -21.1437  -53.1371 H         1 UNK         0.0600 
    208 H208       -3.9894  -21.6892  -52.0866 H         1 UNK         0.0600 
    209 H209       -2.5365  -20.9503  -51.4083 H         1 UNK         0.0600 
    210 H210       -0.6832  -23.7103  -53.9359 H         1 UNK         0.3000 
    211 H211       -0.5970  -24.9663  -55.7398 H         1 UNK         0.0600 
    212 H212       -3.5855  -24.3950  -56.1169 H         1 UNK         0.0600 
    213 H213       -2.4388  -24.8578  -57.3647 H         1 UNK         0.0600 
    214 H214       -2.2904  -23.2937  -56.5830 H         1 UNK         0.0600 
    215 H215       -1.6153  -26.1978  -53.0934 H         1 UNK         0.3000 
    216 H216       -2.2520  -28.0717  -52.1668 H         1 UNK         0.0600 
    217 H217       -0.6367  -29.2262  -53.7110 H         1 UNK         0.0600 
    218 H218       -1.9489  -29.5092  -54.8549 H         1 UNK         0.0600 
    219 H219       -1.9920  -30.2472  -53.2623 H         1 UNK         0.0600 
    220 H220       -4.1545  -26.2759  -53.8328 H         1 UNK         0.3000 
    221 H221       -6.5537  -28.0445  -54.0001 H         1 UNK         0.0600 
    222 H222       -5.9755  -25.2730  -55.1824 H         1 UNK         0.0600 
    223 H223       -5.9249  -26.7965  -56.0675 H         1 UNK         0.0600 
    224 H224       -7.4488  -26.2063  -55.4189 H         1 UNK         0.0600 
    225 H225       -5.1610  -25.2208  -52.4607 H         1 UNK         0.3000 
    226 H226       -5.5594  -24.1037  -50.6087 H         1 UNK         0.0600 
    227 H227       -6.7252  -26.0856  -49.5409 H         1 UNK         0.0600 
    228 H228       -7.3458  -24.5260  -49.0172 H         1 UNK         0.0600 
    229 H229       -8.2586  -25.4816  -50.1675 H         1 UNK         0.0600 
    230 H230       -6.2078  -22.0468  -50.4202 H         1 UNK         0.3000 
    231 H231       -7.0564  -20.0770  -50.8061 H         1 UNK         0.0600 
    232 H232       -9.4740  -19.7628  -51.0907 H         1 UNK         0.0600 
    233 H233       -9.1930  -21.0777  -49.9629 H         1 UNK         0.0600 
    234 H234       -9.6816  -21.4244  -51.6214 H         1 UNK         0.0600 
    235 H235       -5.9240  -21.7456  -53.1425 H         1 UNK         0.3000 
    236 H236       -6.9514  -20.7627  -55.5748 H         1 UNK         0.0600 
    237 H237       -4.1067  -21.7044  -54.9297 H         1 UNK         0.0600 
    238 H238       -5.4575  -22.7548  -55.3495 H         1 UNK         0.0600 
    239 H239       -4.8290  -21.6137  -56.5274 H         1 UNK         0.0600 
    240 H240       -5.0112  -19.1368  -53.2234 H         1 UNK         0.3000 
    241 H241       -4.0161  -16.9993  -54.8911 H         1 UNK         0.0600 
    242 H242       -7.3054  -17.6543  -53.8264 H         1 UNK         0.3800 
    243 H243       -7.8659  -16.0222  -54.0822 H         1 UNK         0.3800 
    244 H244       -3.5636  -15.8403  -52.7192 H         1 UNK         0.0800 
    245 H245       -4.4056  -17.1067  -51.8561 H         1 UNK         0.0800 
    246 H246       -2.1244  -17.4584  -50.2954 H         1 UNK         0.0800 
    247 H247       -1.5978  -16.0562  -51.1975 H         1 UNK         0.0800 
@<TRIPOS>BOND
     1    1    2 1    
     2    1  127 1    
     3    1  128 1    
     4    1  129 1    
     5    2    3 2    
     6    2    4 am   BACKBONE|DICT|INTERRES
     7    4    5 1    
     8    4  130 1    
     9    5    6 1    
    10    5   65 1    
    11    5  131 1    
    12    6    7 1    
    13    6  132 1    
    14    6  133 1    
    15    7    8 1    
    16    8    9 1    
    17    8  134 1    
    18    8  135 1    
    19    9   10 ar   
    20    9   14 ar   
    21   10   11 ar   
    22   10  136 1    
    23   11   12 ar   
    24   11  126 1    
    25   12   13 ar   
    26   12  137 1    
    27   13   14 ar   
    28   13   15 1    
    29   14  138 1    
    30   15   16 1    
    31   15  139 1    
    32   15  140 1    
    33   16   17 1    
    34   17   18 1    
    35   17  141 1    
    36   17  142 1    
    37   18   19 1    
    38   18   67 1    
    39   18  143 1    
    40   19   20 am   BACKBONE|DICT|INTERRES
    41   19  144 1    
    42   20   21 2    
    43   20   22 1    
    44   22   23 1    
    45   22   24 1    
    46   22  145 1    
    47   23  146 1    
    48   23  147 1    
    49   23  148 1    
    50   24   25 am   BACKBONE|DICT|INTERRES
    51   24  149 1    
    52   25   26 2    
    53   25   27 1    
    54   27   28 1    
    55   27   29 1    
    56   27  150 1    
    57   28  151 1    
    58   28  152 1    
    59   28  153 1    
    60   29   30 am   BACKBONE|DICT|INTERRES
    61   29  154 1    
    62   30   31 2    
    63   30   32 1    
    64   32   33 1    
    65   32   34 1    
    66   32  155 1    
    67   33  156 1    
    68   33  157 1    
    69   33  158 1    
    70   34   35 am   BACKBONE|DICT|INTERRES
    71   34  159 1    
    72   35   36 2    
    73   35   37 1    
    74   37   38 1    
    75   37   39 1    
    76   37  160 1    
    77   38  161 1    
    78   38  162 1    
    79   38  163 1    
    80   39   40 am   BACKBONE|DICT|INTERRES
    81   39  164 1    
    82   40   41 2    
    83   40   42 1    
    84   42   43 1    
    85   42   44 1    
    86   42  165 1    
    87   43  166 1    
    88   43  167 1    
    89   43  168 1    
    90   44   45 am   BACKBONE|DICT|INTERRES
    91   44  169 1    
    92   45   46 2    
    93   45   47 1    
    94   47   48 1    
    95   47   49 1    
    96   47  170 1    
    97   48  171 1    
    98   48  172 1    
    99   48  173 1    
   100   49   50 am   BACKBONE|DICT|INTERRES
   101   49  174 1    
   102   50   51 2    
   103   50   52 1    
   104   52   53 1    
   105   52   54 1    
   106   52  175 1    
   107   53  176 1    
   108   53  177 1    
   109   53  178 1    
   110   54   55 am   BACKBONE|DICT|INTERRES
   111   54  179 1    
   112   55   56 2    
   113   55   57 1    
   114   57   58 1    
   115   57   59 1    
   116   57  180 1    
   117   58  181 1    
   118   58  182 1    
   119   58  183 1    
   120   59   60 am   BACKBONE|DICT|INTERRES
   121   59  184 1    
   122   60   61 2    
   123   60   62 1    
   124   62   63 1    
   125   62   64 1    
   126   62  185 1    
   127   63  186 1    
   128   63  187 1    
   129   63  188 1    
   130   64   65 am   BACKBONE|DICT|INTERRES
   131   64  189 1    
   132   65   66 2    
   133   67   68 2    
   134   67   69 am   BACKBONE|DICT|INTERRES
   135   69   70 1    
   136   69  190 1    
   137   70   71 1    
   138   70   72 1    
   139   70  191 1    
   140   71  192 1    
   141   71  193 1    
   142   71  194 1    
   143   72   73 2    
   144   72   74 am   BACKBONE|DICT|INTERRES
   145   74   75 1    
   146   74  195 1    
   147   75   76 1    
   148   75   77 1    
   149   75  196 1    
   150   76  197 1    
   151   76  198 1    
   152   76  199 1    
   153   77   78 2    
   154   77   79 am   BACKBONE|DICT|INTERRES
   155   79   80 1    
   156   79  200 1    
   157   80   81 1    
   158   80   82 1    
   159   80  201 1    
   160   81  202 1    
   161   81  203 1    
   162   81  204 1    
   163   82   83 2    
   164   82   84 am   BACKBONE|DICT|INTERRES
   165   84   85 1    
   166   84  205 1    
   167   85   86 1    
   168   85   87 1    
   169   85  206 1    
   170   86  207 1    
   171   86  208 1    
   172   86  209 1    
   173   87   88 2    
   174   87   89 am   BACKBONE|DICT|INTERRES
   175   89   90 1    
   176   89  210 1    
   177   90   91 1    
   178   90   92 1    
   179   90  211 1    
   180   91  212 1    
   181   91  213 1    
   182   91  214 1    
   183   92   93 2    
   184   92   94 am   BACKBONE|DICT|INTERRES
   185   94   95 1    
   186   94  215 1    
   187   95   96 1    
   188   95   97 1    
   189   95  216 1    
   190   96  217 1    
   191   96  218 1    
   192   96  219 1    
   193   97   98 2    
   194   97   99 am   BACKBONE|DICT|INTERRES
   195   99  100 1    
   196   99  220 1    
   197  100  101 1    
   198  100  102 1    
   199  100  221 1    
   200  101  222 1    
   201  101  223 1    
   202  101  224 1    
   203  102  103 2    
   204  102  104 am   BACKBONE|DICT|INTERRES
   205  104  105 1    
   206  104  225 1    
   207  105  106 1    
   208  105  107 1    
   209  105  226 1    
   210  106  227 1    
   211  106  228 1    
   212  106  229 1    
   213  107  108 2    
   214  107  109 am   BACKBONE|DICT|INTERRES
   215  109  110 1    
   216  109  230 1    
   217  110  111 1    
   218  110  112 1    
   219  110  231 1    
   220  111  232 1    
   221  111  233 1    
   222  111  234 1    
   223  112  113 2    
   224  112  114 am   BACKBONE|DICT|INTERRES
   225  114  115 1    
   226  114  235 1    
   227  115  116 1    
   228  115  117 1    
   229  115  236 1    
   230  116  237 1    
   231  116  238 1    
   232  116  239 1    
   233  117  118 2    
   234  117  119 am   BACKBONE|DICT|INTERRES
   235  119  120 1    
   236  119  240 1    
   237  120  121 1    
   238  120  124 1    
   239  120  241 1    
   240  121  122 am   BACKBONE|DICT|INTERRES
   241  121  123 2    
   242  122  242 1    
   243  122  243 1    
   244  124  125 1    
   245  124  244 1    
   246  124  245 1    
   247  125  126 1    
   248  126  246 1    
   249  126  247 1    
@<TRIPOS>SUBSTRUCTURE
     1 UNK         1 GROUP             0       ****    0 ROOT    
