@<TRIPOS>MOLECULE
3R540
247   249    1
SMALL
USER_CHARGES


@<TRIPOS>ATOM
      1 CA          4.5646  -10.5317  -52.7793 C.3       0 UNK        -0.1800 
      2 C           4.0247  -11.3391  -51.6072 C.2       0 UNK         0.5000 
      3 O           3.1753  -10.8394  -50.8710 O.2       0 UNK        -0.5000 
      4 N           4.5371  -12.5657  -51.4337 N.am      1 UNK        -0.5000 
      5 CA          4.2148  -13.6115  -50.4448 C.3       1 UNK         0.1400 
      6 C6          2.8383  -14.3025  -50.6639 C.3       23 UNK        -0.0398 
      7 S7          1.3548  -13.3983  -50.0853 S.3       23 UNK        -0.2404 
      8 C8          0.6603  -14.5472  -48.8533 C.3       23 UNK        -0.0205 
      9 C9          0.1150  -15.8099  -49.5041 C.ar      23 UNK        -0.0193 
     10 C10        -1.0268  -15.7496  -50.3069 C.ar      23 UNK        -0.1150 
     11 C11        -1.5118  -16.8967  -50.9413 C.ar      23 UNK        -0.0193 
     12 C12        -0.8659  -18.1199  -50.7423 C.ar      23 UNK        -0.1150 
     13 C13         0.2705  -18.1950  -49.9313 C.ar      23 UNK        -0.0193 
     14 C14         0.7578  -17.0363  -49.3186 C.ar      23 UNK        -0.1150 
     15 C15         0.9874  -19.5217  -49.7311 C.3       23 UNK        -0.0205 
     16 S16         0.9737  -20.0437  -47.9926 S.3       23 UNK        -0.2404 
     17 C17        -0.7893  -20.4413  -47.7412 C.3       23 UNK        -0.0398 
     18 CA         -1.0207  -21.9382  -47.4480 C.3       11 UNK         0.1400 
     19 N          -0.2099  -22.3935  -46.3226 N.am      11 UNK        -0.5000 
     20 C           0.0380  -23.6675  -46.0079 C.2       10 UNK         0.5000 
     21 O          -0.3544  -24.6264  -46.6719 O.2       10 UNK        -0.5000 
     22 CA          0.8508  -23.9006  -44.7218 C.3       10 UNK         0.1400 
     23 CB          2.3485  -23.9785  -45.0521 C.3       10 UNK        -0.1800 
     24 N           0.6358  -22.8601  -43.7111 N.am      10 UNK        -0.5000 
     25 C          -0.5356  -22.5673  -43.1321 C.2       9 UNK         0.5000 
     26 O          -1.5804  -23.1682  -43.3769 O.2       9 UNK        -0.5000 
     27 CA         -0.5690  -21.3773  -42.1598 C.3       9 UNK         0.1400 
     28 CB         -0.0313  -21.7676  -40.7711 C.3       9 UNK        -0.1800 
     29 N           0.0767  -20.1627  -42.6690 N.am      9 UNK        -0.5000 
     30 C           1.3742  -19.9073  -42.8935 C.2       8 UNK         0.5000 
     31 O           2.2723  -20.7428  -42.7839 O.2       8 UNK        -0.5000 
     32 CA          1.7252  -18.4622  -43.3015 C.3       8 UNK         0.1400 
     33 CB          1.7409  -18.3233  -44.8306 C.3       8 UNK        -0.1800 
     34 N           0.7965  -17.4770  -42.7439 N.am      8 UNK        -0.5000 
     35 C           0.6643  -17.1938  -41.4394 C.2       7 UNK         0.5000 
     36 O           1.3913  -17.6543  -40.5588 O.2       7 UNK        -0.5000 
     37 CA         -0.5068  -16.2733  -41.0535 C.3       7 UNK         0.1400 
     38 CB         -0.1175  -14.7946  -41.1963 C.3       7 UNK        -0.1800 
     39 N          -1.6962  -16.5467  -41.8622 N.am      7 UNK        -0.5000 
     40 C          -2.5113  -17.5956  -41.6803 C.2       6 UNK         0.5000 
     41 O          -2.3744  -18.4201  -40.7770 O.2       6 UNK        -0.5000 
     42 CA         -3.6630  -17.7658  -42.6883 C.3       6 UNK         0.1400 
     43 CB         -4.9142  -17.0137  -42.2113 C.3       6 UNK        -0.1800 
     44 N          -3.3119  -17.3082  -44.0336 N.am      6 UNK        -0.5000 
     45 C          -2.4765  -17.9505  -44.8613 C.2       5 UNK         0.5000 
     46 O          -1.9541  -19.0350  -44.5985 O.2       5 UNK        -0.5000 
     47 CA         -2.1436  -17.2414  -46.1914 C.3       5 UNK         0.1400 
     48 CB         -3.1401  -17.6529  -47.2856 C.3       5 UNK        -0.1800 
     49 N          -2.1116  -15.7785  -46.0904 N.am      5 UNK        -0.5000 
     50 C          -1.2628  -15.0950  -45.3128 C.2       4 UNK         0.5000 
     51 O          -0.4366  -15.6317  -44.5699 O.2       4 UNK        -0.5000 
     52 CA         -1.3952  -13.5672  -45.3197 C.3       4 UNK         0.1400 
     53 CB         -2.6012  -13.1200  -44.4741 C.3       4 UNK        -0.1800 
     54 N          -0.1709  -13.0037  -44.7663 N.am      4 UNK        -0.5000 
     55 C           0.3128  -11.7804  -44.9986 C.2       3 UNK         0.5000 
     56 O          -0.2558  -10.9448  -45.7038 O.2       3 UNK        -0.5000 
     57 CA          1.6599  -11.4107  -44.3378 C.3       3 UNK         0.1400 
     58 CB          2.1598  -12.4274  -43.2856 C.3       3 UNK        -0.1800 
     59 N           2.7006  -11.1490  -45.3370 N.am      3 UNK        -0.5000 
     60 C           3.1454  -11.9964  -46.2759 C.2       2 UNK         0.5000 
     61 O           2.7481  -13.1571  -46.3913 O.2       2 UNK        -0.5000 
     62 CA          4.2244  -11.4288  -47.2207 C.3       2 UNK         0.1400 
     63 CB          5.6298  -11.5251  -46.5947 C.3       2 UNK        -0.1800 
     64 N           4.1858  -12.0182  -48.5626 N.am      2 UNK        -0.5000 
     65 C           4.4945  -13.2586  -48.9637 C.2       1 UNK         0.5000 
     66 O           5.0064  -14.1149  -48.2407 O.2       1 UNK        -0.5000 
     67 C          -2.5081  -22.2424  -47.1920 C.2       11 UNK         0.5000 
     68 O          -3.1460  -22.8933  -48.0159 O.2       11 UNK        -0.5000 
     69 N          -3.0198  -21.8356  -46.0202 N.am      12 UNK        -0.5000 
     70 CA         -4.3884  -22.1174  -45.5747 C.3       12 UNK         0.1400 
     71 CB         -4.6763  -21.3281  -44.2903 C.3       12 UNK        -0.1800 
     72 C          -4.6758  -23.6205  -45.3813 C.2       12 UNK         0.5000 
     73 O          -5.7855  -24.0687  -45.6700 O.2       12 UNK        -0.5000 
     74 N          -3.6623  -24.3760  -44.9377 N.am      13 UNK        -0.5000 
     75 CA         -3.6876  -25.8355  -44.8164 C.3       13 UNK         0.1400 
     76 CB         -2.5424  -26.2722  -43.8891 C.3       13 UNK        -0.1800 
     77 C          -3.5877  -26.5755  -46.1677 C.2       13 UNK         0.5000 
     78 O          -3.8074  -27.7869  -46.1989 O.2       13 UNK        -0.5000 
     79 N          -3.2437  -25.8526  -47.2448 N.am      14 UNK        -0.5000 
     80 CA         -3.0277  -26.3341  -48.6127 C.3       14 UNK         0.1400 
     81 CB         -4.3374  -26.8685  -49.2280 C.3       14 UNK        -0.1800 
     82 C          -1.8416  -27.3135  -48.7453 C.2       14 UNK         0.5000 
     83 O          -1.8527  -28.1870  -49.6147 O.2       14 UNK        -0.5000 
     84 N          -0.8213  -27.1276  -47.8975 N.am      15 UNK        -0.5000 
     85 CA          0.5025  -27.7304  -48.0501 C.3       15 UNK         0.1400 
     86 CB          1.1964  -27.7908  -46.6807 C.3       15 UNK        -0.1800 
     87 C           1.3393  -26.9265  -49.0639 C.2       15 UNK         0.5000 
     88 O           2.0726  -27.5178  -49.8575 O.2       15 UNK        -0.5000 
     89 N           1.1706  -25.5975  -49.0409 N.am      16 UNK        -0.5000 
     90 CA          1.5985  -24.6655  -50.0824 C.3       16 UNK         0.1400 
     91 CB          2.2216  -23.4282  -49.4095 C.3       16 UNK        -0.1800 
     92 C           0.3893  -24.3267  -50.9833 C.2       16 UNK         0.5000 
     93 O          -0.5614  -25.1107  -51.0461 O.2       16 UNK        -0.5000 
     94 N           0.4314  -23.1791  -51.6777 N.am      17 UNK        -0.5000 
     95 CA         -0.6691  -22.6705  -52.5047 C.3       17 UNK         0.1400 
     96 CB         -0.2163  -21.4034  -53.2470 C.3       17 UNK        -0.1800 
     97 C          -1.9249  -22.4073  -51.6507 C.2       17 UNK         0.5000 
     98 O          -1.8421  -21.6611  -50.6755 O.2       17 UNK        -0.5000 
     99 N          -3.0368  -23.0571  -52.0169 N.am      18 UNK        -0.5000 
    100 CA        -4.2356  -23.3126  -51.2070 C.3       18 UNK         0.1400 
    101 CB        -5.0544  -24.4070  -51.9171 C.3       18 UNK        -0.1800 
    102 C         -5.1117  -22.0957  -50.8210 C.2       18 UNK         0.5000 
    103 O         -6.3319  -22.2422  -50.7285 O.2       18 UNK        -0.5000 
    104 N         -4.5006  -20.9217  -50.6120 N.am      19 UNK        -0.5000 
    105 CA        -5.0704  -19.6250  -50.2112 C.3       19 UNK         0.1400 
    106 CB        -5.7451  -19.7118  -48.8298 C.3       19 UNK        -0.1800 
    107 C         -6.0108  -18.9981  -51.2608 C.2       19 UNK         0.5000 
    108 O         -5.7816  -17.8680  -51.6904 O.2       19 UNK        -0.5000 
    109 N         -7.0133  -19.7626  -51.7085 N.am      20 UNK        -0.5000 
    110 CA        -7.9036  -19.4418  -52.8266 C.3       20 UNK         0.1400 
    111 CB        -9.0761  -20.4335  -52.8268 C.3       20 UNK        -0.1800 
    112 C         -7.1787  -19.4607  -54.1877 C.2       20 UNK         0.5000 
    113 O         -7.6639  -18.8577  -55.1454 O.2       20 UNK        -0.5000 
    114 N         -6.0091  -20.1162  -54.2359 N.am      21 UNK        -0.5000 
    115 CA        -5.0908  -20.1938  -55.3740 C.3       21 UNK         0.1400 
    116 CB        -3.9022  -21.0811  -54.9730 C.3       21 UNK        -0.1800 
    117 C         -4.5929  -18.8239  -55.8818 C.2       21 UNK         0.5000 
    118 O         -4.2372  -18.7112  -57.0554 O.2       21 UNK        -0.5000 
    119 N         -4.6008  -17.8099  -55.0061 N.am      22 UNK        -0.5000 
    120 CA        -4.3446  -16.4037  -55.3538 C.3       22 UNK         0.1400 
    121 C         -5.5297  -15.6968  -56.0809 C.2       22 UNK         0.5000 
    122 N         -6.7112  -16.2926  -56.1984 N.am      22 UNK        -0.7600 
    123 O         -5.3696  -14.5787  -56.5629 O.2       22 UNK        -0.5000 
    124 C124       -3.8906  -15.5849  -54.1193 C.3       23 UNK        -0.0398 
    125 S125       -2.2692  -16.1192  -53.4731 S.3       23 UNK        -0.2404 
    126 C126       -2.7244  -16.8010  -51.8503 C.3       23 UNK        -0.0205 
    127 H127        3.7531  -10.2692  -53.4581 H         1 UNK         0.0600 
    128 H128        5.3145  -11.0855  -53.3448 H         1 UNK         0.0600 
    129 H129        5.0218   -9.6096  -52.4205 H         1 UNK         0.0600 
    130 H130        5.2606  -12.8465  -52.0811 H         1 UNK         0.3000 
    131 H131        4.9547  -14.3801  -50.6757 H         1 UNK         0.0600 
    132 H132        2.8614  -15.2805  -50.1823 H         1 UNK         0.0800 
    133 H133        2.7021  -14.5147  -51.7249 H         1 UNK         0.0800 
    134 H134        1.4207  -14.7864  -48.1081 H         1 UNK         0.0800 
    135 H135       -0.1448  -14.0438  -48.3178 H         1 UNK         0.0800 
    136 H136       -1.5209  -14.8010  -50.4635 H         1 UNK         0.1150 
    137 H137       -1.2417  -19.0096  -51.2269 H         1 UNK         0.1150 
    138 H138        1.6410  -17.0935  -48.6977 H         1 UNK         0.1150 
    139 H139        0.5400  -20.3106  -50.3348 H         1 UNK         0.0800 
    140 H140        2.0210  -19.4221  -50.0644 H         1 UNK         0.0800 
    141 H141       -1.1297  -19.8424  -46.9015 H         1 UNK         0.0800 
    142 H142       -1.3747  -20.1215  -48.6039 H         1 UNK         0.0800 
    143 H143       -0.7263  -22.5049  -48.3331 H         1 UNK         0.0600 
    144 H144        0.1764  -21.6745  -45.7298 H         1 UNK         0.3000 
    145 H145        0.5382  -24.8561  -44.2974 H         1 UNK         0.0600 
    146 H146        2.9332  -24.2377  -44.1694 H         1 UNK         0.0600 
    147 H147        2.5477  -24.7384  -45.8088 H         1 UNK         0.0600 
    148 H148        2.7245  -23.0292  -45.4362 H         1 UNK         0.0600 
    149 H149        1.4365  -22.2894  -43.4508 H         1 UNK         0.3000 
    150 H150       -1.6197  -21.1101  -42.0348 H         1 UNK         0.0600 
    151 H151       -0.5939  -22.6062  -40.3592 H         1 UNK         0.0600 
    152 H152       -0.1226  -20.9382  -40.0693 H         1 UNK         0.0600 
    153 H153        1.0171  -22.0647  -40.8051 H         1 UNK         0.0600 
    154 H154       -0.5695  -19.4176  -42.8967 H         1 UNK         0.3000 
    155 H155        2.7250  -18.2406  -42.9231 H         1 UNK         0.0600 
    156 H156        2.0302  -17.3170  -45.1344 H         1 UNK         0.0600 
    157 H157        0.7618  -18.5321  -45.2617 H         1 UNK         0.0600 
    158 H158        2.4523  -19.0172  -45.2801 H         1 UNK         0.0600 
    159 H159        0.2105  -16.9788  -43.4084 H         1 UNK         0.3000 
    160 H160       -0.7473  -16.4583  -40.0043 H         1 UNK         0.0600 
    161 H161        0.1372  -14.5440  -42.2246 H         1 UNK         0.0600 
    162 H162        0.7489  -14.5581  -40.5773 H         1 UNK         0.0600 
    163 H163       -0.9305  -14.1396  -40.8829 H         1 UNK         0.0600 
    164 H164       -1.8469  -15.9479  -42.6600 H         1 UNK         0.3000 
    165 H165       -3.9027  -18.8296  -42.7331 H         1 UNK         0.0600 
    166 H166       -4.7437  -15.9376  -42.1603 H         1 UNK         0.0600 
    167 H167       -5.7576  -17.1895  -42.8792 H         1 UNK         0.0600 
    168 H168       -5.2141  -17.3464  -41.2167 H         1 UNK         0.0600 
    169 H169       -3.7079  -16.4305  -44.3354 H         1 UNK         0.3000 
    170 H170       -1.1466  -17.5644  -46.4965 H         1 UNK         0.0600 
    171 H171       -3.2087  -18.7373  -47.3687 H         1 UNK         0.0600 
    172 H172       -4.1435  -17.2791  -47.0790 H         1 UNK         0.0600 
    173 H173       -2.8333  -17.2732  -48.2601 H         1 UNK         0.0600 
    174 H174       -2.7715  -15.2733  -46.6641 H         1 UNK         0.3000 
    175 H175       -1.5181  -13.2336  -46.3520 H         1 UNK         0.0600 
    176 H176       -2.7068  -12.0351  -44.4799 H         1 UNK         0.0600 
    177 H177       -3.5322  -13.5351  -44.8617 H         1 UNK         0.0600 
    178 H178       -2.5040  -13.4391  -43.4355 H         1 UNK         0.0600 
    179 H179        0.3907  -13.6713  -44.2529 H         1 UNK         0.3000 
    180 H180        1.4902  -10.4662  -43.8189 H         1 UNK         0.0600 
    181 H181        3.0930  -12.0907  -42.8341 H         1 UNK         0.0600 
    182 H182        1.4378  -12.5352  -42.4761 H         1 UNK         0.0600 
    183 H183        2.3401  -13.4155  -43.7107 H         1 UNK         0.0600 
    184 H184        3.0686  -10.2079  -45.3327 H         1 UNK         0.3000 
    185 H185        4.0010  -10.3715  -47.3712 H         1 UNK         0.0600 
    186 H186        5.8940  -12.5511  -46.3381 H         1 UNK         0.0600 
    187 H187        6.3920  -11.1395  -47.2717 H         1 UNK         0.0600 
    188 H188        5.6858  -10.9404  -45.6759 H         1 UNK         0.0600 
    189 H189        3.7442  -11.4367  -49.2731 H         1 UNK         0.3000 
    190 H190       -2.4348  -21.3221  -45.3752 H         1 UNK         0.3000 
    191 H191       -5.0707  -21.7603  -46.3483 H         1 UNK         0.0600 
    192 H192       -5.6747  -21.5466  -43.9095 H         1 UNK         0.0600 
    193 H193       -4.6305  -20.2560  -44.4786 H         1 UNK         0.0600 
    194 H194       -3.9619  -21.5652  -43.5011 H         1 UNK         0.0600 
    195 H195       -2.8119  -23.9121  -44.6291 H         1 UNK         0.3000 
    196 H196       -4.6324  -26.1264  -44.3527 H         1 UNK         0.0600 
    197 H197       -2.5625  -27.3495  -43.7200 H         1 UNK         0.0600 
    198 H198       -2.6161  -25.7895  -42.9144 H         1 UNK         0.0600 
    199 H199       -1.5694  -26.0255  -44.3138 H         1 UNK         0.0600 
    200 H200       -3.0907  -24.8595  -47.1171 H         1 UNK         0.3000 
    201 H201       -2.7335  -25.4561  -49.1880 H         1 UNK         0.0600 
    202 H202       -5.1401  -26.1363  -49.1396 H         1 UNK         0.0600 
    203 H203       -4.6666  -27.7893  -48.7464 H         1 UNK         0.0600 
    204 H204       -4.2110  -27.0833  -50.2895 H         1 UNK         0.0600 
    205 H205       -0.8833  -26.3492  -47.2475 H         1 UNK         0.3000 
    206 H206        0.3971  -28.7506  -48.4250 H         1 UNK         0.0600 
    207 H207        0.6220  -28.3927  -45.9763 H         1 UNK         0.0600 
    208 H208        2.1856  -28.2423  -46.7649 H         1 UNK         0.0600 
    209 H209        1.3232  -26.7998  -46.2458 H         1 UNK         0.0600 
    210 H210        0.5269  -25.2221  -48.3532 H         1 UNK         0.3000 
    211 H211        2.3569  -25.1286  -50.7164 H         1 UNK         0.0600 
    212 H212        1.4903  -22.8767  -48.8219 H         1 UNK         0.0600 
    213 H213        2.6476  -22.7415  -50.1412 H         1 UNK         0.0600 
    214 H214        3.0303  -23.7162  -48.7375 H         1 UNK         0.0600 
    215 H215        1.2337  -22.5763  -51.5762 H         1 UNK         0.3000 
    216 H216       -0.9012  -23.4326  -53.2516 H         1 UNK         0.0600 
    217 H217       -1.0058  -21.0279  -53.8977 H         1 UNK         0.0600 
    218 H218        0.6498  -21.6057  -53.8773 H         1 UNK         0.0600 
    219 H219        0.0509  -20.5993  -52.5630 H         1 UNK         0.0600 
    220 H220       -2.9846  -23.6081  -52.8608 H         1 UNK         0.3000 
    221 H221       -3.8932  -23.7392  -50.2662 H         1 UNK         0.0600 
    222 H222       -5.4588  -24.0515  -52.8656 H         1 UNK         0.0600 
    223 H223       -4.4454  -25.2881  -52.1203 H         1 UNK         0.0600 
    224 H224       -5.8934  -24.7384  -51.3037 H         1 UNK         0.0600 
    225 H225       -3.4841  -20.9517  -50.6728 H         1 UNK         0.3000 
    226 H226       -4.2182  -18.9517  -50.1085 H         1 UNK         0.0600 
    227 H227       -5.0577  -20.1097  -48.0846 H         1 UNK         0.0600 
    228 H228       -6.0611  -18.7253  -48.4888 H         1 UNK         0.0600 
    229 H229       -6.6283  -20.3509  -48.8419 H         1 UNK         0.0600 
    230 H230       -7.0808  -20.7020  -51.3207 H         1 UNK         0.3000 
    231 H231       -8.2982  -18.4351  -52.6751 H         1 UNK         0.0600 
    232 H232       -9.7747  -20.2143  -53.6354 H         1 UNK         0.0600 
    233 H233       -9.6352  -20.3823  -51.8923 H         1 UNK         0.0600 
    234 H234       -8.7331  -21.4609  -52.9565 H         1 UNK         0.0600 
    235 H235       -5.7094  -20.5792  -53.3918 H         1 UNK         0.3000 
    236 H236       -5.6226  -20.6742  -56.1975 H         1 UNK         0.0600 
    237 H237       -3.3755  -20.6716  -54.1104 H         1 UNK         0.0600 
    238 H238       -4.2300  -22.0894  -54.7197 H         1 UNK         0.0600 
    239 H239       -3.1830  -21.1692  -55.7885 H         1 UNK         0.0600 
    240 H240       -4.9170  -17.9837  -54.0628 H         1 UNK         0.3000 
    241 H241       -3.5211  -16.3877  -56.0705 H         1 UNK         0.0600 
    242 H242       -6.8859  -17.2180  -55.8194 H         1 UNK         0.3800 
    243 H243       -7.4546  -15.8117  -56.6797 H         1 UNK         0.3800 
    244 H244       -3.7877  -14.5287  -54.3749 H         1 UNK         0.0800 
    245 H245       -4.6482  -15.6300  -53.3353 H         1 UNK         0.0800 
    246 H246       -3.4821  -16.1773  -51.3737 H         1 UNK         0.0800 
    247 H247       -3.1685  -17.7849  -51.9993 H         1 UNK         0.0800 
@<TRIPOS>BOND
     1    1    2 1    
     2    1  127 1    
     3    1  128 1    
     4    1  129 1    
     5    2    3 2    
     6    2    4 am   BACKBONE|DICT|INTERRES
     7    4    5 1    
     8    4  130 1    
     9    5    6 1    
    10    5   65 1    
    11    5  131 1    
    12    6    7 1    
    13    6  132 1    
    14    6  133 1    
    15    7    8 1    
    16    8    9 1    
    17    8  134 1    
    18    8  135 1    
    19    9   10 ar   
    20    9   14 ar   
    21   10   11 ar   
    22   10  136 1    
    23   11   12 ar   
    24   11  126 1    
    25   12   13 ar   
    26   12  137 1    
    27   13   14 ar   
    28   13   15 1    
    29   14  138 1    
    30   15   16 1    
    31   15  139 1    
    32   15  140 1    
    33   16   17 1    
    34   17   18 1    
    35   17  141 1    
    36   17  142 1    
    37   18   19 1    
    38   18   67 1    
    39   18  143 1    
    40   19   20 am   BACKBONE|DICT|INTERRES
    41   19  144 1    
    42   20   21 2    
    43   20   22 1    
    44   22   23 1    
    45   22   24 1    
    46   22  145 1    
    47   23  146 1    
    48   23  147 1    
    49   23  148 1    
    50   24   25 am   BACKBONE|DICT|INTERRES
    51   24  149 1    
    52   25   26 2    
    53   25   27 1    
    54   27   28 1    
    55   27   29 1    
    56   27  150 1    
    57   28  151 1    
    58   28  152 1    
    59   28  153 1    
    60   29   30 am   BACKBONE|DICT|INTERRES
    61   29  154 1    
    62   30   31 2    
    63   30   32 1    
    64   32   33 1    
    65   32   34 1    
    66   32  155 1    
    67   33  156 1    
    68   33  157 1    
    69   33  158 1    
    70   34   35 am   BACKBONE|DICT|INTERRES
    71   34  159 1    
    72   35   36 2    
    73   35   37 1    
    74   37   38 1    
    75   37   39 1    
    76   37  160 1    
    77   38  161 1    
    78   38  162 1    
    79   38  163 1    
    80   39   40 am   BACKBONE|DICT|INTERRES
    81   39  164 1    
    82   40   41 2    
    83   40   42 1    
    84   42   43 1    
    85   42   44 1    
    86   42  165 1    
    87   43  166 1    
    88   43  167 1    
    89   43  168 1    
    90   44   45 am   BACKBONE|DICT|INTERRES
    91   44  169 1    
    92   45   46 2    
    93   45   47 1    
    94   47   48 1    
    95   47   49 1    
    96   47  170 1    
    97   48  171 1    
    98   48  172 1    
    99   48  173 1    
   100   49   50 am   BACKBONE|DICT|INTERRES
   101   49  174 1    
   102   50   51 2    
   103   50   52 1    
   104   52   53 1    
   105   52   54 1    
   106   52  175 1    
   107   53  176 1    
   108   53  177 1    
   109   53  178 1    
   110   54   55 am   BACKBONE|DICT|INTERRES
   111   54  179 1    
   112   55   56 2    
   113   55   57 1    
   114   57   58 1    
   115   57   59 1    
   116   57  180 1    
   117   58  181 1    
   118   58  182 1    
   119   58  183 1    
   120   59   60 am   BACKBONE|DICT|INTERRES
   121   59  184 1    
   122   60   61 2    
   123   60   62 1    
   124   62   63 1    
   125   62   64 1    
   126   62  185 1    
   127   63  186 1    
   128   63  187 1    
   129   63  188 1    
   130   64   65 am   BACKBONE|DICT|INTERRES
   131   64  189 1    
   132   65   66 2    
   133   67   68 2    
   134   67   69 am   BACKBONE|DICT|INTERRES
   135   69   70 1    
   136   69  190 1    
   137   70   71 1    
   138   70   72 1    
   139   70  191 1    
   140   71  192 1    
   141   71  193 1    
   142   71  194 1    
   143   72   73 2    
   144   72   74 am   BACKBONE|DICT|INTERRES
   145   74   75 1    
   146   74  195 1    
   147   75   76 1    
   148   75   77 1    
   149   75  196 1    
   150   76  197 1    
   151   76  198 1    
   152   76  199 1    
   153   77   78 2    
   154   77   79 am   BACKBONE|DICT|INTERRES
   155   79   80 1    
   156   79  200 1    
   157   80   81 1    
   158   80   82 1    
   159   80  201 1    
   160   81  202 1    
   161   81  203 1    
   162   81  204 1    
   163   82   83 2    
   164   82   84 am   BACKBONE|DICT|INTERRES
   165   84   85 1    
   166   84  205 1    
   167   85   86 1    
   168   85   87 1    
   169   85  206 1    
   170   86  207 1    
   171   86  208 1    
   172   86  209 1    
   173   87   88 2    
   174   87   89 am   BACKBONE|DICT|INTERRES
   175   89   90 1    
   176   89  210 1    
   177   90   91 1    
   178   90   92 1    
   179   90  211 1    
   180   91  212 1    
   181   91  213 1    
   182   91  214 1    
   183   92   93 2    
   184   92   94 am   BACKBONE|DICT|INTERRES
   185   94   95 1    
   186   94  215 1    
   187   95   96 1    
   188   95   97 1    
   189   95  216 1    
   190   96  217 1    
   191   96  218 1    
   192   96  219 1    
   193   97   98 2    
   194   97   99 am   BACKBONE|DICT|INTERRES
   195   99  100 1    
   196   99  220 1    
   197  100  101 1    
   198  100  102 1    
   199  100  221 1    
   200  101  222 1    
   201  101  223 1    
   202  101  224 1    
   203  102  103 2    
   204  102  104 am   BACKBONE|DICT|INTERRES
   205  104  105 1    
   206  104  225 1    
   207  105  106 1    
   208  105  107 1    
   209  105  226 1    
   210  106  227 1    
   211  106  228 1    
   212  106  229 1    
   213  107  108 2    
   214  107  109 am   BACKBONE|DICT|INTERRES
   215  109  110 1    
   216  109  230 1    
   217  110  111 1    
   218  110  112 1    
   219  110  231 1    
   220  111  232 1    
   221  111  233 1    
   222  111  234 1    
   223  112  113 2    
   224  112  114 am   BACKBONE|DICT|INTERRES
   225  114  115 1    
   226  114  235 1    
   227  115  116 1    
   228  115  117 1    
   229  115  236 1    
   230  116  237 1    
   231  116  238 1    
   232  116  239 1    
   233  117  118 2    
   234  117  119 am   BACKBONE|DICT|INTERRES
   235  119  120 1    
   236  119  240 1    
   237  120  121 1    
   238  120  124 1    
   239  120  241 1    
   240  121  122 am   BACKBONE|DICT|INTERRES
   241  121  123 2    
   242  122  242 1    
   243  122  243 1    
   244  124  125 1    
   245  124  244 1    
   246  124  245 1    
   247  125  126 1    
   248  126  246 1    
   249  126  247 1    
@<TRIPOS>SUBSTRUCTURE
     1 UNK         1 GROUP             0       ****    0 ROOT    
