@<TRIPOS>MOLECULE
3R540
247   249    1
SMALL
USER_CHARGES


@<TRIPOS>ATOM
      1 CA          5.6521  -14.0829  -50.5067 C.3       0 UNK        -0.1800 
      2 C           4.7875  -14.1703  -49.2569 C.2       0 UNK         0.5000 
      3 O           5.2982  -14.0209  -48.1465 O.2       0 UNK        -0.5000 
      4 N           3.4847  -14.4174  -49.4340 N.am      1 UNK        -0.5000 
      5 CA          2.4946  -14.4826  -48.3568 C.3       1 UNK         0.1400 
      6 C6          1.2136  -15.2429  -48.7890 C.3       23 UNK        -0.0398 
      7 S7          1.4570  -17.0474  -48.8104 S.3       23 UNK        -0.2404 
      8 C8          2.0017  -17.3295  -50.5258 C.3       23 UNK        -0.0205 
      9 C9          2.4373  -18.7704  -50.7429 C.ar      23 UNK        -0.0193 
     10 C10         1.8346  -19.5566  -51.7284 C.ar      23 UNK        -0.1150 
     11 C11         2.2216  -20.8882  -51.9154 C.ar      23 UNK        -0.0193 
     12 C12         3.2320  -21.4259  -51.1090 C.ar      23 UNK        -0.1150 
     13 C13         3.8614  -20.6410  -50.1377 C.ar      23 UNK        -0.0193 
     14 C14         3.4636  -19.3140  -49.9665 C.ar      23 UNK        -0.1150 
     15 C15         4.9846  -21.2076  -49.2809 C.3       23 UNK        -0.0205 
     16 S16         4.4889  -21.3751  -47.5368 S.3       23 UNK        -0.2404 
     17 C17         3.3208  -22.7721  -47.6265 C.3       23 UNK        -0.0398 
     18 CA          3.5343  -23.7893  -46.4778 C.3       11 UNK         0.1400 
     19 N           3.3221  -23.1673  -45.1667 N.am      11 UNK        -0.5000 
     20 C           3.8549  -23.5841  -44.0114 C.2       10 UNK         0.5000 
     21 O           4.6510  -24.5188  -43.9214 O.2       10 UNK        -0.5000 
     22 CA          3.3870  -22.8527  -42.7381 C.3       10 UNK         0.1400 
     23 CB          4.3528  -21.7132  -42.3808 C.3       10 UNK        -0.1800 
     24 N           2.0271  -22.3193  -42.8682 N.am      10 UNK        -0.5000 
     25 C           0.9192  -23.0768  -42.8746 C.2       9 UNK         0.5000 
     26 O           0.9320  -24.2996  -42.7351 O.2       9 UNK        -0.5000 
     27 CA         -0.4232  -22.3671  -43.1352 C.3       9 UNK         0.1400 
     28 CB         -1.0796  -21.9558  -41.8106 C.3       9 UNK        -0.1800 
     29 N          -0.2985  -21.2045  -44.0181 N.am      9 UNK        -0.5000 
     30 C           0.0658  -21.2887  -45.3064 C.2       8 UNK         0.5000 
     31 O           0.2946  -22.3593  -45.8718 O.2       8 UNK        -0.5000 
     32 CA          0.2496  -19.9807  -46.0966 C.3       8 UNK         0.1400 
     33 CB         -1.0013  -19.6721  -46.9222 C.3       8 UNK        -0.1800 
     34 N           0.5832  -18.8093  -45.2858 N.am      8 UNK        -0.5000 
     35 C           1.7156  -18.6633  -44.5841 C.2       7 UNK         0.5000 
     36 O           2.5341  -19.5674  -44.4165 O.2       7 UNK        -0.5000 
     37 CA          1.9709  -17.2816  -43.9621 C.3       7 UNK         0.1400 
     38 CB          2.3832  -16.2713  -45.0420 C.3       7 UNK        -0.1800 
     39 N           0.7756  -16.7892  -43.2847 N.am      7 UNK        -0.5000 
     40 C           0.5970  -16.7859  -41.9572 C.2       6 UNK         0.5000 
     41 O           1.4630  -17.1154  -41.1456 O.2       6 UNK        -0.5000 
     42 CA         -0.7963  -16.3676  -41.4418 C.3       6 UNK         0.1400 
     43 CB         -0.8151  -14.8698  -41.1157 C.3       6 UNK        -0.1800 
     44 N          -1.8824  -16.6673  -42.3786 N.am      6 UNK        -0.5000 
     45 C          -2.1969  -17.9016  -42.7973 C.2       5 UNK         0.5000 
     46 O          -1.6258  -18.9180  -42.4062 O.2       5 UNK        -0.5000 
     47 CA         -3.2885  -18.0338  -43.8712 C.3       5 UNK         0.1400 
     48 CB         -4.6446  -18.3624  -43.2311 C.3       5 UNK        -0.1800 
     49 N          -3.4410  -16.8693  -44.7456 N.am      5 UNK        -0.5000 
     50 C          -2.4867  -16.2961  -45.4931 C.2       4 UNK         0.5000 
     51 O          -1.3127  -16.6717  -45.5180 O.2       4 UNK        -0.5000 
     52 CA         -2.9095  -15.0748  -46.3347 C.3       4 UNK         0.1400 
     53 CB         -4.4266  -15.0071  -46.6147 C.3       4 UNK        -0.1800 
     54 N          -2.4553  -13.8039  -45.7615 N.am      4 UNK        -0.5000 
     55 C          -2.6142  -13.3504  -44.5064 C.2       3 UNK         0.5000 
     56 O          -3.1448  -13.9952  -43.5992 O.2       3 UNK        -0.5000 
     57 CA         -2.0953  -11.9158  -44.2445 C.3       3 UNK         0.1400 
     58 CB         -1.9307  -11.5723  -42.7494 C.3       3 UNK        -0.1800 
     59 N          -0.8737  -11.5855  -44.9920 N.am      3 UNK        -0.5000 
     60 C           0.2936  -12.2425  -44.9458 C.2       2 UNK         0.5000 
     61 O           0.5166  -13.2203  -44.2283 O.2       2 UNK        -0.5000 
     62 CA          1.3905  -11.7541  -45.8972 C.3       2 UNK         0.1400 
     63 CB          2.5180  -11.0424  -45.1334 C.3       2 UNK        -0.1800 
     64 N           1.9163  -12.9385  -46.5609 N.am      2 UNK        -0.5000 
     65 C           2.1407  -13.0643  -47.8710 C.2       1 UNK         0.5000 
     66 O           2.0350  -12.1409  -48.6822 O.2       1 UNK        -0.5000 
     67 C           2.6218  -25.0184  -46.6889 C.2       11 UNK         0.5000 
     68 O           2.8133  -25.7398  -47.6683 O.2       11 UNK        -0.5000 
     69 N           1.6322  -25.2118  -45.8005 N.am      12 UNK        -0.5000 
     70 CA          0.5186  -26.1626  -45.8966 C.3       12 UNK         0.1400 
     71 CB          1.0191  -27.6205  -45.8318 C.3       12 UNK        -0.1800 
     72 C          -0.3844  -25.8781  -47.1180 C.2       12 UNK         0.5000 
     73 O          -0.9243  -26.8042  -47.7251 O.2       12 UNK        -0.5000 
     74 N          -0.5262  -24.5888  -47.4510 N.am      13 UNK        -0.5000 
     75 CA         -1.2539  -24.0730  -48.6091 C.3       13 UNK         0.1400 
     76 CB         -0.3650  -23.0283  -49.3069 C.3       13 UNK        -0.1800 
     77 C          -2.6210  -23.4791  -48.2183 C.2       13 UNK         0.5000 
     78 O          -3.2186  -22.7630  -49.0218 O.2       13 UNK        -0.5000 
     79 N          -3.0903  -23.7632  -46.9937 N.am      14 UNK        -0.5000 
     80 CA         -4.3140  -23.2521  -46.3695 C.3       14 UNK         0.1400 
     81 CB         -5.5757  -23.7512  -47.1107 C.3       14 UNK        -0.1800 
     82 C          -4.2511  -21.7219  -46.2093 C.2       14 UNK         0.5000 
     83 O          -3.6603  -21.2515  -45.2388 O.2       14 UNK        -0.5000 
     84 N          -4.8268  -20.9874  -47.1687 N.am      15 UNK        -0.5000 
     85 CA         -4.7865  -19.5272  -47.2597 C.3       15 UNK         0.1400 
     86 CB         -6.1958  -18.9614  -47.0164 C.3       15 UNK        -0.1800 
     87 C          -4.1770  -19.0522  -48.5953 C.2       15 UNK         0.5000 
     88 O          -4.3231  -17.8785  -48.9392 O.2       15 UNK        -0.5000 
     89 N          -3.5042  -19.9581  -49.3247 N.am      16 UNK        -0.5000 
     90 CA         -2.8042  -19.7411  -50.5929 C.3       16 UNK         0.1400 
     91 CB         -1.5164  -18.9150  -50.3742 C.3       16 UNK        -0.1800 
     92 C          -3.7442  -19.1734  -51.6706 C.2       16 UNK         0.5000 
     93 O          -4.6775  -19.8668  -52.0786 O.2       16 UNK        -0.5000 
     94 N          -3.5054  -17.9286  -52.1004 N.am      17 UNK        -0.5000 
     95 CA         -4.3027  -17.2184  -53.0995 C.3       17 UNK         0.1400 
     96 CB         -3.5941  -15.9071  -53.4677 C.3       17 UNK        -0.1800 
     97 C          -5.7513  -16.9479  -52.6525 C.2       17 UNK         0.5000 
     98 O          -6.6448  -16.9335  -53.4988 O.2       17 UNK        -0.5000 
     99 N          -5.9739  -16.7826  -51.3397 N.am      18 UNK        -0.5000 
    100 CA        -7.3049  -16.5853  -50.7588 C.3       18 UNK         0.1400 
    101 CB        -7.1685  -15.9444  -49.3704 C.3       18 UNK        -0.1800 
    102 C         -8.1239  -17.8898  -50.6918 C.2       18 UNK         0.5000 
    103 O         -9.3536  -17.8302  -50.6905 O.2       18 UNK        -0.5000 
    104 N         -7.4357  -19.0402  -50.6685 N.am      19 UNK        -0.5000 
    105 CA        -8.0374  -20.3731  -50.7659 C.3       19 UNK         0.1400 
    106 CB        -7.1738  -21.3698  -49.9714 C.3       19 UNK        -0.1800 
    107 C         -8.1821  -20.8456  -52.2264 C.2       19 UNK         0.5000 
    108 O         -8.8272  -21.8670  -52.4640 O.2       19 UNK        -0.5000 
    109 N         -7.5441  -20.1256  -53.1636 N.am      20 UNK        -0.5000 
    110 CA        -7.3216  -20.4787  -54.5709 C.3       20 UNK         0.1400 
    111 CB        -8.6516  -20.5449  -55.3496 C.3       20 UNK        -0.1800 
    112 C         -6.4563  -21.7494  -54.7354 C.2       20 UNK         0.5000 
    113 O         -6.5637  -22.4472  -55.7452 O.2       20 UNK        -0.5000 
    114 N         -5.6094  -22.0229  -53.7343 N.am      21 UNK        -0.5000 
    115 CA        -4.6895  -23.1568  -53.6869 C.3       21 UNK         0.1400 
    116 CB        -4.4336  -23.5157  -52.2142 C.3       21 UNK        -0.1800 
    117 C         -3.3612  -22.8478  -54.3986 C.2       21 UNK         0.5000 
    118 O         -2.6961  -23.7728  -54.8664 O.2       21 UNK        -0.5000 
    119 N         -3.0066  -21.5599  -54.4627 N.am      22 UNK        -0.5000 
    120 CA        -1.7853  -21.0269  -55.0775 C.3       22 UNK         0.1400 
    121 C         -2.1429  -19.9021  -56.0833 C.2       22 UNK         0.5000 
    122 N         -1.3182  -19.6860  -57.0984 N.am      22 UNK        -0.7600 
    123 O         -3.1438  -19.2030  -55.9395 O.2       22 UNK        -0.5000 
    124 C124       -0.7925  -20.5042  -54.0066 C.3       23 UNK        -0.0398 
    125 S125       -0.2363  -21.8208  -52.8659 S.3       23 UNK        -0.2404 
    126 C126        1.5800  -21.7428  -53.0040 C.3       23 UNK        -0.0205 
    127 H127        5.0714  -14.2493  -51.4144 H         1 UNK         0.0600 
    128 H128        6.4436  -14.8314  -50.4682 H         1 UNK         0.0600 
    129 H129        6.1150  -13.0983  -50.5747 H         1 UNK         0.0600 
    130 H130        3.1172  -14.4757  -50.3719 H         1 UNK         0.3000 
    131 H131        2.9479  -15.0168  -47.5200 H         1 UNK         0.0600 
    132 H132        0.3988  -15.0607  -48.0850 H         1 UNK         0.0800 
    133 H133        0.8531  -14.8985  -49.7597 H         1 UNK         0.0800 
    134 H134        2.8437  -16.6805  -50.7629 H         1 UNK         0.0800 
    135 H135        1.1922  -17.0594  -51.2055 H         1 UNK         0.0800 
    136 H136        1.0615  -19.1321  -52.3507 H         1 UNK         0.1150 
    137 H137        3.5414  -22.4522  -51.2481 H         1 UNK         0.1150 
    138 H138        3.9442  -18.7056  -49.2130 H         1 UNK         0.1150 
    139 H139        5.3250  -22.1714  -49.6625 H         1 UNK         0.0800 
    140 H140        5.8440  -20.5380  -49.3375 H         1 UNK         0.0800 
    141 H141        2.3065  -22.3715  -47.6146 H         1 UNK         0.0800 
    142 H142        3.4370  -23.2646  -48.5935 H         1 UNK         0.0800 
    143 H143        4.5643  -24.1484  -46.5316 H         1 UNK         0.0600 
    144 H144        2.6882  -22.3809  -45.1469 H         1 UNK         0.3000 
    145 H145        3.3957  -23.5737  -41.9179 H         1 UNK         0.0600 
    146 H146        4.0369  -21.1953  -41.4750 H         1 UNK         0.0600 
    147 H147        4.4242  -20.9772  -43.1820 H         1 UNK         0.0600 
    148 H148        5.3576  -22.0980  -42.2020 H         1 UNK         0.0600 
    149 H149        1.9447  -21.3259  -43.0455 H         1 UNK         0.3000 
    150 H150       -1.0831  -23.0859  -43.6259 H         1 UNK         0.0600 
    151 H151       -1.1793  -22.8102  -41.1400 H         1 UNK         0.0600 
    152 H152       -2.0809  -21.5579  -41.9770 H         1 UNK         0.0600 
    153 H153       -0.4953  -21.1954  -41.2910 H         1 UNK         0.0600 
    154 H154       -0.5052  -20.2987  -43.6127 H         1 UNK         0.3000 
    155 H155        1.0771  -20.1398  -46.7916 H         1 UNK         0.0600 
    156 H156       -1.2588  -20.5014  -47.5800 H         1 UNK         0.0600 
    157 H157       -0.8558  -18.7868  -47.5401 H         1 UNK         0.0600 
    158 H158       -1.8586  -19.4882  -46.2821 H         1 UNK         0.0600 
    159 H159       -0.0458  -18.0151  -45.3745 H         1 UNK         0.3000 
    160 H160        2.8013  -17.3803  -43.2599 H         1 UNK         0.0600 
    161 H161        1.5735  -16.0922  -45.7504 H         1 UNK         0.0600 
    162 H162        3.2455  -16.6303  -45.6056 H         1 UNK         0.0600 
    163 H163        2.6574  -15.3154  -44.5958 H         1 UNK         0.0600 
    164 H164       -0.0010  -16.5193  -43.8772 H         1 UNK         0.3000 
    165 H165       -0.9902  -16.9227  -40.5217 H         1 UNK         0.0600 
    166 H166       -1.7872  -14.5534  -40.7372 H         1 UNK         0.0600 
    167 H167       -0.0701  -14.6231  -40.3584 H         1 UNK         0.0600 
    168 H168       -0.5890  -14.2806  -42.0030 H         1 UNK         0.0600 
    169 H169       -2.3828  -15.8762  -42.7689 H         1 UNK         0.3000 
    170 H170       -2.9985  -18.8768  -44.4930 H         1 UNK         0.0600 
    171 H171       -4.5706  -19.2446  -42.5935 H         1 UNK         0.0600 
    172 H172       -5.0090  -17.5391  -42.6156 H         1 UNK         0.0600 
    173 H173       -5.3970  -18.5774  -43.9898 H         1 UNK         0.0600 
    174 H174       -4.3545  -16.4401  -44.7519 H         1 UNK         0.3000 
    175 H175       -2.4040  -15.1843  -47.2955 H         1 UNK         0.0600 
    176 H176       -5.0079  -14.8154  -45.7121 H         1 UNK         0.0600 
    177 H177       -4.6541  -14.2119  -47.3246 H         1 UNK         0.0600 
    178 H178       -4.7857  -15.9364  -47.0562 H         1 UNK         0.0600 
    179 H179       -1.9729  -13.1940  -46.4050 H         1 UNK         0.3000 
    180 H180       -2.8744  -11.2595  -44.6348 H         1 UNK         0.0600 
    181 H181       -1.7329  -10.5088  -42.6165 H         1 UNK         0.0600 
    182 H182       -1.1071  -12.1163  -42.2913 H         1 UNK         0.0600 
    183 H183       -2.8348  -11.8025  -42.1845 H         1 UNK         0.0600 
    184 H184       -0.9547  -10.7983  -45.6211 H         1 UNK         0.3000 
    185 H185        0.9566  -11.0638  -46.6240 H         1 UNK         0.0600 
    186 H186        2.9714  -11.6930  -44.3842 H         1 UNK         0.0600 
    187 H187        3.3057  -10.7150  -45.8122 H         1 UNK         0.0600 
    188 H188        2.1417  -10.1580  -44.6181 H         1 UNK         0.0600 
    189 H189        1.9727  -13.7498  -45.9594 H         1 UNK         0.3000 
    190 H190        1.5748  -24.5633  -45.0272 H         1 UNK         0.3000 
    191 H191       -0.1014  -25.9900  -45.0157 H         1 UNK         0.0600 
    192 H192        0.1831  -28.3157  -45.7474 H         1 UNK         0.0600 
    193 H193        1.6598  -27.7782  -44.9642 H         1 UNK         0.0600 
    194 H194        1.5839  -27.8983  -46.7218 H         1 UNK         0.0600 
    195 H195       -0.0874  -23.8815  -46.8642 H         1 UNK         0.3000 
    196 H196       -1.4521  -24.8758  -49.3217 H         1 UNK         0.0600 
    197 H197       -0.0878  -22.2153  -48.6371 H         1 UNK         0.0600 
    198 H198       -0.8745  -22.5866  -50.1621 H         1 UNK         0.0600 
    199 H199        0.5554  -23.4794  -49.6782 H         1 UNK         0.0600 
    200 H200       -2.5053  -24.3345  -46.4023 H         1 UNK         0.3000 
    201 H201       -4.3444  -23.6661  -45.3605 H         1 UNK         0.0600 
    202 H202       -5.6010  -23.4504  -48.1580 H         1 UNK         0.0600 
    203 H203       -6.4816  -23.3702  -46.6375 H         1 UNK         0.0600 
    204 H204       -5.6331  -24.8393  -47.0838 H         1 UNK         0.0600 
    205 H205       -5.2500  -21.4760  -47.9449 H         1 UNK         0.3000 
    206 H206       -4.1398  -19.1246  -46.4825 H         1 UNK         0.0600 
    207 H207       -6.6588  -19.4159  -46.1404 H         1 UNK         0.0600 
    208 H208       -6.1548  -17.8891  -46.8302 H         1 UNK         0.0600 
    209 H209       -6.8571  -19.1226  -47.8662 H         1 UNK         0.0600 
    210 H210       -3.4679  -20.9201  -48.9965 H         1 UNK         0.3000 
    211 H211       -2.5029  -20.7252  -50.9541 H         1 UNK         0.0600 
    212 H212       -1.7029  -17.9830  -49.8398 H         1 UNK         0.0600 
    213 H213       -1.0321  -18.6640  -51.3166 H         1 UNK         0.0600 
    214 H214       -0.7866  -19.4872  -49.8025 H         1 UNK         0.0600 
    215 H215       -2.7423  -17.4156  -51.6840 H         1 UNK         0.3000 
    216 H216       -4.3516  -17.8431  -53.9929 H         1 UNK         0.0600 
    217 H217       -3.4880  -15.2499  -52.6037 H         1 UNK         0.0600 
    218 H218       -2.5995  -16.0974  -53.8715 H         1 UNK         0.0600 
    219 H219       -4.1531  -15.3618  -54.2294 H         1 UNK         0.0600 
    220 H220       -5.1993  -16.8576  -50.6897 H         1 UNK         0.3000 
    221 H221       -7.8579  -15.8874  -51.3915 H         1 UNK         0.0600 
    222 H222       -8.1476  -15.7553  -48.9286 H         1 UNK         0.0600 
    223 H223       -6.6187  -16.5850  -48.6848 H         1 UNK         0.0600 
    224 H224       -6.6463  -14.9892  -49.4260 H         1 UNK         0.0600 
    225 H225       -6.4264  -18.9980  -50.7006 H         1 UNK         0.3000 
    226 H226       -9.0365  -20.3638  -50.3256 H         1 UNK         0.0600 
    227 H227       -7.1985  -21.1480  -48.9063 H         1 UNK         0.0600 
    228 H228       -7.5417  -22.3902  -50.0870 H         1 UNK         0.0600 
    229 H229       -6.1340  -21.3610  -50.2999 H         1 UNK         0.0600 
    230 H230       -7.0508  -19.3018  -52.8504 H         1 UNK         0.3000 
    231 H231       -6.7348  -19.6618  -54.9937 H         1 UNK         0.0600 
    232 H232       -8.4716  -20.6428  -56.4207 H         1 UNK         0.0600 
    233 H233       -9.2396  -19.6391  -55.2021 H         1 UNK         0.0600 
    234 H234       -9.2611  -21.3955  -55.0438 H         1 UNK         0.0600 
    235 H235       -5.5368  -21.3547  -52.9729 H         1 UNK         0.3000 
    236 H236       -5.1472  -24.0179  -54.1783 H         1 UNK         0.0600 
    237 H237       -5.3607  -23.7751  -51.7028 H         1 UNK         0.0600 
    238 H238       -3.7631  -24.3716  -52.1289 H         1 UNK         0.0600 
    239 H239       -3.9755  -22.6871  -51.6730 H         1 UNK         0.0600 
    240 H240       -3.6511  -20.8659  -54.1108 H         1 UNK         0.3000 
    241 H241       -1.2912  -21.8166  -55.6469 H         1 UNK         0.0600 
    242 H242       -1.5353  -18.9508  -57.7535 H         1 UNK         0.3800 
    243 H243       -0.4900  -20.2436  -57.2411 H         1 UNK         0.3800 
    244 H244       -1.2551  -19.7118  -53.4189 H         1 UNK         0.0800 
    245 H245        0.0760  -20.0513  -54.4867 H         1 UNK         0.0800 
    246 H246        1.9562  -22.7651  -52.9454 H         1 UNK         0.0800 
    247 H247        1.8786  -21.3715  -53.9847 H         1 UNK         0.0800 
@<TRIPOS>BOND
     1    1    2 1    
     2    1  127 1    
     3    1  128 1    
     4    1  129 1    
     5    2    3 2    
     6    2    4 am   BACKBONE|DICT|INTERRES
     7    4    5 1    
     8    4  130 1    
     9    5    6 1    
    10    5   65 1    
    11    5  131 1    
    12    6    7 1    
    13    6  132 1    
    14    6  133 1    
    15    7    8 1    
    16    8    9 1    
    17    8  134 1    
    18    8  135 1    
    19    9   10 ar   
    20    9   14 ar   
    21   10   11 ar   
    22   10  136 1    
    23   11   12 ar   
    24   11  126 1    
    25   12   13 ar   
    26   12  137 1    
    27   13   14 ar   
    28   13   15 1    
    29   14  138 1    
    30   15   16 1    
    31   15  139 1    
    32   15  140 1    
    33   16   17 1    
    34   17   18 1    
    35   17  141 1    
    36   17  142 1    
    37   18   19 1    
    38   18   67 1    
    39   18  143 1    
    40   19   20 am   BACKBONE|DICT|INTERRES
    41   19  144 1    
    42   20   21 2    
    43   20   22 1    
    44   22   23 1    
    45   22   24 1    
    46   22  145 1    
    47   23  146 1    
    48   23  147 1    
    49   23  148 1    
    50   24   25 am   BACKBONE|DICT|INTERRES
    51   24  149 1    
    52   25   26 2    
    53   25   27 1    
    54   27   28 1    
    55   27   29 1    
    56   27  150 1    
    57   28  151 1    
    58   28  152 1    
    59   28  153 1    
    60   29   30 am   BACKBONE|DICT|INTERRES
    61   29  154 1    
    62   30   31 2    
    63   30   32 1    
    64   32   33 1    
    65   32   34 1    
    66   32  155 1    
    67   33  156 1    
    68   33  157 1    
    69   33  158 1    
    70   34   35 am   BACKBONE|DICT|INTERRES
    71   34  159 1    
    72   35   36 2    
    73   35   37 1    
    74   37   38 1    
    75   37   39 1    
    76   37  160 1    
    77   38  161 1    
    78   38  162 1    
    79   38  163 1    
    80   39   40 am   BACKBONE|DICT|INTERRES
    81   39  164 1    
    82   40   41 2    
    83   40   42 1    
    84   42   43 1    
    85   42   44 1    
    86   42  165 1    
    87   43  166 1    
    88   43  167 1    
    89   43  168 1    
    90   44   45 am   BACKBONE|DICT|INTERRES
    91   44  169 1    
    92   45   46 2    
    93   45   47 1    
    94   47   48 1    
    95   47   49 1    
    96   47  170 1    
    97   48  171 1    
    98   48  172 1    
    99   48  173 1    
   100   49   50 am   BACKBONE|DICT|INTERRES
   101   49  174 1    
   102   50   51 2    
   103   50   52 1    
   104   52   53 1    
   105   52   54 1    
   106   52  175 1    
   107   53  176 1    
   108   53  177 1    
   109   53  178 1    
   110   54   55 am   BACKBONE|DICT|INTERRES
   111   54  179 1    
   112   55   56 2    
   113   55   57 1    
   114   57   58 1    
   115   57   59 1    
   116   57  180 1    
   117   58  181 1    
   118   58  182 1    
   119   58  183 1    
   120   59   60 am   BACKBONE|DICT|INTERRES
   121   59  184 1    
   122   60   61 2    
   123   60   62 1    
   124   62   63 1    
   125   62   64 1    
   126   62  185 1    
   127   63  186 1    
   128   63  187 1    
   129   63  188 1    
   130   64   65 am   BACKBONE|DICT|INTERRES
   131   64  189 1    
   132   65   66 2    
   133   67   68 2    
   134   67   69 am   BACKBONE|DICT|INTERRES
   135   69   70 1    
   136   69  190 1    
   137   70   71 1    
   138   70   72 1    
   139   70  191 1    
   140   71  192 1    
   141   71  193 1    
   142   71  194 1    
   143   72   73 2    
   144   72   74 am   BACKBONE|DICT|INTERRES
   145   74   75 1    
   146   74  195 1    
   147   75   76 1    
   148   75   77 1    
   149   75  196 1    
   150   76  197 1    
   151   76  198 1    
   152   76  199 1    
   153   77   78 2    
   154   77   79 am   BACKBONE|DICT|INTERRES
   155   79   80 1    
   156   79  200 1    
   157   80   81 1    
   158   80   82 1    
   159   80  201 1    
   160   81  202 1    
   161   81  203 1    
   162   81  204 1    
   163   82   83 2    
   164   82   84 am   BACKBONE|DICT|INTERRES
   165   84   85 1    
   166   84  205 1    
   167   85   86 1    
   168   85   87 1    
   169   85  206 1    
   170   86  207 1    
   171   86  208 1    
   172   86  209 1    
   173   87   88 2    
   174   87   89 am   BACKBONE|DICT|INTERRES
   175   89   90 1    
   176   89  210 1    
   177   90   91 1    
   178   90   92 1    
   179   90  211 1    
   180   91  212 1    
   181   91  213 1    
   182   91  214 1    
   183   92   93 2    
   184   92   94 am   BACKBONE|DICT|INTERRES
   185   94   95 1    
   186   94  215 1    
   187   95   96 1    
   188   95   97 1    
   189   95  216 1    
   190   96  217 1    
   191   96  218 1    
   192   96  219 1    
   193   97   98 2    
   194   97   99 am   BACKBONE|DICT|INTERRES
   195   99  100 1    
   196   99  220 1    
   197  100  101 1    
   198  100  102 1    
   199  100  221 1    
   200  101  222 1    
   201  101  223 1    
   202  101  224 1    
   203  102  103 2    
   204  102  104 am   BACKBONE|DICT|INTERRES
   205  104  105 1    
   206  104  225 1    
   207  105  106 1    
   208  105  107 1    
   209  105  226 1    
   210  106  227 1    
   211  106  228 1    
   212  106  229 1    
   213  107  108 2    
   214  107  109 am   BACKBONE|DICT|INTERRES
   215  109  110 1    
   216  109  230 1    
   217  110  111 1    
   218  110  112 1    
   219  110  231 1    
   220  111  232 1    
   221  111  233 1    
   222  111  234 1    
   223  112  113 2    
   224  112  114 am   BACKBONE|DICT|INTERRES
   225  114  115 1    
   226  114  235 1    
   227  115  116 1    
   228  115  117 1    
   229  115  236 1    
   230  116  237 1    
   231  116  238 1    
   232  116  239 1    
   233  117  118 2    
   234  117  119 am   BACKBONE|DICT|INTERRES
   235  119  120 1    
   236  119  240 1    
   237  120  121 1    
   238  120  124 1    
   239  120  241 1    
   240  121  122 am   BACKBONE|DICT|INTERRES
   241  121  123 2    
   242  122  242 1    
   243  122  243 1    
   244  124  125 1    
   245  124  244 1    
   246  124  245 1    
   247  125  126 1    
   248  126  246 1    
   249  126  247 1    
@<TRIPOS>SUBSTRUCTURE
     1 UNK         1 GROUP             0       ****    0 ROOT    
