@<TRIPOS>MOLECULE
3R540
247   249    1
SMALL
USER_CHARGES


@<TRIPOS>ATOM
      1 CA         -3.0187  -11.1303  -46.1448 C.3       0 UNK        -0.1800 
      2 C          -1.4983  -11.1046  -46.0890 C.2       0 UNK         0.5000 
      3 O          -0.9208  -10.2417  -45.4262 O.2       0 UNK        -0.5000 
      4 N          -0.8459  -12.0519  -46.7732 N.am      1 UNK        -0.5000 
      5 CA          0.6111  -12.2091  -46.8389 C.3       1 UNK         0.1400 
      6 C6          1.0529  -13.0012  -48.0954 C.3       23 UNK        -0.0398 
      7 S7          0.4929  -12.2252  -49.6482 S.3       23 UNK        -0.2404 
      8 C8          0.7430  -13.5831  -50.8379 C.3       23 UNK        -0.0205 
      9 C9         -0.0649  -14.8286  -50.4958 C.ar      23 UNK        -0.0193 
     10 C10        -1.4592  -14.7715  -50.4253 C.ar      23 UNK        -0.1150 
     11 C11        -2.2090  -15.9141  -50.1276 C.ar      23 UNK        -0.0193 
     12 C12        -1.5456  -17.1208  -49.8782 C.ar      23 UNK        -0.1150 
     13 C13        -0.1511  -17.1950  -49.9625 C.ar      23 UNK        -0.0193 
     14 C14         0.5826  -16.0454  -50.2666 C.ar      23 UNK        -0.1150 
     15 C15         0.5646  -18.5256  -49.7846 C.3       23 UNK        -0.0205 
     16 S16         1.5751  -18.6032  -48.2695 S.3       23 UNK        -0.2404 
     17 C17         0.3322  -18.5399  -46.9372 C.3       23 UNK        -0.0398 
     18 CA         -0.1830  -19.9499  -46.5495 C.3       11 UNK         0.1400 
     19 N          -0.4959  -20.0629  -45.1243 N.am      11 UNK        -0.5000 
     20 C          -0.8285  -21.2028  -44.5013 C.2       10 UNK         0.5000 
     21 O          -0.8302  -22.3068  -45.0443 O.2       10 UNK        -0.5000 
     22 CA         -1.2987  -21.0778  -43.0427 C.3       10 UNK         0.1400 
     23 CB         -0.1048  -21.0559  -42.0767 C.3       10 UNK        -0.1800 
     24 N          -2.1272  -19.8874  -42.8447 N.am      10 UNK        -0.5000 
     25 C          -3.3616  -19.7410  -43.3482 C.2       9 UNK         0.5000 
     26 O          -3.9478  -20.6178  -43.9816 O.2       9 UNK        -0.5000 
     27 CA         -4.0385  -18.3735  -43.1463 C.3       9 UNK         0.1400 
     28 CB         -4.7371  -18.3128  -41.7800 C.3       9 UNK        -0.1800 
     29 N          -3.1007  -17.2563  -43.2605 N.am      9 UNK        -0.5000 
     30 C          -2.4784  -16.8945  -44.3920 C.2       8 UNK         0.5000 
     31 O          -2.6474  -17.4506  -45.4766 O.2       8 UNK        -0.5000 
     32 CA         -1.4521  -15.7518  -44.2696 C.3       8 UNK         0.1400 
     33 CB         -2.1635  -14.3920  -44.3323 C.3       8 UNK        -0.1800 
     34 N          -0.6532  -15.8251  -43.0409 N.am      8 UNK        -0.5000 
     35 C           0.1311  -16.8591  -42.7086 C.2       7 UNK         0.5000 
     36 O           0.2272  -17.8858  -43.3879 O.2       7 UNK        -0.5000 
     37 CA          0.8675  -16.7678  -41.3636 C.3       7 UNK         0.1400 
     38 CB         -0.1349  -16.9361  -40.2026 C.3       7 UNK        -0.1800 
     39 N           1.8662  -17.8300  -41.3424 N.am      7 UNK        -0.5000 
     40 C           2.7825  -18.0901  -40.4030 C.2       6 UNK         0.5000 
     41 O           2.9370  -17.4152  -39.3847 O.2       6 UNK        -0.5000 
     42 CA          3.6770  -19.3258  -40.6362 C.3       6 UNK         0.1400 
     43 CB          3.1293  -20.5384  -39.8673 C.3       6 UNK        -0.1800 
     44 N           3.7876  -19.6714  -42.0562 N.am      6 UNK        -0.5000 
     45 C           4.6066  -19.0486  -42.9134 C.2       5 UNK         0.5000 
     46 O           5.4650  -18.2375  -42.5571 O.2       5 UNK        -0.5000 
     47 CA          4.4542  -19.3836  -44.4167 C.3       5 UNK         0.1400 
     48 CB          3.1034  -20.0435  -44.7781 C.3       5 UNK        -0.1800 
     49 N           4.6933  -18.2083  -45.2646 N.am      5 UNK        -0.5000 
     50 C           4.0440  -17.0358  -45.2047 C.2       4 UNK         0.5000 
     51 O           3.0759  -16.8174  -44.4740 O.2       4 UNK        -0.5000 
     52 CA          4.5718  -15.9194  -46.1202 C.3       4 UNK         0.1400 
     53 CB          3.7573  -15.8356  -47.4206 C.3       4 UNK        -0.1800 
     54 N           4.4959  -14.6385  -45.4220 N.am      4 UNK        -0.5000 
     55 C           5.4785  -14.1335  -44.6625 C.2       3 UNK         0.5000 
     56 O           6.5805  -14.6699  -44.5367 O.2       3 UNK        -0.5000 
     57 CA          5.2170  -12.7986  -43.9335 C.3       3 UNK         0.1400 
     58 CB          5.9424  -11.6474  -44.6482 C.3       3 UNK        -0.1800 
     59 N           3.7987  -12.4602  -43.8277 N.am      3 UNK        -0.5000 
     60 C           2.9431  -13.0042  -42.9527 C.2       2 UNK         0.5000 
     61 O           3.2750  -13.7994  -42.0738 O.2       2 UNK        -0.5000 
     62 CA          1.4606  -12.5994  -43.0878 C.3       2 UNK         0.1400 
     63 CB          1.0963  -11.5182  -42.0601 C.3       2 UNK        -0.1800 
     64 N           1.0729  -12.1352  -44.4249 N.am      2 UNK        -0.5000 
     65 C           1.1379  -12.8654  -45.5456 C.2       1 UNK         0.5000 
     66 O           1.5751  -14.0142  -45.5716 O.2       1 UNK        -0.5000 
     67 C          -1.3853  -20.3705  -47.4164 C.2       11 UNK         0.5000 
     68 O          -1.2291  -21.2031  -48.3080 O.2       11 UNK        -0.5000 
     69 N          -2.5718  -19.8287  -47.1071 N.am      12 UNK        -0.5000 
     70 CA         -3.8303  -20.1581  -47.7754 C.3       12 UNK         0.1400 
     71 CB         -4.9447  -19.2380  -47.2579 C.3       12 UNK        -0.1800 
     72 C          -4.2256  -21.6398  -47.6342 C.2       12 UNK         0.5000 
     73 O          -4.6971  -22.2318  -48.6037 O.2       12 UNK        -0.5000 
     74 N          -3.9906  -22.2223  -46.4495 N.am      13 UNK        -0.5000 
     75 CA         -4.1906  -23.6449  -46.1723 C.3       13 UNK         0.1400 
     76 CB         -4.0840  -23.8992  -44.6615 C.3       13 UNK        -0.1800 
     77 C          -3.2156  -24.5490  -46.9499 C.2       13 UNK         0.5000 
     78 O          -3.6333  -25.5904  -47.4539 O.2       13 UNK        -0.5000 
     79 N          -1.9457  -24.1347  -47.0603 N.am      14 UNK        -0.5000 
     80 CA         -0.9186  -24.8262  -47.8437 C.3       14 UNK         0.1400 
     81 CB          0.4637  -24.2506  -47.4986 C.3       14 UNK        -0.1800 
     82 C          -1.1809  -24.7512  -49.3605 C.2       14 UNK         0.5000 
     83 O          -0.9610  -25.7332  -50.0696 O.2       14 UNK        -0.5000 
     84 N          -1.6682  -23.5935  -49.8226 N.am      15 UNK        -0.5000 
     85 CA         -2.0304  -23.3160  -51.2116 C.3       15 UNK         0.1400 
     86 CB         -2.0272  -21.7909  -51.4183 C.3       15 UNK        -0.1800 
     87 C          -3.3868  -23.9107  -51.6389 C.2       15 UNK         0.5000 
     88 O          -3.7387  -23.7880  -52.8138 O.2       15 UNK        -0.5000 
     89 N          -4.1585  -24.4836  -50.7035 N.am      16 UNK        -0.5000 
     90 CA         -5.5068  -25.0099  -50.9289 C.3       16 UNK         0.1400 
     91 CB         -6.0827  -25.5507  -49.6134 C.3       16 UNK        -0.1800 
     92 C          -5.5327  -26.0873  -52.0266 C.2       16 UNK         0.5000 
     93 O          -4.7991  -27.0735  -51.9301 O.2       16 UNK        -0.5000 
     94 N          -6.3360  -25.8403  -53.0708 N.am      17 UNK        -0.5000 
     95 CA         -6.4852  -26.5974  -54.3224 C.3       17 UNK         0.1400 
     96 CB         -6.9667  -28.0373  -54.0615 C.3       17 UNK        -0.1800 
     97 C          -5.2388  -26.5816  -55.2332 C.2       17 UNK         0.5000 
     98 O          -5.3829  -26.4026  -56.4427 O.2       17 UNK        -0.5000 
     99 N          -4.0469  -26.7468  -54.6470 N.am      18 UNK        -0.5000 
    100 CA        -2.7469  -26.7826  -55.3190 C.3       18 UNK         0.1400 
    101 CB        -1.6708  -27.1666  -54.2918 C.3       18 UNK        -0.1800 
    102 C         -2.3701  -25.4635  -56.0189 C.2       18 UNK         0.5000 
    103 O         -1.7484  -25.4972  -57.0818 O.2       18 UNK        -0.5000 
    104 N         -2.7576  -24.3342  -55.4174 N.am      19 UNK        -0.5000 
    105 CA        -2.5179  -22.9827  -55.9135 C.3       19 UNK         0.1400 
    106 CB        -1.1847  -22.4517  -55.3539 C.3       19 UNK        -0.1800 
    107 C         -3.7217  -22.0838  -55.5839 C.2       19 UNK         0.5000 
    108 O         -3.5460  -20.9304  -55.1891 O.2       19 UNK        -0.5000 
    109 N         -4.9354  -22.6402  -55.7195 N.am      20 UNK        -0.5000 
    110 CA        -6.2385  -21.9710  -55.5868 C.3       20 UNK         0.1400 
    111 CB        -6.4659  -21.0375  -56.7939 C.3       20 UNK        -0.1800 
    112 C         -6.4748  -21.2446  -54.2406 C.2       20 UNK         0.5000 
    113 O         -7.2798  -20.3141  -54.1850 O.2       20 UNK        -0.5000 
    114 N         -5.7666  -21.6748  -53.1858 N.am      21 UNK        -0.5000 
    115 CA        -5.7722  -21.1267  -51.8251 C.3       21 UNK         0.1400 
    116 CB        -7.1697  -21.2442  -51.1800 C.3       21 UNK        -0.1800 
    117 C         -5.1816  -19.7063  -51.6897 C.2       21 UNK         0.5000 
    118 O         -5.3505  -19.1040  -50.6298 O.2       21 UNK        -0.5000 
    119 N         -4.4891  -19.1858  -52.7158 N.am      22 UNK        -0.5000 
    120 CA        -3.8663  -17.8478  -52.6765 C.3       22 UNK         0.1400 
    121 C         -2.7721  -17.5800  -53.7529 C.2       22 UNK         0.5000 
    122 N         -2.4240  -18.5113  -54.6296 N.am      22 UNK        -0.7600 
    123 O         -2.1978  -16.4967  -53.7951 O.2       22 UNK        -0.5000 
    124 C124       -4.9194  -16.6978  -52.5961 C.3       23 UNK        -0.0398 
    125 S125       -4.4528  -15.2086  -51.6357 S.3       23 UNK        -0.2404 
    126 C126       -3.7317  -15.8333  -50.0743 C.3       23 UNK        -0.0205 
    127 H127       -3.4272  -11.2767  -45.1449 H         1 UNK         0.0600 
    128 H128       -3.3962  -10.1850  -46.5345 H         1 UNK         0.0600 
    129 H129       -3.3874  -11.9332  -46.7837 H         1 UNK         0.0600 
    130 H130       -1.3743  -12.7304  -47.3020 H         1 UNK         0.3000 
    131 H131        1.0643  -11.2175  -46.9035 H         1 UNK         0.0600 
    132 H132        2.1405  -13.0835  -48.1346 H         1 UNK         0.0800 
    133 H133        0.6694  -14.0215  -48.0460 H         1 UNK         0.0800 
    134 H134        1.8085  -13.8128  -50.8898 H         1 UNK         0.0800 
    135 H135        0.4543  -13.2389  -51.8318 H         1 UNK         0.0800 
    136 H136       -1.9639  -13.8342  -50.6135 H         1 UNK         0.1150 
    137 H137       -2.1162  -18.0088  -49.6446 H         1 UNK         0.1150 
    138 H138        1.6601  -16.1049  -50.3323 H         1 UNK         0.1150 
    139 H139       -0.1426  -19.3535  -49.8072 H         1 UNK         0.0800 
    140 H140        1.2226  -18.6816  -50.6405 H         1 UNK         0.0800 
    141 H141       -0.4755  -17.8531  -47.1958 H         1 UNK         0.0800 
    142 H142        0.8349  -18.0801  -46.0847 H         1 UNK         0.0800 
    143 H143        0.6152  -20.6726  -46.7332 H         1 UNK         0.0600 
    144 H144       -0.4647  -19.2056  -44.5793 H         1 UNK         0.3000 
    145 H145       -1.9045  -21.9558  -42.8088 H         1 UNK         0.0600 
    146 H146       -0.4353  -20.9719  -41.0413 H         1 UNK         0.0600 
    147 H147        0.4759  -21.9754  -42.1593 H         1 UNK         0.0600 
    148 H148        0.5698  -20.2268  -42.2821 H         1 UNK         0.0600 
    149 H149       -1.6918  -19.1006  -42.3877 H         1 UNK         0.3000 
    150 H150       -4.7973  -18.2596  -43.9234 H         1 UNK         0.0600 
    151 H151       -5.4566  -19.1259  -41.6737 H         1 UNK         0.0600 
    152 H152       -5.2848  -17.3781  -41.6584 H         1 UNK         0.0600 
    153 H153       -4.0250  -18.3949  -40.9578 H         1 UNK         0.0600 
    154 H154       -2.8978  -16.7435  -42.4156 H         1 UNK         0.3000 
    155 H155       -0.7650  -15.8237  -45.1160 H         1 UNK         0.0600 
    156 H156       -2.8946  -14.2800  -43.5307 H         1 UNK         0.0600 
    157 H157       -1.4555  -13.5693  -44.2490 H         1 UNK         0.0600 
    158 H158       -2.6927  -14.2733  -45.2786 H         1 UNK         0.0600 
    159 H159       -0.7176  -15.0366  -42.4151 H         1 UNK         0.3000 
    160 H160        1.3721  -15.8024  -41.2979 H         1 UNK         0.0600 
    161 H161       -0.6171  -17.9142  -40.2285 H         1 UNK         0.0600 
    162 H162       -0.9206  -16.1810  -40.2430 H         1 UNK         0.0600 
    163 H163        0.3504  -16.8306  -39.2328 H         1 UNK         0.0600 
    164 H164        1.8477  -18.3921  -42.1841 H         1 UNK         0.3000 
    165 H165        4.6697  -19.0978  -40.2420 H         1 UNK         0.0600 
    166 H166        3.7762  -21.4075  -39.9883 H         1 UNK         0.0600 
    167 H167        3.0681  -20.3264  -38.7991 H         1 UNK         0.0600 
    168 H168        2.1295  -20.8137  -40.2031 H         1 UNK         0.0600 
    169 H169        3.1355  -20.3539  -42.4125 H         1 UNK         0.3000 
    170 H170        5.2454  -20.0968  -44.6513 H         1 UNK         0.0600 
    171 H171        2.9881  -21.0151  -44.2970 H         1 UNK         0.0600 
    172 H172        2.2578  -19.4221  -44.4835 H         1 UNK         0.0600 
    173 H173        3.0279  -20.2126  -45.8522 H         1 UNK         0.0600 
    174 H174        5.4900  -18.2803  -45.8812 H         1 UNK         0.3000 
    175 H175        5.6097  -16.1304  -46.3866 H         1 UNK         0.0600 
    176 H176        2.6872  -15.7545  -47.2268 H         1 UNK         0.0600 
    177 H177        4.0563  -14.9782  -48.0235 H         1 UNK         0.0600 
    178 H178        3.9117  -16.7274  -48.0281 H         1 UNK         0.0600 
    179 H179        3.5729  -14.2191  -45.3879 H         1 UNK         0.3000 
    180 H180        5.6312  -12.8885  -42.9270 H         1 UNK         0.0600 
    181 H181        5.5688  -11.5046  -45.6630 H         1 UNK         0.0600 
    182 H182        7.0134  -11.8426  -44.7174 H         1 UNK         0.0600 
    183 H183        5.8198  -10.7079  -44.1087 H         1 UNK         0.0600 
    184 H184        3.4363  -11.8052  -44.5043 H         1 UNK         0.3000 
    185 H185        0.8694  -13.4886  -42.8677 H         1 UNK         0.0600 
    186 H186        1.3403  -11.8415  -41.0472 H         1 UNK         0.0600 
    187 H187        1.6357  -10.5890  -42.2478 H         1 UNK         0.0600 
    188 H188        0.0289  -11.2973  -42.0814 H         1 UNK         0.0600 
    189 H189        0.6376  -11.2206  -44.4862 H         1 UNK         0.3000 
    190 H190       -2.6146  -19.1152  -46.3836 H         1 UNK         0.3000 
    191 H191       -3.6877  -19.9585  -48.8378 H         1 UNK         0.0600 
    192 H192       -5.1155  -19.3720  -46.1898 H         1 UNK         0.0600 
    193 H193       -5.8853  -19.4410  -47.7717 H         1 UNK         0.0600 
    194 H194       -4.7007  -18.1897  -47.4313 H         1 UNK         0.0600 
    195 H195       -3.6664  -21.6484  -45.6778 H         1 UNK         0.3000 
    196 H196       -5.2035  -23.9054  -46.4860 H         1 UNK         0.0600 
    197 H197       -4.2599  -24.9502  -44.4294 H         1 UNK         0.0600 
    198 H198       -4.8226  -23.3166  -44.1107 H         1 UNK         0.0600 
    199 H199       -3.0980  -23.6388  -44.2769 H         1 UNK         0.0600 
    200 H200       -1.6568  -23.2939  -46.5696 H         1 UNK         0.3000 
    201 H201       -0.9266  -25.8799  -47.5570 H         1 UNK         0.0600 
    202 H202        0.6829  -24.3636  -46.4367 H         1 UNK         0.0600 
    203 H203        0.5324  -23.1900  -47.7415 H         1 UNK         0.0600 
    204 H204        1.2504  -24.7660  -48.0507 H         1 UNK         0.0600 
    205 H205       -1.7469  -22.8136  -49.1742 H         1 UNK         0.3000 
    206 H206       -1.2725  -23.7503  -51.8666 H         1 UNK         0.0600 
    207 H207       -2.3408  -21.5164  -52.4259 H         1 UNK         0.0600 
    208 H208       -2.7007  -21.2927  -50.7211 H         1 UNK         0.0600 
    209 H209       -1.0301  -21.3775  -51.2663 H         1 UNK         0.0600 
    210 H210       -3.8088  -24.5320  -49.7570 H         1 UNK         0.3000 
    211 H211       -6.1286  -24.1712  -51.2442 H         1 UNK         0.0600 
    212 H212       -5.5007  -26.3929  -49.2373 H         1 UNK         0.0600 
    213 H213       -7.1084  -25.8955  -49.7488 H         1 UNK         0.0600 
    214 H214       -6.0974  -24.7796  -48.8428 H         1 UNK         0.0600 
    215 H215       -6.8744  -24.9863  -53.0421 H         1 UNK         0.3000 
    216 H216       -7.2765  -26.0890  -54.8757 H         1 UNK         0.0600 
    217 H217       -7.1872  -28.5477  -54.9999 H         1 UNK         0.0600 
    218 H218       -7.8789  -28.0459  -53.4650 H         1 UNK         0.0600 
    219 H219       -6.2179  -28.6326  -53.5385 H         1 UNK         0.0600 
    220 H220       -4.0480  -26.8932  -53.6409 H         1 UNK         0.3000 
    221 H221       -2.7886  -27.5620  -56.0824 H         1 UNK         0.0600 
    222 H222       -1.6136  -26.4403  -53.4794 H         1 UNK         0.0600 
    223 H223       -1.8755  -28.1432  -53.8527 H         1 UNK         0.0600 
    224 H224       -0.6855  -27.2195  -54.7568 H         1 UNK         0.0600 
    225 H225       -3.2435  -24.3851  -54.5246 H         1 UNK         0.3000 
    226 H226       -2.4488  -22.9990  -57.0029 H         1 UNK         0.0600 
    227 H227       -0.3497  -23.0758  -55.6722 H         1 UNK         0.0600 
    228 H228       -0.9825  -21.4391  -55.7049 H         1 UNK         0.0600 
    229 H229       -1.1875  -22.4316  -54.2648 H         1 UNK         0.0600 
    230 H230       -4.9689  -23.6042  -56.0214 H         1 UNK         0.3000 
    231 H231       -6.9898  -22.7604  -55.6338 H         1 UNK         0.0600 
    232 H232       -7.4811  -20.6390  -56.8010 H         1 UNK         0.0600 
    233 H233       -6.3237  -21.5683  -57.7352 H         1 UNK         0.0600 
    234 H234       -5.7804  -20.1893  -56.7806 H         1 UNK         0.0600 
    235 H235       -5.0962  -22.4216  -53.3411 H         1 UNK         0.3000 
    236 H236       -5.1092  -21.7625  -51.2435 H         1 UNK         0.0600 
    237 H237       -7.5854  -22.2434  -51.3045 H         1 UNK         0.0600 
    238 H238       -7.1188  -21.0489  -50.1080 H         1 UNK         0.0600 
    239 H239       -7.8754  -20.5312  -51.6064 H         1 UNK         0.0600 
    240 H240       -4.3689  -19.7256  -53.5636 H         1 UNK         0.3000 
    241 H241       -3.2964  -17.8596  -51.7533 H         1 UNK         0.0600 
    242 H242       -1.7040  -18.2823  -55.2951 H         1 UNK         0.3800 
    243 H243       -2.8711  -19.4240  -54.6983 H         1 UNK         0.3800 
    244 H244       -5.2048  -16.3805  -53.6003 H         1 UNK         0.0800 
    245 H245       -5.8490  -17.0499  -52.1497 H         1 UNK         0.0800 
    246 H246       -4.0068  -15.1491  -49.2707 H         1 UNK         0.0800 
    247 H247       -4.1766  -16.7951  -49.8148 H         1 UNK         0.0800 
@<TRIPOS>BOND
     1    1    2 1    
     2    1  127 1    
     3    1  128 1    
     4    1  129 1    
     5    2    3 2    
     6    2    4 am   BACKBONE|DICT|INTERRES
     7    4    5 1    
     8    4  130 1    
     9    5    6 1    
    10    5   65 1    
    11    5  131 1    
    12    6    7 1    
    13    6  132 1    
    14    6  133 1    
    15    7    8 1    
    16    8    9 1    
    17    8  134 1    
    18    8  135 1    
    19    9   10 ar   
    20    9   14 ar   
    21   10   11 ar   
    22   10  136 1    
    23   11   12 ar   
    24   11  126 1    
    25   12   13 ar   
    26   12  137 1    
    27   13   14 ar   
    28   13   15 1    
    29   14  138 1    
    30   15   16 1    
    31   15  139 1    
    32   15  140 1    
    33   16   17 1    
    34   17   18 1    
    35   17  141 1    
    36   17  142 1    
    37   18   19 1    
    38   18   67 1    
    39   18  143 1    
    40   19   20 am   BACKBONE|DICT|INTERRES
    41   19  144 1    
    42   20   21 2    
    43   20   22 1    
    44   22   23 1    
    45   22   24 1    
    46   22  145 1    
    47   23  146 1    
    48   23  147 1    
    49   23  148 1    
    50   24   25 am   BACKBONE|DICT|INTERRES
    51   24  149 1    
    52   25   26 2    
    53   25   27 1    
    54   27   28 1    
    55   27   29 1    
    56   27  150 1    
    57   28  151 1    
    58   28  152 1    
    59   28  153 1    
    60   29   30 am   BACKBONE|DICT|INTERRES
    61   29  154 1    
    62   30   31 2    
    63   30   32 1    
    64   32   33 1    
    65   32   34 1    
    66   32  155 1    
    67   33  156 1    
    68   33  157 1    
    69   33  158 1    
    70   34   35 am   BACKBONE|DICT|INTERRES
    71   34  159 1    
    72   35   36 2    
    73   35   37 1    
    74   37   38 1    
    75   37   39 1    
    76   37  160 1    
    77   38  161 1    
    78   38  162 1    
    79   38  163 1    
    80   39   40 am   BACKBONE|DICT|INTERRES
    81   39  164 1    
    82   40   41 2    
    83   40   42 1    
    84   42   43 1    
    85   42   44 1    
    86   42  165 1    
    87   43  166 1    
    88   43  167 1    
    89   43  168 1    
    90   44   45 am   BACKBONE|DICT|INTERRES
    91   44  169 1    
    92   45   46 2    
    93   45   47 1    
    94   47   48 1    
    95   47   49 1    
    96   47  170 1    
    97   48  171 1    
    98   48  172 1    
    99   48  173 1    
   100   49   50 am   BACKBONE|DICT|INTERRES
   101   49  174 1    
   102   50   51 2    
   103   50   52 1    
   104   52   53 1    
   105   52   54 1    
   106   52  175 1    
   107   53  176 1    
   108   53  177 1    
   109   53  178 1    
   110   54   55 am   BACKBONE|DICT|INTERRES
   111   54  179 1    
   112   55   56 2    
   113   55   57 1    
   114   57   58 1    
   115   57   59 1    
   116   57  180 1    
   117   58  181 1    
   118   58  182 1    
   119   58  183 1    
   120   59   60 am   BACKBONE|DICT|INTERRES
   121   59  184 1    
   122   60   61 2    
   123   60   62 1    
   124   62   63 1    
   125   62   64 1    
   126   62  185 1    
   127   63  186 1    
   128   63  187 1    
   129   63  188 1    
   130   64   65 am   BACKBONE|DICT|INTERRES
   131   64  189 1    
   132   65   66 2    
   133   67   68 2    
   134   67   69 am   BACKBONE|DICT|INTERRES
   135   69   70 1    
   136   69  190 1    
   137   70   71 1    
   138   70   72 1    
   139   70  191 1    
   140   71  192 1    
   141   71  193 1    
   142   71  194 1    
   143   72   73 2    
   144   72   74 am   BACKBONE|DICT|INTERRES
   145   74   75 1    
   146   74  195 1    
   147   75   76 1    
   148   75   77 1    
   149   75  196 1    
   150   76  197 1    
   151   76  198 1    
   152   76  199 1    
   153   77   78 2    
   154   77   79 am   BACKBONE|DICT|INTERRES
   155   79   80 1    
   156   79  200 1    
   157   80   81 1    
   158   80   82 1    
   159   80  201 1    
   160   81  202 1    
   161   81  203 1    
   162   81  204 1    
   163   82   83 2    
   164   82   84 am   BACKBONE|DICT|INTERRES
   165   84   85 1    
   166   84  205 1    
   167   85   86 1    
   168   85   87 1    
   169   85  206 1    
   170   86  207 1    
   171   86  208 1    
   172   86  209 1    
   173   87   88 2    
   174   87   89 am   BACKBONE|DICT|INTERRES
   175   89   90 1    
   176   89  210 1    
   177   90   91 1    
   178   90   92 1    
   179   90  211 1    
   180   91  212 1    
   181   91  213 1    
   182   91  214 1    
   183   92   93 2    
   184   92   94 am   BACKBONE|DICT|INTERRES
   185   94   95 1    
   186   94  215 1    
   187   95   96 1    
   188   95   97 1    
   189   95  216 1    
   190   96  217 1    
   191   96  218 1    
   192   96  219 1    
   193   97   98 2    
   194   97   99 am   BACKBONE|DICT|INTERRES
   195   99  100 1    
   196   99  220 1    
   197  100  101 1    
   198  100  102 1    
   199  100  221 1    
   200  101  222 1    
   201  101  223 1    
   202  101  224 1    
   203  102  103 2    
   204  102  104 am   BACKBONE|DICT|INTERRES
   205  104  105 1    
   206  104  225 1    
   207  105  106 1    
   208  105  107 1    
   209  105  226 1    
   210  106  227 1    
   211  106  228 1    
   212  106  229 1    
   213  107  108 2    
   214  107  109 am   BACKBONE|DICT|INTERRES
   215  109  110 1    
   216  109  230 1    
   217  110  111 1    
   218  110  112 1    
   219  110  231 1    
   220  111  232 1    
   221  111  233 1    
   222  111  234 1    
   223  112  113 2    
   224  112  114 am   BACKBONE|DICT|INTERRES
   225  114  115 1    
   226  114  235 1    
   227  115  116 1    
   228  115  117 1    
   229  115  236 1    
   230  116  237 1    
   231  116  238 1    
   232  116  239 1    
   233  117  118 2    
   234  117  119 am   BACKBONE|DICT|INTERRES
   235  119  120 1    
   236  119  240 1    
   237  120  121 1    
   238  120  124 1    
   239  120  241 1    
   240  121  122 am   BACKBONE|DICT|INTERRES
   241  121  123 2    
   242  122  242 1    
   243  122  243 1    
   244  124  125 1    
   245  124  244 1    
   246  124  245 1    
   247  125  126 1    
   248  126  246 1    
   249  126  247 1    
@<TRIPOS>SUBSTRUCTURE
     1 UNK         1 GROUP             0       ****    0 ROOT    
