@<TRIPOS>MOLECULE
3R540
247   249    1
SMALL
USER_CHARGES


@<TRIPOS>ATOM
      1 CA          4.2392  -17.5042  -50.6501 C.3       0 UNK        -0.1800 
      2 C           3.2081  -16.8842  -49.7184 C.2       0 UNK         0.5000 
      3 O           3.5316  -16.5497  -48.5789 O.2       0 UNK        -0.5000 
      4 N           1.9696  -16.7207  -50.1997 N.am      1 UNK        -0.5000 
      5 CA          0.8422  -16.1361  -49.4672 C.3       1 UNK         0.1400 
      6 C6         -0.5075  -16.6806  -49.9994 C.3       23 UNK        -0.0398 
      7 S7         -1.8517  -16.5271  -48.7740 S.3       23 UNK        -0.2404 
      8 C8         -1.9667  -18.2480  -48.2061 C.3       23 UNK        -0.0205 
      9 C9         -3.2216  -18.5018  -47.3874 C.ar      23 UNK        -0.0193 
     10 C10        -4.4714  -18.5172  -48.0103 C.ar      23 UNK        -0.1150 
     11 C11        -5.6313  -18.7887  -47.2814 C.ar      23 UNK        -0.0193 
     12 C12        -5.5303  -19.0460  -45.9117 C.ar      23 UNK        -0.1150 
     13 C13        -4.2895  -19.0252  -45.2673 C.ar      23 UNK        -0.0193 
     14 C14        -3.1373  -18.7465  -46.0153 C.ar      23 UNK        -0.1150 
     15 C15        -4.2436  -19.2520  -43.7580 C.3       23 UNK        -0.0205 
     16 S16        -2.6831  -19.9602  -43.1392 S.3       23 UNK        -0.2404 
     17 C17        -2.8364  -21.7135  -43.6151 C.3       23 UNK        -0.0398 
     18 CA         -2.0703  -22.1095  -44.9059 C.3       11 UNK         0.1400 
     19 N          -0.6951  -21.5979  -44.9606 N.am      11 UNK        -0.5000 
     20 C           0.1398  -21.7560  -45.9993 C.2       10 UNK         0.5000 
     21 O          -0.1734  -22.3045  -47.0556 O.2       10 UNK        -0.5000 
     22 CA          1.5891  -21.2850  -45.8050 C.3       10 UNK         0.1400 
     23 CB          1.7284  -19.7829  -46.0926 C.3       10 UNK        -0.1800 
     24 N           2.0761  -21.5947  -44.4600 N.am      10 UNK        -0.5000 
     25 C           2.3611  -22.8367  -44.0386 C.2       9 UNK         0.5000 
     26 O           2.2880  -23.8312  -44.7580 O.2       9 UNK        -0.5000 
     27 CA          2.7531  -23.0113  -42.5596 C.3       9 UNK         0.1400 
     28 CB          4.2591  -22.7775  -42.3698 C.3       9 UNK        -0.1800 
     29 N           2.0121  -22.1251  -41.6644 N.am      9 UNK        -0.5000 
     30 C           0.6854  -22.1577  -41.4755 C.2       8 UNK         0.5000 
     31 O          -0.0575  -22.9950  -41.9875 O.2       8 UNK        -0.5000 
     32 CA          0.0856  -21.0306  -40.6109 C.3       8 UNK         0.1400 
     33 CB         -0.0130  -21.4746  -39.1442 C.3       8 UNK        -0.1800 
     34 N           0.8353  -19.7702  -40.6864 N.am      8 UNK        -0.5000 
     35 C           1.0567  -19.0766  -41.8117 C.2       7 UNK         0.5000 
     36 O           0.6467  -19.4228  -42.9208 O.2       7 UNK        -0.5000 
     37 CA          1.9611  -17.8467  -41.6866 C.3       7 UNK         0.1400 
     38 CB          3.4390  -18.2856  -41.6409 C.3       7 UNK        -0.1800 
     39 N           1.7355  -16.9572  -42.8225 N.am      7 UNK        -0.5000 
     40 C           2.1454  -15.6871  -42.8993 C.2       6 UNK         0.5000 
     41 O           2.7364  -15.1053  -41.9884 O.2       6 UNK        -0.5000 
     42 CA          1.8366  -14.9225  -44.1964 C.3       6 UNK         0.1400 
     43 CB          2.6404  -15.4761  -45.3908 C.3       6 UNK        -0.1800 
     44 N           0.3976  -14.8203  -44.4650 N.am      6 UNK        -0.5000 
     45 C          -0.4349  -15.7624  -44.9287 C.2       5 UNK         0.5000 
     46 O          -0.0816  -16.8969  -45.2439 O.2       5 UNK        -0.5000 
     47 CA         -1.9239  -15.3949  -45.0165 C.3       5 UNK         0.1400 
     48 CB         -2.6252  -15.8629  -43.7232 C.3       5 UNK        -0.1800 
     49 N          -2.1503  -13.9608  -45.2467 N.am      5 UNK        -0.5000 
     50 C          -3.3506  -13.4177  -45.4999 C.2       4 UNK         0.5000 
     51 O          -4.3778  -14.0793  -45.6549 O.2       4 UNK        -0.5000 
     52 CA         -3.4580  -11.8813  -45.5580 C.3       4 UNK         0.1400 
     53 CB         -4.0490  -11.3455  -44.2436 C.3       4 UNK        -0.1800 
     54 N          -2.1858  -11.2025  -45.8017 N.am      4 UNK        -0.5000 
     55 C          -1.6861  -10.9431  -47.0161 C.2       3 UNK         0.5000 
     56 O          -2.2306  -11.2931  -48.0648 O.2       3 UNK        -0.5000 
     57 CA         -0.3659  -10.1410  -47.0884 C.3       3 UNK         0.1400 
     58 CB          0.1993   -9.7116  -45.7141 C.3       3 UNK        -0.1800 
     59 N           0.6569  -10.8484  -47.8643 N.am      3 UNK        -0.5000 
     60 C           1.1234  -12.0780  -47.6135 C.2       2 UNK         0.5000 
     61 O           0.7802  -12.7563  -46.6431 O.2       2 UNK        -0.5000 
     62 CA          2.1698  -12.6302  -48.5986 C.3       2 UNK         0.1400 
     63 CB          3.5902  -12.4073  -48.0577 C.3       2 UNK        -0.1800 
     64 N           1.9709  -14.0584  -48.8308 N.am      2 UNK        -0.5000 
     65 C           0.9301  -14.5925  -49.4792 C.2       1 UNK         0.5000 
     66 O           0.1010  -13.9196  -50.0943 O.2       1 UNK        -0.5000 
     67 C          -2.0956  -23.6438  -45.0741 C.2       11 UNK         0.5000 
     68 O          -2.8234  -24.1566  -45.9261 O.2       11 UNK        -0.5000 
     69 N          -1.2624  -24.3321  -44.2773 N.am      12 UNK        -0.5000 
     70 CA         -1.0900  -25.7852  -44.2733 C.3       12 UNK         0.1400 
     71 CB         -0.1790  -26.1835  -43.1027 C.3       12 UNK        -0.1800 
     72 C          -0.5403  -26.3416  -45.5988 C.2       12 UNK         0.5000 
     73 O          -0.9680  -27.4133  -46.0275 O.2       12 UNK        -0.5000 
     74 N           0.3528  -25.5887  -46.2543 N.am      13 UNK        -0.5000 
     75 CA          0.9393  -25.8947  -47.5622 C.3       13 UNK         0.1400 
     76 CB          2.2829  -25.1543  -47.6910 C.3       13 UNK        -0.1800 
     77 C          -0.0037  -25.5896  -48.7485 C.2       13 UNK         0.5000 
     78 O           0.4717  -25.1885  -49.8113 O.2       13 UNK        -0.5000 
     79 N          -1.3176  -25.7782  -48.5570 N.am      14 UNK        -0.5000 
     80 CA         -2.3984  -25.5867  -49.5289 C.3       14 UNK         0.1400 
     81 CB         -2.3388  -26.6810  -50.6154 C.3       14 UNK        -0.1800 
     82 C          -2.4184  -24.1617  -50.1157 C.2       14 UNK         0.5000 
     83 O          -2.4180  -23.9962  -51.3366 O.2       14 UNK        -0.5000 
     84 N          -2.3889  -23.1609  -49.2238 N.am      15 UNK        -0.5000 
     85 CA         -2.3111  -21.7271  -49.5268 C.3       15 UNK         0.1400 
     86 CB         -3.6050  -21.2412  -50.2130 C.3       15 UNK        -0.1800 
     87 C          -1.0353  -21.3695  -50.3204 C.2       15 UNK         0.5000 
     88 O          -1.1070  -20.6762  -51.3367 O.2       15 UNK        -0.5000 
     89 N           0.1037  -21.8869  -49.8386 N.am      16 UNK        -0.5000 
     90 CA          1.4464  -21.8175  -50.4222 C.3       16 UNK         0.1400 
     91 CB          2.0244  -20.3965  -50.2772 C.3       16 UNK        -0.1800 
     92 C           1.4868  -22.3497  -51.8699 C.2       16 UNK         0.5000 
     93 O           1.9626  -21.6610  -52.7733 O.2       16 UNK        -0.5000 
     94 N           0.9550  -23.5667  -52.0520 N.am      17 UNK        -0.5000 
     95 CA          0.7565  -24.2728  -53.3208 C.3       17 UNK         0.1400 
     96 CB          2.1103  -24.6759  -53.9416 C.3       17 UNK        -0.1800 
     97 C          -0.1534  -23.4874  -54.2889 C.2       17 UNK         0.5000 
     98 O           0.1894  -23.3066  -55.4592 O.2       17 UNK        -0.5000 
     99 N          -1.2992  -23.0337  -53.7612 N.am      18 UNK        -0.5000 
    100 CA        -2.3360  -22.2379  -54.4205 C.3       18 UNK         0.1400 
    101 CB        -3.0727  -23.0795  -55.4829 C.3       18 UNK        -0.1800 
    102 C         -1.8184  -20.8888  -54.9625 C.2       18 UNK         0.5000 
    103 O         -2.1591  -20.4974  -56.0810 O.2       18 UNK        -0.5000 
    104 N         -1.0180  -20.1849  -54.1491 N.am      19 UNK        -0.5000 
    105 CA        -0.5784  -18.8112  -54.4120 C.3       19 UNK         0.1400 
    106 CB         0.5896  -18.4568  -53.4810 C.3       19 UNK        -0.1800 
    107 C         -1.7279  -17.8004  -54.2367 C.2       19 UNK         0.5000 
    108 O         -1.7282  -16.7556  -54.8886 O.2       19 UNK        -0.5000 
    109 N         -2.6940  -18.1525  -53.3825 N.am      20 UNK        -0.5000 
    110 CA        -3.9889  -17.5045  -53.2379 C.3       20 UNK         0.1400 
    111 CB        -4.0802  -16.8751  -51.8410 C.3       20 UNK        -0.1800 
    112 C         -5.0702  -18.5781  -53.4301 C.2       20 UNK         0.5000 
    113 O         -4.8458  -19.7405  -53.0828 O.2       20 UNK        -0.5000 
    114 N         -6.2189  -18.1737  -53.9837 N.am      21 UNK        -0.5000 
    115 CA        -7.3506  -19.0619  -54.2656 C.3       21 UNK         0.1400 
    116 CB        -8.1514  -18.4798  -55.4416 C.3       21 UNK        -0.1800 
    117 C         -8.2714  -19.2816  -53.0490 C.2       21 UNK         0.5000 
    118 O         -9.0375  -20.2459  -53.0452 O.2       21 UNK        -0.5000 
    119 N         -8.2004  -18.3773  -52.0614 N.am      22 UNK        -0.5000 
    120 CA        -9.0267  -18.3454  -50.8381 C.3       22 UNK         0.1400 
    121 C        -10.5363  -18.0253  -51.0771 C.2       22 UNK         0.5000 
    122 N        -10.9291  -17.5039  -52.2332 N.am      22 UNK        -0.7600 
    123 O        -11.3659  -18.2177  -50.1919 O.2       22 UNK        -0.5000 
    124 C124       -8.8237  -19.5816  -49.9135 C.3       23 UNK        -0.0398 
    125 S125       -7.0861  -19.8391  -49.4200 S.3       23 UNK        -0.2404 
    126 C126       -6.9957  -18.7557  -47.9578 C.3       23 UNK        -0.0205 
    127 H127        4.6959  -18.3736  -50.1773 H         1 UNK         0.0600 
    128 H128        5.0257  -16.7830  -50.8717 H         1 UNK         0.0600 
    129 H129        3.7937  -17.8255  -51.5921 H         1 UNK         0.0600 
    130 H130        1.7843  -16.9675  -51.1605 H         1 UNK         0.3000 
    131 H131        0.9294  -16.4508  -48.4238 H         1 UNK         0.0600 
    132 H132       -0.8074  -16.1884  -50.9262 H         1 UNK         0.0800 
    133 H133       -0.4017  -17.7343  -50.2595 H         1 UNK         0.0800 
    134 H134       -1.0702  -18.5018  -47.6373 H         1 UNK         0.0800 
    135 H135       -1.9839  -18.9003  -49.0764 H         1 UNK         0.0800 
    136 H136       -4.5459  -18.3152  -49.0673 H         1 UNK         0.1150 
    137 H137       -6.4255  -19.2416  -45.3380 H         1 UNK         0.1150 
    138 H138       -2.1697  -18.7136  -45.5345 H         1 UNK         0.1150 
    139 H139       -4.4009  -18.2910  -43.2680 H         1 UNK         0.0800 
    140 H140       -5.0703  -19.8904  -43.4427 H         1 UNK         0.0800 
    141 H141       -3.8931  -21.9647  -43.7192 H         1 UNK         0.0800 
    142 H142       -2.4823  -22.2928  -42.7614 H         1 UNK         0.0800 
    143 H143       -2.6021  -21.6765  -45.7557 H         1 UNK         0.0600 
    144 H144       -0.3665  -21.0975  -44.1437 H         1 UNK         0.3000 
    145 H145        2.2108  -21.8191  -46.5267 H         1 UNK         0.0600 
    146 H146        1.1492  -19.1827  -45.3944 H         1 UNK         0.0600 
    147 H147        2.7676  -19.4602  -46.0301 H         1 UNK         0.0600 
    148 H148        1.3690  -19.5387  -47.0921 H         1 UNK         0.0600 
    149 H149        2.0638  -20.8354  -43.7918 H         1 UNK         0.3000 
    150 H150        2.5272  -24.0410  -42.2752 H         1 UNK         0.0600 
    151 H151        4.8405  -23.4388  -43.0137 H         1 UNK         0.0600 
    152 H152        4.5630  -22.9772  -41.3421 H         1 UNK         0.0600 
    153 H153        4.5419  -21.7519  -42.6111 H         1 UNK         0.0600 
    154 H154        2.5418  -21.4047  -41.1975 H         1 UNK         0.3000 
    155 H155       -0.9243  -20.8401  -40.9754 H         1 UNK         0.0600 
    156 H156       -0.5849  -22.3993  -39.0543 H         1 UNK         0.0600 
    157 H157       -0.5175  -20.7226  -38.5373 H         1 UNK         0.0600 
    158 H158        0.9714  -21.6536  -38.7100 H         1 UNK         0.0600 
    159 H159        1.2197  -19.4274  -39.8177 H         1 UNK         0.3000 
    160 H160        1.7015  -17.3201  -40.7660 H         1 UNK         0.0600 
    161 H161        4.1062  -17.4355  -41.5002 H         1 UNK         0.0600 
    162 H162        3.7341  -18.7912  -42.5615 H         1 UNK         0.0600 
    163 H163        3.6232  -18.9729  -40.8145 H         1 UNK         0.0600 
    164 H164        1.1999  -17.3570  -43.5893 H         1 UNK         0.3000 
    165 H165        2.1700  -13.8945  -44.0447 H         1 UNK         0.0600 
    166 H166        2.4444  -16.5322  -45.5767 H         1 UNK         0.0600 
    167 H167        2.4090  -14.9311  -46.3024 H         1 UNK         0.0600 
    168 H168        3.7117  -15.3753  -45.2152 H         1 UNK         0.0600 
    169 H169       -0.0042  -13.9386  -44.1873 H         1 UNK         0.3000 
    170 H170       -2.3412  -15.9445  -45.8615 H         1 UNK         0.0600 
    171 H171       -2.3576  -15.2355  -42.8725 H         1 UNK         0.0600 
    172 H172       -3.7099  -15.8503  -43.8237 H         1 UNK         0.0600 
    173 H173       -2.3439  -16.8866  -43.4730 H         1 UNK         0.0600 
    174 H174       -1.3338  -13.3660  -45.2768 H         1 UNK         0.3000 
    175 H175       -4.1564  -11.6345  -46.3608 H         1 UNK         0.0600 
    176 H176       -3.3997  -11.5583  -43.3934 H         1 UNK         0.0600 
    177 H177       -4.2008  -10.2669  -44.2897 H         1 UNK         0.0600 
    178 H178       -5.0191  -11.7993  -44.0364 H         1 UNK         0.0600 
    179 H179       -1.6777  -10.8823  -44.9901 H         1 UNK         0.3000 
    180 H180       -0.5984   -9.2313  -47.6438 H         1 UNK         0.0600 
    181 H181        0.4517  -10.5651  -45.0839 H         1 UNK         0.0600 
    182 H182       -0.5133   -9.0908  -45.1696 H         1 UNK         0.0600 
    183 H183        1.1053   -9.1182  -45.8372 H         1 UNK         0.0600 
    184 H184        0.9751  -10.3726  -48.6968 H         1 UNK         0.3000 
    185 H185        2.0731  -12.1102  -49.5539 H         1 UNK         0.0600 
    186 H186        4.3413  -12.7780  -48.7556 H         1 UNK         0.0600 
    187 H187        3.7863  -11.3457  -47.9021 H         1 UNK         0.0600 
    188 H188        3.7415  -12.9120  -47.1026 H         1 UNK         0.0600 
    189 H189        2.6264  -14.6933  -48.3890 H         1 UNK         0.3000 
    190 H190       -0.7205  -23.8182  -43.5869 H         1 UNK         0.3000 
    191 H191       -2.0721  -26.2330  -44.1095 H         1 UNK         0.0600 
    192 H192        0.8131  -25.7411  -43.1979 H         1 UNK         0.0600 
    193 H193       -0.5982  -25.8612  -42.1492 H         1 UNK         0.0600 
    194 H194       -0.0539  -27.2659  -43.0541 H         1 UNK         0.0600 
    195 H195        0.6749  -24.7340  -45.8151 H         1 UNK         0.3000 
    196 H196        1.1501  -26.9651  -47.6017 H         1 UNK         0.0600 
    197 H197        2.9583  -25.4206  -46.8780 H         1 UNK         0.0600 
    198 H198        2.1453  -24.0728  -47.6730 H         1 UNK         0.0600 
    199 H199        2.7903  -25.4080  -48.6224 H         1 UNK         0.0600 
    200 H200       -1.6025  -26.1145  -47.6458 H         1 UNK         0.3000 
    201 H201       -3.3348  -25.7099  -48.9830 H         1 UNK         0.0600 
    202 H202       -3.1920  -26.6075  -51.2909 H         1 UNK         0.0600 
    203 H203       -2.3607  -27.6768  -50.1730 H         1 UNK         0.0600 
    204 H204       -1.4351  -26.6032  -51.2210 H         1 UNK         0.0600 
    205 H205       -2.3347  -23.4050  -48.2427 H         1 UNK         0.3000 
    206 H206       -2.2345  -21.2181  -48.5657 H         1 UNK         0.0600 
    207 H207       -4.4780  -21.4569  -49.5978 H         1 UNK         0.0600 
    208 H208       -3.7566  -21.7099  -51.1851 H         1 UNK         0.0600 
    209 H209       -3.5856  -20.1645  -50.3803 H         1 UNK         0.0600 
    210 H210        0.0354  -22.3932  -48.9600 H         1 UNK         0.3000 
    211 H211        2.0734  -22.4888  -49.8336 H         1 UNK         0.0600 
    212 H212        2.0762  -20.0970  -49.2320 H         1 UNK         0.0600 
    213 H213        3.0370  -20.3438  -50.6778 H         1 UNK         0.0600 
    214 H214        1.4229  -19.6594  -50.8056 H         1 UNK         0.0600 
    215 H215        0.6247  -24.0659  -51.2267 H         1 UNK         0.3000 
    216 H216        0.2211  -25.1912  -53.0752 H         1 UNK         0.0600 
    217 H217        1.9635  -25.3003  -54.8236 H         1 UNK         0.0600 
    218 H218        2.6917  -23.8066  -54.2503 H         1 UNK         0.0600 
    219 H219        2.7117  -25.2484  -53.2355 H         1 UNK         0.0600 
    220 H220       -1.5049  -23.2725  -52.7929 H         1 UNK         0.3000 
    221 H221       -3.0600  -21.9892  -53.6431 H         1 UNK         0.0600 
    222 H222       -2.4224  -23.3364  -56.3196 H         1 UNK         0.0600 
    223 H223       -3.4527  -24.0072  -55.0550 H         1 UNK         0.0600 
    224 H224       -3.9277  -22.5360  -55.8867 H         1 UNK         0.0600 
    225 H225       -0.8192  -20.5527  -53.2215 H         1 UNK         0.3000 
    226 H226       -0.2267  -18.7489  -55.4438 H         1 UNK         0.0600 
    227 H227        1.4269  -19.1407  -53.6180 H         1 UNK         0.0600 
    228 H228        0.9559  -17.4489  -53.6794 H         1 UNK         0.0600 
    229 H229        0.2862  -18.4983  -52.4362 H         1 UNK         0.0600 
    230 H230       -2.6252  -19.0582  -52.9354 H         1 UNK         0.3000 
    231 H231       -4.1234  -16.7290  -53.9949 H         1 UNK         0.0600 
    232 H232       -5.0669  -16.4480  -51.6595 H         1 UNK         0.0600 
    233 H233       -3.3502  -16.0741  -51.7237 H         1 UNK         0.0600 
    234 H234       -3.8879  -17.6134  -51.0640 H         1 UNK         0.0600 
    235 H235       -6.3260  -17.2062  -54.2534 H         1 UNK         0.3000 
    236 H236       -6.9715  -20.0404  -54.5691 H         1 UNK         0.0600 
    237 H237       -7.5305  -18.3871  -56.3329 H         1 UNK         0.0600 
    238 H238       -8.9924  -19.1247  -55.7001 H         1 UNK         0.0600 
    239 H239       -8.5536  -17.4934  -55.2081 H         1 UNK         0.0600 
    240 H240       -7.5373  -17.6237  -52.1603 H         1 UNK         0.3000 
    241 H241       -8.6665  -17.4789  -50.2832 H         1 UNK         0.0600 
    242 H242      -10.2650  -17.3234  -52.9682 H         1 UNK         0.3800 
    243 H243      -11.9042  -17.2897  -52.3742 H         1 UNK         0.3800 
    244 H244       -9.4226  -19.4899  -49.0061 H         1 UNK         0.0800 
    245 H245       -9.1760  -20.4881  -50.4067 H         1 UNK         0.0800 
    246 H246       -7.2110  -17.7288  -48.2552 H         1 UNK         0.0800 
    247 H247       -7.7765  -19.0474  -47.2537 H         1 UNK         0.0800 
@<TRIPOS>BOND
     1    1    2 1    
     2    1  127 1    
     3    1  128 1    
     4    1  129 1    
     5    2    3 2    
     6    2    4 am   BACKBONE|DICT|INTERRES
     7    4    5 1    
     8    4  130 1    
     9    5    6 1    
    10    5   65 1    
    11    5  131 1    
    12    6    7 1    
    13    6  132 1    
    14    6  133 1    
    15    7    8 1    
    16    8    9 1    
    17    8  134 1    
    18    8  135 1    
    19    9   10 ar   
    20    9   14 ar   
    21   10   11 ar   
    22   10  136 1    
    23   11   12 ar   
    24   11  126 1    
    25   12   13 ar   
    26   12  137 1    
    27   13   14 ar   
    28   13   15 1    
    29   14  138 1    
    30   15   16 1    
    31   15  139 1    
    32   15  140 1    
    33   16   17 1    
    34   17   18 1    
    35   17  141 1    
    36   17  142 1    
    37   18   19 1    
    38   18   67 1    
    39   18  143 1    
    40   19   20 am   BACKBONE|DICT|INTERRES
    41   19  144 1    
    42   20   21 2    
    43   20   22 1    
    44   22   23 1    
    45   22   24 1    
    46   22  145 1    
    47   23  146 1    
    48   23  147 1    
    49   23  148 1    
    50   24   25 am   BACKBONE|DICT|INTERRES
    51   24  149 1    
    52   25   26 2    
    53   25   27 1    
    54   27   28 1    
    55   27   29 1    
    56   27  150 1    
    57   28  151 1    
    58   28  152 1    
    59   28  153 1    
    60   29   30 am   BACKBONE|DICT|INTERRES
    61   29  154 1    
    62   30   31 2    
    63   30   32 1    
    64   32   33 1    
    65   32   34 1    
    66   32  155 1    
    67   33  156 1    
    68   33  157 1    
    69   33  158 1    
    70   34   35 am   BACKBONE|DICT|INTERRES
    71   34  159 1    
    72   35   36 2    
    73   35   37 1    
    74   37   38 1    
    75   37   39 1    
    76   37  160 1    
    77   38  161 1    
    78   38  162 1    
    79   38  163 1    
    80   39   40 am   BACKBONE|DICT|INTERRES
    81   39  164 1    
    82   40   41 2    
    83   40   42 1    
    84   42   43 1    
    85   42   44 1    
    86   42  165 1    
    87   43  166 1    
    88   43  167 1    
    89   43  168 1    
    90   44   45 am   BACKBONE|DICT|INTERRES
    91   44  169 1    
    92   45   46 2    
    93   45   47 1    
    94   47   48 1    
    95   47   49 1    
    96   47  170 1    
    97   48  171 1    
    98   48  172 1    
    99   48  173 1    
   100   49   50 am   BACKBONE|DICT|INTERRES
   101   49  174 1    
   102   50   51 2    
   103   50   52 1    
   104   52   53 1    
   105   52   54 1    
   106   52  175 1    
   107   53  176 1    
   108   53  177 1    
   109   53  178 1    
   110   54   55 am   BACKBONE|DICT|INTERRES
   111   54  179 1    
   112   55   56 2    
   113   55   57 1    
   114   57   58 1    
   115   57   59 1    
   116   57  180 1    
   117   58  181 1    
   118   58  182 1    
   119   58  183 1    
   120   59   60 am   BACKBONE|DICT|INTERRES
   121   59  184 1    
   122   60   61 2    
   123   60   62 1    
   124   62   63 1    
   125   62   64 1    
   126   62  185 1    
   127   63  186 1    
   128   63  187 1    
   129   63  188 1    
   130   64   65 am   BACKBONE|DICT|INTERRES
   131   64  189 1    
   132   65   66 2    
   133   67   68 2    
   134   67   69 am   BACKBONE|DICT|INTERRES
   135   69   70 1    
   136   69  190 1    
   137   70   71 1    
   138   70   72 1    
   139   70  191 1    
   140   71  192 1    
   141   71  193 1    
   142   71  194 1    
   143   72   73 2    
   144   72   74 am   BACKBONE|DICT|INTERRES
   145   74   75 1    
   146   74  195 1    
   147   75   76 1    
   148   75   77 1    
   149   75  196 1    
   150   76  197 1    
   151   76  198 1    
   152   76  199 1    
   153   77   78 2    
   154   77   79 am   BACKBONE|DICT|INTERRES
   155   79   80 1    
   156   79  200 1    
   157   80   81 1    
   158   80   82 1    
   159   80  201 1    
   160   81  202 1    
   161   81  203 1    
   162   81  204 1    
   163   82   83 2    
   164   82   84 am   BACKBONE|DICT|INTERRES
   165   84   85 1    
   166   84  205 1    
   167   85   86 1    
   168   85   87 1    
   169   85  206 1    
   170   86  207 1    
   171   86  208 1    
   172   86  209 1    
   173   87   88 2    
   174   87   89 am   BACKBONE|DICT|INTERRES
   175   89   90 1    
   176   89  210 1    
   177   90   91 1    
   178   90   92 1    
   179   90  211 1    
   180   91  212 1    
   181   91  213 1    
   182   91  214 1    
   183   92   93 2    
   184   92   94 am   BACKBONE|DICT|INTERRES
   185   94   95 1    
   186   94  215 1    
   187   95   96 1    
   188   95   97 1    
   189   95  216 1    
   190   96  217 1    
   191   96  218 1    
   192   96  219 1    
   193   97   98 2    
   194   97   99 am   BACKBONE|DICT|INTERRES
   195   99  100 1    
   196   99  220 1    
   197  100  101 1    
   198  100  102 1    
   199  100  221 1    
   200  101  222 1    
   201  101  223 1    
   202  101  224 1    
   203  102  103 2    
   204  102  104 am   BACKBONE|DICT|INTERRES
   205  104  105 1    
   206  104  225 1    
   207  105  106 1    
   208  105  107 1    
   209  105  226 1    
   210  106  227 1    
   211  106  228 1    
   212  106  229 1    
   213  107  108 2    
   214  107  109 am   BACKBONE|DICT|INTERRES
   215  109  110 1    
   216  109  230 1    
   217  110  111 1    
   218  110  112 1    
   219  110  231 1    
   220  111  232 1    
   221  111  233 1    
   222  111  234 1    
   223  112  113 2    
   224  112  114 am   BACKBONE|DICT|INTERRES
   225  114  115 1    
   226  114  235 1    
   227  115  116 1    
   228  115  117 1    
   229  115  236 1    
   230  116  237 1    
   231  116  238 1    
   232  116  239 1    
   233  117  118 2    
   234  117  119 am   BACKBONE|DICT|INTERRES
   235  119  120 1    
   236  119  240 1    
   237  120  121 1    
   238  120  124 1    
   239  120  241 1    
   240  121  122 am   BACKBONE|DICT|INTERRES
   241  121  123 2    
   242  122  242 1    
   243  122  243 1    
   244  124  125 1    
   245  124  244 1    
   246  124  245 1    
   247  125  126 1    
   248  126  246 1    
   249  126  247 1    
@<TRIPOS>SUBSTRUCTURE
     1 UNK         1 GROUP             0       ****    0 ROOT    
