@<TRIPOS>MOLECULE
3R540
247   249    1
SMALL
USER_CHARGES


@<TRIPOS>ATOM
      1 CA          1.1087   -9.7792  -51.9811 C.3       0 UNK        -0.1800 
      2 C           2.3830  -10.4924  -51.5521 C.2       0 UNK         0.5000 
      3 O           3.4758   -9.9535  -51.7279 O.2       0 UNK        -0.5000 
      4 N           2.2460  -11.6996  -50.9881 N.am      1 UNK        -0.5000 
      5 CA          3.3603  -12.5400  -50.5225 C.3       1 UNK         0.1400 
      6 C6          2.9637  -14.0356  -50.4343 C.3       23 UNK        -0.0398 
      7 S7          2.4933  -14.7036  -52.0705 S.3       23 UNK        -0.2404 
      8 C8          0.6870  -14.8806  -51.9201 C.3       23 UNK        -0.0205 
      9 C9          0.2845  -16.3242  -51.6585 C.ar      23 UNK        -0.0193 
     10 C10        -0.2043  -17.1160  -52.7023 C.ar      23 UNK        -0.1150 
     11 C11        -0.5976  -18.4373  -52.4688 C.ar      23 UNK        -0.0193 
     12 C12        -0.4907  -18.9693  -51.1817 C.ar      23 UNK        -0.1150 
     13 C13         0.0018  -18.1895  -50.1323 C.ar      23 UNK        -0.0193 
     14 C14         0.3853  -16.8668  -50.3743 C.ar      23 UNK        -0.1150 
     15 C15         0.1058  -18.7758  -48.7365 C.3       23 UNK        -0.0205 
     16 S16         1.5302  -19.9006  -48.5946 S.3       23 UNK        -0.2404 
     17 C17         1.4339  -20.3015  -46.8179 C.3       23 UNK        -0.0398 
     18 CA          0.8783  -21.7000  -46.4450 C.3       11 UNK         0.1400 
     19 N           0.7320  -21.8072  -44.9929 N.am      11 UNK        -0.5000 
     20 C           0.4023  -22.9067  -44.3050 C.2       10 UNK         0.5000 
     21 O           0.2314  -24.0120  -44.8172 O.2       10 UNK        -0.5000 
     22 CA          0.1780  -22.7219  -42.7924 C.3       10 UNK         0.1400 
     23 CB          1.5160  -22.6868  -42.0393 C.3       10 UNK        -0.1800 
     24 N          -0.5926  -21.5148  -42.4816 N.am      10 UNK        -0.5000 
     25 C          -1.8620  -21.3107  -42.8641 C.2       9 UNK         0.5000 
     26 O          -2.5284  -22.1362  -43.4882 O.2       9 UNK        -0.5000 
     27 CA         -2.4773  -19.9381  -42.5387 C.3       9 UNK         0.1400 
     28 CB         -2.8953  -19.8584  -41.0630 C.3       9 UNK        -0.1800 
     29 N          -1.5806  -18.8281  -42.8626 N.am      9 UNK        -0.5000 
     30 C          -1.1581  -18.5329  -44.1010 C.2       8 UNK         0.5000 
     31 O          -1.5121  -19.1410  -45.1097 O.2       8 UNK        -0.5000 
     32 CA         -0.1242  -17.4032  -44.2337 C.3       8 UNK         0.1400 
     33 CB         -0.8065  -16.0290  -44.1622 C.3       8 UNK        -0.1800 
     34 N           0.9212  -17.4869  -43.2173 N.am      8 UNK        -0.5000 
     35 C           1.7774  -18.5041  -43.0572 C.2       7 UNK         0.5000 
     36 O           1.8169  -19.4898  -43.7902 O.2       7 UNK        -0.5000 
     37 CA          2.7100  -18.4329  -41.8378 C.3       7 UNK         0.1400 
     38 CB          3.9167  -17.5227  -42.1132 C.3       7 UNK        -0.1800 
     39 N           2.0060  -17.9728  -40.6417 N.am      7 UNK        -0.5000 
     40 C           1.0651  -18.6771  -39.9979 C.2       6 UNK         0.5000 
     41 O           0.7087  -19.8083  -40.3305 O.2       6 UNK        -0.5000 
     42 CA          0.3900  -17.9839  -38.8001 C.3       6 UNK         0.1400 
     43 CB          1.2470  -18.1327  -37.5342 C.3       6 UNK        -0.1800 
     44 N           0.1272  -16.5637  -39.0451 N.am      6 UNK        -0.5000 
     45 C          -0.7871  -16.1106  -39.9136 C.2       5 UNK         0.5000 
     46 O          -1.5096  -16.8444  -40.5888 O.2       5 UNK        -0.5000 
     47 CA         -0.8784  -14.5811  -40.0919 C.3       5 UNK         0.1400 
     48 CB         -1.7074  -13.9542  -38.9607 C.3       5 UNK        -0.1800 
     49 N           0.4156  -13.8907  -40.1890 N.am      5 UNK        -0.5000 
     50 C           1.3786  -14.1949  -41.0688 C.2       4 UNK         0.5000 
     51 O           1.3353  -15.1808  -41.8031 O.2       4 UNK        -0.5000 
     52 CA          2.6107  -13.2725  -41.1291 C.3       4 UNK         0.1400 
     53 CB          3.5998  -13.6334  -40.0100 C.3       4 UNK        -0.1800 
     54 N           3.2936  -13.4034  -42.4201 N.am      4 UNK        -0.5000 
     55 C           2.7906  -12.9887  -43.5903 C.2       3 UNK         0.5000 
     56 O           1.7773  -12.2915  -43.6941 O.2       3 UNK        -0.5000 
     57 CA          3.5176  -13.4829  -44.8561 C.3       3 UNK         0.1400 
     58 CB          2.9639  -14.8489  -45.2965 C.3       3 UNK        -0.1800 
     59 N           3.3715  -12.5409  -45.9645 N.am      3 UNK        -0.5000 
     60 C           4.0101  -11.3679  -46.0540 C.2       2 UNK         0.5000 
     61 O           4.8554  -10.9934  -45.2382 O.2       2 UNK        -0.5000 
     62 CA          3.6283  -10.4630  -47.2467 C.3       2 UNK         0.1400 
     63 CB          4.7190   -9.4236  -47.5817 C.3       2 UNK        -0.1800 
     64 N           3.2252  -11.1911  -48.4585 N.am      2 UNK        -0.5000 
     65 C           3.9692  -12.0363  -49.1924 C.2       1 UNK         0.5000 
     66 O           5.1006  -12.4052  -48.8754 O.2       1 UNK        -0.5000 
     67 C          -0.4376  -22.0599  -47.1698 C.2       11 UNK         0.5000 
     68 O          -0.4192  -22.8880  -48.0806 O.2       11 UNK        -0.5000 
     69 N          -1.5604  -21.4742  -46.7277 N.am      12 UNK        -0.5000 
     70 CA         -2.8960  -21.7511  -47.2558 C.3       12 UNK         0.1400 
     71 CB         -3.9157  -20.7794  -46.6463 C.3       12 UNK        -0.1800 
     72 C          -3.3317  -23.2092  -47.0367 C.2       12 UNK         0.5000 
     73 O          -3.8909  -23.8097  -47.9542 O.2       12 UNK        -0.5000 
     74 N          -3.0381  -23.7642  -45.8522 N.am      13 UNK        -0.5000 
     75 CA         -3.2791  -25.1663  -45.5097 C.3       13 UNK         0.1400 
     76 CB         -3.0068  -25.3956  -44.0159 C.3       13 UNK        -0.1800 
     77 C          -2.4568  -26.1356  -46.3779 C.2       13 UNK         0.5000 
     78 O          -3.0166  -27.1031  -46.8940 O.2       13 UNK        -0.5000 
     79 N          -1.1654  -25.8325  -46.5759 N.am      14 UNK        -0.5000 
     80 CA         -0.2572  -26.5737  -47.4578 C.3       14 UNK         0.1400 
     81 CB          1.1737  -26.0427  -47.2852 C.3       14 UNK        -0.1800 
     82 C          -0.6821  -26.5282  -48.9392 C.2       14 UNK         0.5000 
     83 O          -0.5049  -27.5141  -49.6550 O.2       14 UNK        -0.5000 
     84 N          -1.2830  -25.4058  -49.3543 N.am      15 UNK        -0.5000 
     85 CA         -1.9012  -25.1998  -50.6648 C.3       15 UNK         0.1400 
     86 CB         -1.9385  -23.6900  -50.9573 C.3       15 UNK        -0.1800 
     87 C          -3.3034  -25.8389  -50.8028 C.2       15 UNK         0.5000 
     88 O          -3.9303  -25.6619  -51.8467 O.2       15 UNK        -0.5000 
     89 N          -3.7653  -26.5684  -49.7740 N.am      16 UNK        -0.5000 
     90 CA         -5.0428  -27.2825  -49.6763 C.3       16 UNK         0.1400 
     91 CB         -5.1639  -28.3726  -50.7628 C.3       16 UNK        -0.1800 
     92 C          -6.2484  -26.3240  -49.6240 C.2       16 UNK         0.5000 
     93 O          -7.1917  -26.4654  -50.4038 O.2       16 UNK        -0.5000 
     94 N          -6.1783  -25.3705  -48.6837 N.am      17 UNK        -0.5000 
     95 CA         -7.1171  -24.2681  -48.4448 C.3       17 UNK         0.1400 
     96 CB         -8.5341  -24.7804  -48.1086 C.3       17 UNK        -0.1800 
     97 C          -7.0785  -23.2394  -49.5918 C.2       17 UNK         0.5000 
     98 O          -8.1263  -22.8101  -50.0786 O.2       17 UNK        -0.5000 
     99 N          -5.8454  -22.8768  -49.9770 N.am      18 UNK        -0.5000 
    100 CA        -5.4361  -22.0413  -51.1107 C.3       18 UNK         0.1400 
    101 CB        -6.0985  -20.6501  -51.0740 C.3       18 UNK        -0.1800 
    102 C         -5.6406  -22.7330  -52.4738 C.2       18 UNK         0.5000 
    103 O         -6.5775  -23.5094  -52.6650 O.2       18 UNK        -0.5000 
    104 N         -4.7545  -22.4076  -53.4215 N.am      19 UNK        -0.5000 
    105 CA        -4.7023  -22.9989  -54.7613 C.3       19 UNK         0.1400 
    106 CB        -3.2394  -22.9801  -55.2395 C.3       19 UNK        -0.1800 
    107 C         -5.6261  -22.2974  -55.7801 C.2       19 UNK         0.5000 
    108 O         -5.5152  -22.5712  -56.9756 O.2       19 UNK        -0.5000 
    109 N         -6.4764  -21.3685  -55.3142 N.am      20 UNK        -0.5000 
    110 CA        -7.4098  -20.5002  -56.0533 C.3       20 UNK         0.1400 
    111 CB        -8.4086  -21.3144  -56.8972 C.3       20 UNK        -0.1800 
    112 C         -6.7175  -19.4098  -56.8962 C.2       20 UNK         0.5000 
    113 O         -7.1891  -18.2725  -56.9243 O.2       20 UNK        -0.5000 
    114 N         -5.5747  -19.7478  -57.5057 N.am      21 UNK        -0.5000 
    115 CA        -4.6603  -18.8420  -58.2067 C.3       21 UNK         0.1400 
    116 CB        -3.6236  -19.6884  -58.9619 C.3       21 UNK        -0.1800 
    117 C         -3.9567  -17.8292  -57.2762 C.2       21 UNK         0.5000 
    118 O         -3.3545  -16.8739  -57.7675 O.2       21 UNK        -0.5000 
    119 N         -4.0459  -18.0540  -55.9586 N.am      22 UNK        -0.5000 
    120 CA        -3.5270  -17.1888  -54.8889 C.3       22 UNK         0.1400 
    121 C         -4.1827  -15.7778  -54.8081 C.2       22 UNK         0.5000 
    122 N         -5.3557  -15.5547  -55.3902 N.am      22 UNK        -0.7600 
    123 O         -3.6156  -14.8715  -54.2048 O.2       22 UNK        -0.5000 
    124 C124       -3.6094  -17.8814  -53.5022 C.3       23 UNK        -0.0398 
    125 S125       -2.9336  -19.5791  -53.4552 S.3       23 UNK        -0.2404 
    126 C126       -1.1415  -19.2905  -53.6042 C.3       23 UNK        -0.0205 
    127 H127        0.2197  -10.3743  -51.7706 H         1 UNK         0.0600 
    128 H128        1.1353   -9.5759  -53.0516 H         1 UNK         0.0600 
    129 H129        1.0149   -8.8294  -51.4547 H         1 UNK         0.0600 
    130 H130        1.3226  -12.0939  -50.8849 H         1 UNK         0.3000 
    131 H131        4.1605  -12.4636  -51.2623 H         1 UNK         0.0600 
    132 H132        3.8049  -14.6308  -50.0742 H         1 UNK         0.0800 
    133 H133        2.1592  -14.1855  -49.7132 H         1 UNK         0.0800 
    134 H134        0.2954  -14.2357  -51.1328 H         1 UNK         0.0800 
    135 H135        0.2294  -14.5284  -52.8460 H         1 UNK         0.0800 
    136 H136       -0.2853  -16.7000  -53.6967 H         1 UNK         0.1150 
    137 H137       -0.7927  -19.9909  -50.9960 H         1 UNK         0.1150 
    138 H138        0.7639  -16.2595  -49.5646 H         1 UNK         0.1150 
    139 H139        0.1959  -17.9769  -47.9987 H         1 UNK         0.0800 
    140 H140       -0.8138  -19.3124  -48.4990 H         1 UNK         0.0800 
    141 H141        0.8465  -19.5294  -46.3239 H         1 UNK         0.0800 
    142 H142        2.4404  -20.1994  -46.4097 H         1 UNK         0.0800 
    143 H143        1.6196  -22.4419  -46.7488 H         1 UNK         0.0600 
    144 H144        0.9096  -20.9528  -44.4698 H         1 UNK         0.3000 
    145 H145       -0.3906  -23.5823  -42.4340 H         1 UNK         0.0600 
    146 H146        1.3594  -22.6321  -40.9619 H         1 UNK         0.0600 
    147 H147        2.1002  -23.5860  -42.2389 H         1 UNK         0.0600 
    148 H148        2.1219  -21.8288  -42.3315 H         1 UNK         0.0600 
    149 H149       -0.1204  -20.7973  -41.9413 H         1 UNK         0.3000 
    150 H150       -3.3756  -19.8268  -43.1495 H         1 UNK         0.0600 
    151 H151       -3.5702  -20.6749  -40.8034 H         1 UNK         0.0600 
    152 H152       -3.4181  -18.9254  -40.8527 H         1 UNK         0.0600 
    153 H153       -2.0358  -19.9168  -40.3950 H         1 UNK         0.0600 
    154 H154       -1.2757  -18.2477  -42.0885 H         1 UNK         0.3000 
    155 H155        0.3548  -17.4923  -45.2100 H         1 UNK         0.0600 
    156 H156       -1.3016  -15.8746  -43.2033 H         1 UNK         0.0600 
    157 H157       -0.0872  -15.2213  -44.2957 H         1 UNK         0.0600 
    158 H158       -1.5612  -15.9268  -44.9429 H         1 UNK         0.0600 
    159 H159        0.9981  -16.6894  -42.5859 H         1 UNK         0.3000 
    160 H160        3.0836  -19.4410  -41.6464 H         1 UNK         0.0600 
    161 H161        3.6175  -16.4874  -42.2729 H         1 UNK         0.0600 
    162 H162        4.4560  -17.8492  -43.0033 H         1 UNK         0.0600 
    163 H163        4.6209  -17.5418  -41.2814 H         1 UNK         0.0600 
    164 H164        2.1848  -17.0246  -40.3469 H         1 UNK         0.3000 
    165 H165       -0.5653  -18.4831  -38.6237 H         1 UNK         0.0600 
    166 H166        0.7407  -17.7141  -36.6643 H         1 UNK         0.0600 
    167 H167        1.4451  -19.1837  -37.3191 H         1 UNK         0.0600 
    168 H168        2.2102  -17.6312  -37.6363 H         1 UNK         0.0600 
    169 H169        0.6874  -15.8949  -38.5373 H         1 UNK         0.3000 
    170 H170       -1.4051  -14.4016  -41.0314 H         1 UNK         0.0600 
    171 H171       -1.2084  -14.0479  -37.9954 H         1 UNK         0.0600 
    172 H172       -1.8883  -12.8949  -39.1440 H         1 UNK         0.0600 
    173 H173       -2.6816  -14.4379  -38.8753 H         1 UNK         0.0600 
    174 H174        0.5330  -13.0786  -39.6003 H         1 UNK         0.3000 
    175 H175        2.2852  -12.2379  -41.0037 H         1 UNK         0.0600 
    176 H176        4.4752  -12.9840  -40.0336 H         1 UNK         0.0600 
    177 H177        3.9453  -14.6648  -40.0938 H         1 UNK         0.0600 
    178 H178        3.1406  -13.5200  -39.0273 H         1 UNK         0.0600 
    179 H179        4.1143  -13.9901  -42.4272 H         1 UNK         0.3000 
    180 H180        4.5801  -13.5950  -44.6294 H         1 UNK         0.0600 
    181 H181        1.9151  -14.7831  -45.5868 H         1 UNK         0.0600 
    182 H182        3.0334  -15.5818  -44.4922 H         1 UNK         0.0600 
    183 H183        3.5216  -15.2451  -46.1453 H         1 UNK         0.0600 
    184 H184        2.6673  -12.7563  -46.6536 H         1 UNK         0.3000 
    185 H185        2.7452   -9.9106  -46.9227 H         1 UNK         0.0600 
    186 H186        4.9163   -8.7718  -46.7299 H         1 UNK         0.0600 
    187 H187        5.6612   -9.8999  -47.8544 H         1 UNK         0.0600 
    188 H188        4.4138   -8.7858  -48.4115 H         1 UNK         0.0600 
    189 H189        2.3069  -10.9643  -48.8132 H         1 UNK         0.3000 
    190 H190       -1.5010  -20.7714  -45.9940 H         1 UNK         0.3000 
    191 H191       -2.8674  -21.5737  -48.3326 H         1 UNK         0.0600 
    192 H192       -3.6601  -19.7455  -46.8788 H         1 UNK         0.0600 
    193 H193       -4.9159  -20.9638  -47.0406 H         1 UNK         0.0600 
    194 H194       -3.9648  -20.8753  -45.5612 H         1 UNK         0.0600 
    195 H195       -2.6254  -23.1834  -45.1275 H         1 UNK         0.3000 
    196 H196       -4.3354  -25.3739  -45.6931 H         1 UNK         0.0600 
    197 H197       -3.2020  -26.4320  -43.7378 H         1 UNK         0.0600 
    198 H198       -3.6483  -24.7667  -43.3985 H         1 UNK         0.0600 
    199 H199       -1.9722  -25.1745  -43.7540 H         1 UNK         0.0600 
    200 H200       -0.7669  -25.0382  -46.0811 H         1 UNK         0.3000 
    201 H201       -0.2714  -27.6194  -47.1440 H         1 UNK         0.0600 
    202 H202        1.5108  -26.1475  -46.2539 H         1 UNK         0.0600 
    203 H203        1.2474  -24.9889  -47.5550 H         1 UNK         0.0600 
    204 H204        1.8741  -26.5933  -47.9143 H         1 UNK         0.0600 
    205 H205       -1.3175  -24.6184  -48.7149 H         1 UNK         0.3000 
    206 H206       -1.2688  -25.6681  -51.4215 H         1 UNK         0.0600 
    207 H207       -0.9352  -23.2636  -50.9476 H         1 UNK         0.0600 
    208 H208       -2.3664  -23.4840  -51.9387 H         1 UNK         0.0600 
    209 H209       -2.5305  -23.1559  -50.2160 H         1 UNK         0.0600 
    210 H210       -3.1853  -26.6306  -48.9457 H         1 UNK         0.3000 
    211 H211       -5.0259  -27.7956  -48.7137 H         1 UNK         0.0600 
    212 H212       -5.2464  -27.9477  -51.7634 H         1 UNK         0.0600 
    213 H213       -6.0499  -28.9868  -50.5979 H         1 UNK         0.0600 
    214 H214       -4.3010  -29.0384  -50.7505 H         1 UNK         0.0600 
    215 H215       -5.3076  -25.2916  -48.1706 H         1 UNK         0.3000 
    216 H216       -6.7480  -23.7465  -47.5604 H         1 UNK         0.0600 
    217 H217       -9.1746  -23.9595  -47.7845 H         1 UNK         0.0600 
    218 H218       -8.5081  -25.5105  -47.2998 H         1 UNK         0.0600 
    219 H219       -9.0170  -25.2463  -48.9677 H         1 UNK         0.0600 
    220 H220       -5.0807  -23.3124  -49.4712 H         1 UNK         0.3000 
    221 H221       -4.3644  -21.8887  -50.9809 H         1 UNK         0.0600 
    222 H222       -7.1677  -20.6987  -51.2808 H         1 UNK         0.0600 
    223 H223       -5.9639  -20.1745  -50.1024 H         1 UNK         0.0600 
    224 H224       -5.6567  -19.9900  -51.8208 H         1 UNK         0.0600 
    225 H225       -4.0410  -21.7199  -53.2172 H         1 UNK         0.3000 
    226 H226       -5.0210  -24.0418  -54.7033 H         1 UNK         0.0600 
    227 H227       -2.5845  -23.4799  -54.5256 H         1 UNK         0.0600 
    228 H228       -3.1296  -23.4999  -56.1920 H         1 UNK         0.0600 
    229 H229       -2.8723  -21.9628  -55.3783 H         1 UNK         0.0600 
    230 H230       -6.4652  -21.2224  -54.3153 H         1 UNK         0.3000 
    231 H231       -7.9858  -19.9775  -55.2879 H         1 UNK         0.0600 
    232 H232       -7.9229  -21.8299  -57.7259 H         1 UNK         0.0600 
    233 H233       -9.1723  -20.6641  -57.3255 H         1 UNK         0.0600 
    234 H234       -8.9206  -22.0610  -56.2902 H         1 UNK         0.0600 
    235 H235       -5.2985  -20.7238  -57.4508 H         1 UNK         0.3000 
    236 H236       -5.2394  -18.2703  -58.9344 H         1 UNK         0.0600 
    237 H237       -4.1054  -20.3619  -59.6710 H         1 UNK         0.0600 
    238 H238       -2.9386  -19.0570  -59.5292 H         1 UNK         0.0600 
    239 H239       -3.0254  -20.2928  -58.2786 H         1 UNK         0.0600 
    240 H240       -4.5394  -18.8789  -55.6553 H         1 UNK         0.3000 
    241 H241       -2.4733  -17.0157  -55.1129 H         1 UNK         0.0600 
    242 H242       -5.8336  -16.2913  -55.8880 H         1 UNK         0.3800 
    243 H243       -5.7703  -14.6377  -55.3346 H         1 UNK         0.3800 
    244 H244       -3.1077  -17.2811  -52.7417 H         1 UNK         0.0800 
    245 H245       -4.6510  -17.9461  -53.1831 H         1 UNK         0.0800 
    246 H246       -0.9270  -18.8353  -54.5720 H         1 UNK         0.0800 
    247 H247       -0.6304  -20.2543  -53.6040 H         1 UNK         0.0800 
@<TRIPOS>BOND
     1    1    2 1    
     2    1  127 1    
     3    1  128 1    
     4    1  129 1    
     5    2    3 2    
     6    2    4 am   BACKBONE|DICT|INTERRES
     7    4    5 1    
     8    4  130 1    
     9    5    6 1    
    10    5   65 1    
    11    5  131 1    
    12    6    7 1    
    13    6  132 1    
    14    6  133 1    
    15    7    8 1    
    16    8    9 1    
    17    8  134 1    
    18    8  135 1    
    19    9   10 ar   
    20    9   14 ar   
    21   10   11 ar   
    22   10  136 1    
    23   11   12 ar   
    24   11  126 1    
    25   12   13 ar   
    26   12  137 1    
    27   13   14 ar   
    28   13   15 1    
    29   14  138 1    
    30   15   16 1    
    31   15  139 1    
    32   15  140 1    
    33   16   17 1    
    34   17   18 1    
    35   17  141 1    
    36   17  142 1    
    37   18   19 1    
    38   18   67 1    
    39   18  143 1    
    40   19   20 am   BACKBONE|DICT|INTERRES
    41   19  144 1    
    42   20   21 2    
    43   20   22 1    
    44   22   23 1    
    45   22   24 1    
    46   22  145 1    
    47   23  146 1    
    48   23  147 1    
    49   23  148 1    
    50   24   25 am   BACKBONE|DICT|INTERRES
    51   24  149 1    
    52   25   26 2    
    53   25   27 1    
    54   27   28 1    
    55   27   29 1    
    56   27  150 1    
    57   28  151 1    
    58   28  152 1    
    59   28  153 1    
    60   29   30 am   BACKBONE|DICT|INTERRES
    61   29  154 1    
    62   30   31 2    
    63   30   32 1    
    64   32   33 1    
    65   32   34 1    
    66   32  155 1    
    67   33  156 1    
    68   33  157 1    
    69   33  158 1    
    70   34   35 am   BACKBONE|DICT|INTERRES
    71   34  159 1    
    72   35   36 2    
    73   35   37 1    
    74   37   38 1    
    75   37   39 1    
    76   37  160 1    
    77   38  161 1    
    78   38  162 1    
    79   38  163 1    
    80   39   40 am   BACKBONE|DICT|INTERRES
    81   39  164 1    
    82   40   41 2    
    83   40   42 1    
    84   42   43 1    
    85   42   44 1    
    86   42  165 1    
    87   43  166 1    
    88   43  167 1    
    89   43  168 1    
    90   44   45 am   BACKBONE|DICT|INTERRES
    91   44  169 1    
    92   45   46 2    
    93   45   47 1    
    94   47   48 1    
    95   47   49 1    
    96   47  170 1    
    97   48  171 1    
    98   48  172 1    
    99   48  173 1    
   100   49   50 am   BACKBONE|DICT|INTERRES
   101   49  174 1    
   102   50   51 2    
   103   50   52 1    
   104   52   53 1    
   105   52   54 1    
   106   52  175 1    
   107   53  176 1    
   108   53  177 1    
   109   53  178 1    
   110   54   55 am   BACKBONE|DICT|INTERRES
   111   54  179 1    
   112   55   56 2    
   113   55   57 1    
   114   57   58 1    
   115   57   59 1    
   116   57  180 1    
   117   58  181 1    
   118   58  182 1    
   119   58  183 1    
   120   59   60 am   BACKBONE|DICT|INTERRES
   121   59  184 1    
   122   60   61 2    
   123   60   62 1    
   124   62   63 1    
   125   62   64 1    
   126   62  185 1    
   127   63  186 1    
   128   63  187 1    
   129   63  188 1    
   130   64   65 am   BACKBONE|DICT|INTERRES
   131   64  189 1    
   132   65   66 2    
   133   67   68 2    
   134   67   69 am   BACKBONE|DICT|INTERRES
   135   69   70 1    
   136   69  190 1    
   137   70   71 1    
   138   70   72 1    
   139   70  191 1    
   140   71  192 1    
   141   71  193 1    
   142   71  194 1    
   143   72   73 2    
   144   72   74 am   BACKBONE|DICT|INTERRES
   145   74   75 1    
   146   74  195 1    
   147   75   76 1    
   148   75   77 1    
   149   75  196 1    
   150   76  197 1    
   151   76  198 1    
   152   76  199 1    
   153   77   78 2    
   154   77   79 am   BACKBONE|DICT|INTERRES
   155   79   80 1    
   156   79  200 1    
   157   80   81 1    
   158   80   82 1    
   159   80  201 1    
   160   81  202 1    
   161   81  203 1    
   162   81  204 1    
   163   82   83 2    
   164   82   84 am   BACKBONE|DICT|INTERRES
   165   84   85 1    
   166   84  205 1    
   167   85   86 1    
   168   85   87 1    
   169   85  206 1    
   170   86  207 1    
   171   86  208 1    
   172   86  209 1    
   173   87   88 2    
   174   87   89 am   BACKBONE|DICT|INTERRES
   175   89   90 1    
   176   89  210 1    
   177   90   91 1    
   178   90   92 1    
   179   90  211 1    
   180   91  212 1    
   181   91  213 1    
   182   91  214 1    
   183   92   93 2    
   184   92   94 am   BACKBONE|DICT|INTERRES
   185   94   95 1    
   186   94  215 1    
   187   95   96 1    
   188   95   97 1    
   189   95  216 1    
   190   96  217 1    
   191   96  218 1    
   192   96  219 1    
   193   97   98 2    
   194   97   99 am   BACKBONE|DICT|INTERRES
   195   99  100 1    
   196   99  220 1    
   197  100  101 1    
   198  100  102 1    
   199  100  221 1    
   200  101  222 1    
   201  101  223 1    
   202  101  224 1    
   203  102  103 2    
   204  102  104 am   BACKBONE|DICT|INTERRES
   205  104  105 1    
   206  104  225 1    
   207  105  106 1    
   208  105  107 1    
   209  105  226 1    
   210  106  227 1    
   211  106  228 1    
   212  106  229 1    
   213  107  108 2    
   214  107  109 am   BACKBONE|DICT|INTERRES
   215  109  110 1    
   216  109  230 1    
   217  110  111 1    
   218  110  112 1    
   219  110  231 1    
   220  111  232 1    
   221  111  233 1    
   222  111  234 1    
   223  112  113 2    
   224  112  114 am   BACKBONE|DICT|INTERRES
   225  114  115 1    
   226  114  235 1    
   227  115  116 1    
   228  115  117 1    
   229  115  236 1    
   230  116  237 1    
   231  116  238 1    
   232  116  239 1    
   233  117  118 2    
   234  117  119 am   BACKBONE|DICT|INTERRES
   235  119  120 1    
   236  119  240 1    
   237  120  121 1    
   238  120  124 1    
   239  120  241 1    
   240  121  122 am   BACKBONE|DICT|INTERRES
   241  121  123 2    
   242  122  242 1    
   243  122  243 1    
   244  124  125 1    
   245  124  244 1    
   246  124  245 1    
   247  125  126 1    
   248  126  246 1    
   249  126  247 1    
@<TRIPOS>SUBSTRUCTURE
     1 UNK         1 GROUP             0       ****    0 ROOT    
