@<TRIPOS>MOLECULE
3R540
247   249    1
SMALL
USER_CHARGES


@<TRIPOS>ATOM
      1 CA          5.2195  -13.4334  -50.8316 C.3       0 UNK        -0.1800 
      2 C           4.5453  -13.0430  -49.5240 C.2       0 UNK         0.5000 
      3 O           4.1199  -11.8977  -49.3769 O.2       0 UNK        -0.5000 
      4 N           4.4460  -13.9949  -48.5858 N.am      1 UNK        -0.5000 
      5 CA          3.8410  -13.8572  -47.2555 C.3       1 UNK         0.1400 
      6 C6          2.3029  -13.6386  -47.2841 C.3       23 UNK        -0.0398 
      7 S7          1.4105  -15.1839  -47.6354 S.3       23 UNK        -0.2404 
      8 C8          1.0403  -15.0099  -49.4011 C.3       23 UNK        -0.0205 
      9 C9          0.2464  -16.2081  -49.8921 C.ar      23 UNK        -0.0193 
     10 C10        -1.1302  -16.1048  -50.1082 C.ar      23 UNK        -0.1150 
     11 C11        -1.8576  -17.2038  -50.5728 C.ar      23 UNK        -0.0193 
     12 C12        -1.1980  -18.4110  -50.8204 C.ar      23 UNK        -0.1150 
     13 C13         0.1743  -18.5361  -50.5790 C.ar      23 UNK        -0.0193 
     14 C14         0.8911  -17.4265  -50.1230 C.ar      23 UNK        -0.1150 
     15 C15         0.8964  -19.8554  -50.8280 C.3       23 UNK        -0.0205 
     16 S16         0.0768  -21.2860  -50.0506 S.3       23 UNK        -0.2404 
     17 C17         0.1090  -20.8384  -48.2785 C.3       23 UNK        -0.0398 
     18 CA          0.0807  -22.0815  -47.3544 C.3       11 UNK         0.1400 
     19 N           0.4195  -21.7547  -45.9662 N.am      11 UNK        -0.5000 
     20 C           0.6112  -22.6616  -44.9963 C.2       10 UNK         0.5000 
     21 O           0.5901  -23.8775  -45.1849 O.2       10 UNK        -0.5000 
     22 CA          0.7910  -22.1277  -43.5638 C.3       10 UNK         0.1400 
     23 CB          2.2363  -21.6693  -43.3218 C.3       10 UNK        -0.1800 
     24 N          -0.1432  -21.0441  -43.2519 N.am      10 UNK        -0.5000 
     25 C          -1.4761  -21.1916  -43.2105 C.2       9 UNK         0.5000 
     26 O          -2.0457  -22.2706  -43.3653 O.2       9 UNK        -0.5000 
     27 CA         -2.3207  -19.9220  -43.0055 C.3       9 UNK         0.1400 
     28 CB         -2.4098  -19.5646  -41.5148 C.3       9 UNK        -0.1800 
     29 N          -1.8147  -18.7767  -43.7619 N.am      9 UNK        -0.5000 
     30 C          -1.7524  -18.7091  -45.1003 C.2       8 UNK         0.5000 
     31 O          -2.1693  -19.5925  -45.8493 O.2       8 UNK        -0.5000 
     32 CA         -1.0440  -17.4787  -45.6981 C.3       8 UNK         0.1400 
     33 CB         -1.9719  -16.2560  -45.7197 C.3       8 UNK        -0.1800 
     34 N           0.1868  -17.1550  -44.9754 N.am      8 UNK        -0.5000 
     35 C           1.2592  -17.9579  -44.9314 C.2       7 UNK         0.5000 
     36 O           1.3372  -19.0272  -45.5368 O.2       7 UNK        -0.5000 
     37 CA          2.4153  -17.5226  -44.0161 C.3       7 UNK         0.1400 
     38 CB          3.3616  -16.5575  -44.7398 C.3       7 UNK        -0.1800 
     39 N           1.9314  -16.9114  -42.7787 N.am      7 UNK        -0.5000 
     40 C           1.3738  -17.6034  -41.7755 C.2       6 UNK         0.5000 
     41 O           1.2534  -18.8282  -41.7772 O.2       6 UNK        -0.5000 
     42 CA          0.8176  -16.7894  -40.5934 C.3       6 UNK         0.1400 
     43 CB          1.9206  -16.4964  -39.5668 C.3       6 UNK        -0.1800 
     44 N           0.1943  -15.5352  -41.0195 N.am      6 UNK        -0.5000 
     45 C          -0.9422  -15.4718  -41.7287 C.2       5 UNK         0.5000 
     46 O          -1.5833  -16.4634  -42.0724 O.2       5 UNK        -0.5000 
     47 CA         -1.4335  -14.0795  -42.1652 C.3       5 UNK         0.1400 
     48 CB         -2.4152  -13.5095  -41.1310 C.3       5 UNK        -0.1800 
     49 N          -0.3635  -13.1086  -42.3969 N.am      5 UNK        -0.5000 
     50 C           0.6388  -13.2472  -43.2748 C.2       4 UNK         0.5000 
     51 O           0.7988  -14.2516  -43.9720 O.2       4 UNK        -0.5000 
     52 CA          1.6448  -12.0824  -43.3859 C.3       4 UNK         0.1400 
     53 CB          1.3140  -10.8633  -42.4950 C.3       4 UNK        -0.1800 
     54 N           3.0210  -12.5239  -43.1490 N.am      4 UNK        -0.5000 
     55 C           3.5045  -13.1267  -42.0509 C.2       3 UNK         0.5000 
     56 O           2.8095  -13.4118  -41.0742 O.2       3 UNK        -0.5000 
     57 CA          5.0073  -13.4855  -42.0364 C.3       3 UNK         0.1400 
     58 CB          5.2370  -14.9158  -41.5177 C.3       3 UNK        -0.1800 
     59 N           5.6312  -13.3492  -43.3567 N.am      3 UNK        -0.5000 
     60 C           6.2803  -12.2612  -43.7968 C.2       2 UNK         0.5000 
     61 O           6.4881  -11.2621  -43.1081 O.2       2 UNK        -0.5000 
     62 CA          6.7419  -12.2766  -45.2706 C.3       2 UNK         0.1400 
     63 CB          8.1856  -12.7904  -45.3773 C.3       2 UNK        -0.1800 
     64 N           5.8803  -13.0769  -46.1493 N.am      2 UNK        -0.5000 
     65 C           4.5846  -12.8234  -46.3842 C.2       1 UNK         0.5000 
     66 O           3.9899  -11.8523  -45.9138 O.2       1 UNK        -0.5000 
     67 C          -1.2598  -22.8431  -47.4438 C.2       11 UNK         0.5000 
     68 O          -1.3103  -23.8910  -48.0845 O.2       11 UNK        -0.5000 
     69 N          -2.2970  -22.3374  -46.7601 N.am      12 UNK        -0.5000 
     70 CA         -3.6319  -22.9401  -46.6975 C.3       12 UNK         0.1400 
     71 CB         -4.5965  -21.9565  -46.0193 C.3       12 UNK        -0.1800 
     72 C          -3.6752  -24.3158  -46.0018 C.2       12 UNK         0.5000 
     73 O          -4.5553  -25.1206  -46.3090 O.2       12 UNK        -0.5000 
     74 N          -2.7382  -24.5682  -45.0798 N.am      13 UNK        -0.5000 
     75 CA         -2.5391  -25.8712  -44.4500 C.3       13 UNK         0.1400 
     76 CB         -1.7739  -25.6903  -43.1299 C.3       13 UNK        -0.1800 
     77 C          -1.8013  -26.8498  -45.3824 C.2       13 UNK         0.5000 
     78 O          -2.1562  -28.0284  -45.4276 O.2       13 UNK        -0.5000 
     79 N          -0.7839  -26.3504  -46.0968 N.am      14 UNK        -0.5000 
     80 CA          0.0701  -27.1321  -46.9897 C.3       14 UNK         0.1400 
     81 CB          1.3568  -26.3421  -47.2756 C.3       14 UNK        -0.1800 
     82 C          -0.6116  -27.5368  -48.3094 C.2       14 UNK         0.5000 
     83 O          -0.3688  -28.6439  -48.7930 O.2       14 UNK        -0.5000 
     84 N          -1.4244  -26.6423  -48.8819 N.am      15 UNK        -0.5000 
     85 CA         -2.0530  -26.8019  -50.1905 C.3       15 UNK         0.1400 
     86 CB         -1.0873  -26.2849  -51.2739 C.3       15 UNK        -0.1800 
     87 C          -3.3924  -26.0526  -50.2453 C.2       15 UNK         0.5000 
     88 O          -3.7198  -25.2834  -49.3404 O.2       15 UNK        -0.5000 
     89 N          -4.1462  -26.2697  -51.3298 N.am      16 UNK        -0.5000 
     90 CA         -5.4069  -25.5894  -51.6270 C.3       16 UNK         0.1400 
     91 CB         -6.1948  -26.4278  -52.6488 C.3       16 UNK        -0.1800 
     92 C          -5.1576  -24.1461  -52.1122 C.2       16 UNK         0.5000 
     93 O          -5.3325  -23.8485  -53.2937 O.2       16 UNK        -0.5000 
     94 N          -4.7354  -23.2790  -51.1844 N.am      17 UNK        -0.5000 
     95 CA         -4.3371  -21.8850  -51.4075 C.3       17 UNK         0.1400 
     96 CB         -3.8739  -21.2960  -50.0678 C.3       17 UNK        -0.1800 
     97 C          -5.4193  -20.9888  -52.0441 C.2       17 UNK         0.5000 
     98 O          -5.0820  -20.0126  -52.7137 O.2       17 UNK        -0.5000 
     99 N          -6.6980  -21.3309  -51.8393 N.am      18 UNK        -0.5000 
    100 CA        -7.8309  -20.6695  -52.4845 C.3       18 UNK         0.1400 
    101 CB        -9.1212  -21.0001  -51.7200 C.3       18 UNK        -0.1800 
    102 C         -7.9572  -21.0619  -53.9683 C.2       18 UNK         0.5000 
    103 O         -8.1534  -20.1885  -54.8136 O.2       18 UNK        -0.5000 
    104 N         -7.8267  -22.3634  -54.2595 N.am      19 UNK        -0.5000 
    105 CA        -7.9145  -22.9239  -55.6096 C.3       19 UNK         0.1400 
    106 CB        -8.1120  -24.4445  -55.5192 C.3       19 UNK        -0.1800 
    107 C         -6.6813  -22.5902  -56.4662 C.2       19 UNK         0.5000 
    108 O         -6.8197  -22.3654  -57.6691 O.2       19 UNK        -0.5000 
    109 N         -5.5097  -22.5380  -55.8245 N.am      20 UNK        -0.5000 
    110 CA        -4.2308  -22.1663  -56.4131 C.3       20 UNK         0.1400 
    111 CB        -3.3543  -23.4289  -56.5102 C.3       20 UNK        -0.1800 
    112 C         -3.5920  -21.0686  -55.5378 C.2       20 UNK         0.5000 
    113 O         -2.7312  -21.3832  -54.7169 O.2       20 UNK        -0.5000 
    114 N         -4.0005  -19.7968  -55.6513 N.am      21 UNK        -0.5000 
    115 CA        -5.0000  -19.2344  -56.5637 C.3       21 UNK         0.1400 
    116 CB        -4.3464  -18.9351  -57.9298 C.3       21 UNK        -0.1800 
    117 C         -5.6581  -17.9798  -55.9535 C.2       21 UNK         0.5000 
    118 O         -6.0768  -17.0921  -56.6988 O.2       21 UNK        -0.5000 
    119 N         -5.7069  -17.8945  -54.6174 N.am      22 UNK        -0.5000 
    120 CA        -6.1650  -16.7023  -53.8816 C.3       22 UNK         0.1400 
    121 C         -7.7076  -16.4941  -53.8308 C.2       22 UNK         0.5000 
    122 N         -8.5364  -17.4308  -54.2717 N.am      22 UNK        -0.7600 
    123 O         -8.1668  -15.4437  -53.3904 O.2       22 UNK        -0.5000 
    124 C124       -5.5470  -16.6317  -52.4635 C.3       23 UNK        -0.0398 
    125 S125       -3.7237  -16.5862  -52.5052 S.3       23 UNK        -0.2404 
    126 C126       -3.3552  -17.0882  -50.8006 C.3       23 UNK        -0.0205 
    127 H127        4.5302  -13.2946  -51.6645 H         1 UNK         0.0600 
    128 H128        5.5419  -14.4749  -50.8279 H         1 UNK         0.0600 
    129 H129        6.0949  -12.8072  -51.0040 H         1 UNK         0.0600 
    130 H130        4.8228  -14.9101  -48.7890 H         1 UNK         0.3000 
    131 H131        4.0288  -14.8103  -46.7647 H         1 UNK         0.0600 
    132 H132        1.9358  -13.3122  -46.3107 H         1 UNK         0.0800 
    133 H133        2.0170  -12.8563  -47.9878 H         1 UNK         0.0800 
    134 H134        0.4862  -14.0853  -49.5695 H         1 UNK         0.0800 
    135 H135        1.9700  -14.9267  -49.9654 H         1 UNK         0.0800 
    136 H136       -1.6359  -15.1681  -49.9200 H         1 UNK         0.1150 
    137 H137       -1.7530  -19.2582  -51.1965 H         1 UNK         0.1150 
    138 H138        1.9538  -17.5069  -49.9421 H         1 UNK         0.1150 
    139 H139        0.9493  -20.0250  -51.9040 H         1 UNK         0.0800 
    140 H140        1.9268  -19.8082  -50.4722 H         1 UNK         0.0800 
    141 H141       -0.7241  -20.1665  -48.0664 H         1 UNK         0.0800 
    142 H142        1.0166  -20.2633  -48.0891 H         1 UNK         0.0800 
    143 H143        0.8596  -22.7637  -47.7021 H         1 UNK         0.0600 
    144 H144        0.5025  -20.7685  -45.7358 H         1 UNK         0.3000 
    145 H145        0.5823  -22.9506  -42.8770 H         1 UNK         0.0600 
    146 H146        2.3806  -21.3476  -42.2904 H         1 UNK         0.0600 
    147 H147        2.5144  -20.8418  -43.9732 H         1 UNK         0.0600 
    148 H148        2.9381  -22.4828  -43.5095 H         1 UNK         0.0600 
    149 H149        0.2595  -20.1354  -43.0520 H         1 UNK         0.3000 
    150 H150       -3.3302  -20.1342  -43.3627 H         1 UNK         0.0600 
    151 H151       -2.7942  -20.4038  -40.9337 H         1 UNK         0.0600 
    152 H152       -3.0817  -18.7219  -41.3516 H         1 UNK         0.0600 
    153 H153       -1.4349  -19.2995  -41.1050 H         1 UNK         0.0600 
    154 H154       -1.5034  -17.9784  -43.2149 H         1 UNK         0.3000 
    155 H155       -0.7729  -17.7145  -46.7299 H         1 UNK         0.0600 
    156 H156       -1.4725  -15.3902  -46.1555 H         1 UNK         0.0600 
    157 H157       -2.3053  -15.9839  -44.7187 H         1 UNK         0.0600 
    158 H158       -2.8607  -16.4555  -46.3193 H         1 UNK         0.0600 
    159 H159        0.2226  -16.2661  -44.4904 H         1 UNK         0.3000 
    160 H160        2.9863  -18.4180  -43.7622 H         1 UNK         0.0600 
    161 H161        4.2927  -16.4292  -44.1908 H         1 UNK         0.0600 
    162 H162        2.9060  -15.5766  -44.8699 H         1 UNK         0.0600 
    163 H163        3.6234  -16.9392  -45.7276 H         1 UNK         0.0600 
    164 H164        1.9134  -15.9014  -42.7422 H         1 UNK         0.3000 
    165 H165        0.0539  -17.3969  -40.1031 H         1 UNK         0.0600 
    166 H166        1.5238  -15.9662  -38.7010 H         1 UNK         0.0600 
    167 H167        2.3710  -17.4212  -39.2041 H         1 UNK         0.0600 
    168 H168        2.7182  -15.8900  -39.9947 H         1 UNK         0.0600 
    169 H169        0.6903  -14.6791  -40.8080 H         1 UNK         0.3000 
    170 H170       -1.9683  -14.2038  -43.1084 H         1 UNK         0.0600 
    171 H171       -1.9283  -13.3270  -40.1722 H         1 UNK         0.0600 
    172 H172       -2.8485  -12.5695  -41.4731 H         1 UNK         0.0600 
    173 H173       -3.2409  -14.2003  -40.9539 H         1 UNK         0.0600 
    174 H174       -0.4007  -12.2619  -41.8484 H         1 UNK         0.3000 
    175 H175        1.6022  -11.7480  -44.4230 H         1 UNK         0.0600 
    176 H176        1.3328  -11.1094  -41.4326 H         1 UNK         0.0600 
    177 H177        2.0341  -10.0609  -42.6568 H         1 UNK         0.0600 
    178 H178        0.3296  -10.4560  -42.7293 H         1 UNK         0.0600 
    179 H179        3.6578  -12.3395  -43.9147 H         1 UNK         0.3000 
    180 H180        5.4881  -12.8014  -41.3343 H         1 UNK         0.0600 
    181 H181        6.2882  -15.1973  -41.5815 H         1 UNK         0.0600 
    182 H182        4.6560  -15.6505  -42.0732 H         1 UNK         0.0600 
    183 H183        4.9475  -14.9986  -40.4697 H         1 UNK         0.0600 
    184 H184        5.5151  -14.1247  -43.9918 H         1 UNK         0.3000 
    185 H185        6.7187  -11.2460  -45.6313 H         1 UNK         0.0600 
    186 H186        8.8579  -12.1985  -44.7546 H         1 UNK         0.0600 
    187 H187        8.2687  -13.8290  -45.0548 H         1 UNK         0.0600 
    188 H188        8.5531  -12.7254  -46.4017 H         1 UNK         0.0600 
    189 H189        6.3076  -13.8796  -46.5891 H         1 UNK         0.3000 
    190 H190       -2.1801  -21.4485  -46.2801 H         1 UNK         0.3000 
    191 H191       -3.9718  -23.0938  -47.7224 H         1 UNK         0.0600 
    192 H192       -4.6301  -21.0059  -46.5520 H         1 UNK         0.0600 
    193 H193       -4.3020  -21.7539  -44.9895 H         1 UNK         0.0600 
    194 H194       -5.6116  -22.3549  -45.9992 H         1 UNK         0.0600 
    195 H195       -2.1105  -23.8212  -44.8065 H         1 UNK         0.3000 
    196 H196       -3.5147  -26.3015  -44.2140 H         1 UNK         0.0600 
    197 H197       -2.3182  -25.0384  -42.4462 H         1 UNK         0.0600 
    198 H198       -0.7870  -25.2555  -43.2893 H         1 UNK         0.0600 
    199 H199       -1.6338  -26.6473  -42.6261 H         1 UNK         0.0600 
    200 H200       -0.5334  -25.3747  -45.9749 H         1 UNK         0.3000 
    201 H201        0.3511  -28.0505  -46.4698 H         1 UNK         0.0600 
    202 H202        1.9019  -26.1304  -46.3556 H         1 UNK         0.0600 
    203 H203        1.1429  -25.3906  -47.7639 H         1 UNK         0.0600 
    204 H204        2.0258  -26.9044  -47.9282 H         1 UNK         0.0600 
    205 H205       -1.5832  -25.7396  -48.4358 H         1 UNK         0.3000 
    206 H206       -2.2660  -27.8580  -50.3680 H         1 UNK         0.0600 
    207 H207       -0.1445  -26.8319  -51.2571 H         1 UNK         0.0600 
    208 H208       -1.5070  -26.4005  -52.2735 H         1 UNK         0.0600 
    209 H209       -0.8613  -25.2269  -51.1316 H         1 UNK         0.0600 
    210 H210       -3.8013  -26.8933  -52.0452 H         1 UNK         0.3000 
    211 H211       -6.0039  -25.5348  -50.7141 H         1 UNK         0.0600 
    212 H212       -5.6600  -26.5240  -53.5947 H         1 UNK         0.0600 
    213 H213       -7.1630  -25.9728  -52.8601 H         1 UNK         0.0600 
    214 H214       -6.3874  -27.4316  -52.2698 H         1 UNK         0.0600 
    215 H215       -4.5466  -23.6586  -50.2625 H         1 UNK         0.3000 
    216 H216       -3.4852  -21.8943  -52.0900 H         1 UNK         0.0600 
    217 H217       -3.5533  -20.2625  -50.1783 H         1 UNK         0.0600 
    218 H218       -3.0255  -21.8523  -49.6707 H         1 UNK         0.0600 
    219 H219       -4.6703  -21.3122  -49.3231 H         1 UNK         0.0600 
    220 H220       -6.8959  -22.1324  -51.2593 H         1 UNK         0.3000 
    221 H221       -7.6787  -19.5892  -52.4333 H         1 UNK         0.0600 
    222 H222       -9.3251  -22.0715  -51.7104 H         1 UNK         0.0600 
    223 H223       -9.0632  -20.6603  -50.6858 H         1 UNK         0.0600 
    224 H224       -9.9805  -20.5059  -52.1755 H         1 UNK         0.0600 
    225 H225       -7.5902  -23.0077  -53.5196 H         1 UNK         0.3000 
    226 H226       -8.7905  -22.4956  -56.1014 H         1 UNK         0.0600 
    227 H227       -8.9890  -24.6968  -54.9230 H         1 UNK         0.0600 
    228 H228       -8.2567  -24.8764  -56.5102 H         1 UNK         0.0600 
    229 H229       -7.2468  -24.9357  -55.0735 H         1 UNK         0.0600 
    230 H230       -5.4849  -22.7871  -54.8378 H         1 UNK         0.3000 
    231 H231       -4.3614  -21.7819  -57.4239 H         1 UNK         0.0600 
    232 H232       -2.3667  -23.1898  -56.9061 H         1 UNK         0.0600 
    233 H233       -3.8028  -24.1663  -57.1760 H         1 UNK         0.0600 
    234 H234       -3.2165  -23.9018  -55.5366 H         1 UNK         0.0600 
    235 H235       -3.5896  -19.1206  -55.0231 H         1 UNK         0.3000 
    236 H236       -5.8134  -19.9417  -56.7108 H         1 UNK         0.0600 
    237 H237       -3.5915  -18.1526  -57.8434 H         1 UNK         0.0600 
    238 H238       -3.8619  -19.8097  -58.3605 H         1 UNK         0.0600 
    239 H239       -5.0888  -18.5958  -58.6531 H         1 UNK         0.0600 
    240 H240       -5.3906  -18.6747  -54.0462 H         1 UNK         0.3000 
    241 H241       -5.7890  -15.8320  -54.4235 H         1 UNK         0.0600 
    242 H242       -8.1987  -18.3223  -54.6238 H         1 UNK         0.3800 
    243 H243       -9.5283  -17.2589  -54.2401 H         1 UNK         0.3800 
    244 H244       -5.8764  -17.4859  -51.8696 H         1 UNK         0.0800 
    245 H245       -5.8852  -15.7386  -51.9349 H         1 UNK         0.0800 
    246 H246       -3.7862  -16.3639  -50.1077 H         1 UNK         0.0800 
    247 H247       -3.8413  -18.0407  -50.5915 H         1 UNK         0.0800 
@<TRIPOS>BOND
     1    1    2 1    
     2    1  127 1    
     3    1  128 1    
     4    1  129 1    
     5    2    3 2    
     6    2    4 am   BACKBONE|DICT|INTERRES
     7    4    5 1    
     8    4  130 1    
     9    5    6 1    
    10    5   65 1    
    11    5  131 1    
    12    6    7 1    
    13    6  132 1    
    14    6  133 1    
    15    7    8 1    
    16    8    9 1    
    17    8  134 1    
    18    8  135 1    
    19    9   10 ar   
    20    9   14 ar   
    21   10   11 ar   
    22   10  136 1    
    23   11   12 ar   
    24   11  126 1    
    25   12   13 ar   
    26   12  137 1    
    27   13   14 ar   
    28   13   15 1    
    29   14  138 1    
    30   15   16 1    
    31   15  139 1    
    32   15  140 1    
    33   16   17 1    
    34   17   18 1    
    35   17  141 1    
    36   17  142 1    
    37   18   19 1    
    38   18   67 1    
    39   18  143 1    
    40   19   20 am   BACKBONE|DICT|INTERRES
    41   19  144 1    
    42   20   21 2    
    43   20   22 1    
    44   22   23 1    
    45   22   24 1    
    46   22  145 1    
    47   23  146 1    
    48   23  147 1    
    49   23  148 1    
    50   24   25 am   BACKBONE|DICT|INTERRES
    51   24  149 1    
    52   25   26 2    
    53   25   27 1    
    54   27   28 1    
    55   27   29 1    
    56   27  150 1    
    57   28  151 1    
    58   28  152 1    
    59   28  153 1    
    60   29   30 am   BACKBONE|DICT|INTERRES
    61   29  154 1    
    62   30   31 2    
    63   30   32 1    
    64   32   33 1    
    65   32   34 1    
    66   32  155 1    
    67   33  156 1    
    68   33  157 1    
    69   33  158 1    
    70   34   35 am   BACKBONE|DICT|INTERRES
    71   34  159 1    
    72   35   36 2    
    73   35   37 1    
    74   37   38 1    
    75   37   39 1    
    76   37  160 1    
    77   38  161 1    
    78   38  162 1    
    79   38  163 1    
    80   39   40 am   BACKBONE|DICT|INTERRES
    81   39  164 1    
    82   40   41 2    
    83   40   42 1    
    84   42   43 1    
    85   42   44 1    
    86   42  165 1    
    87   43  166 1    
    88   43  167 1    
    89   43  168 1    
    90   44   45 am   BACKBONE|DICT|INTERRES
    91   44  169 1    
    92   45   46 2    
    93   45   47 1    
    94   47   48 1    
    95   47   49 1    
    96   47  170 1    
    97   48  171 1    
    98   48  172 1    
    99   48  173 1    
   100   49   50 am   BACKBONE|DICT|INTERRES
   101   49  174 1    
   102   50   51 2    
   103   50   52 1    
   104   52   53 1    
   105   52   54 1    
   106   52  175 1    
   107   53  176 1    
   108   53  177 1    
   109   53  178 1    
   110   54   55 am   BACKBONE|DICT|INTERRES
   111   54  179 1    
   112   55   56 2    
   113   55   57 1    
   114   57   58 1    
   115   57   59 1    
   116   57  180 1    
   117   58  181 1    
   118   58  182 1    
   119   58  183 1    
   120   59   60 am   BACKBONE|DICT|INTERRES
   121   59  184 1    
   122   60   61 2    
   123   60   62 1    
   124   62   63 1    
   125   62   64 1    
   126   62  185 1    
   127   63  186 1    
   128   63  187 1    
   129   63  188 1    
   130   64   65 am   BACKBONE|DICT|INTERRES
   131   64  189 1    
   132   65   66 2    
   133   67   68 2    
   134   67   69 am   BACKBONE|DICT|INTERRES
   135   69   70 1    
   136   69  190 1    
   137   70   71 1    
   138   70   72 1    
   139   70  191 1    
   140   71  192 1    
   141   71  193 1    
   142   71  194 1    
   143   72   73 2    
   144   72   74 am   BACKBONE|DICT|INTERRES
   145   74   75 1    
   146   74  195 1    
   147   75   76 1    
   148   75   77 1    
   149   75  196 1    
   150   76  197 1    
   151   76  198 1    
   152   76  199 1    
   153   77   78 2    
   154   77   79 am   BACKBONE|DICT|INTERRES
   155   79   80 1    
   156   79  200 1    
   157   80   81 1    
   158   80   82 1    
   159   80  201 1    
   160   81  202 1    
   161   81  203 1    
   162   81  204 1    
   163   82   83 2    
   164   82   84 am   BACKBONE|DICT|INTERRES
   165   84   85 1    
   166   84  205 1    
   167   85   86 1    
   168   85   87 1    
   169   85  206 1    
   170   86  207 1    
   171   86  208 1    
   172   86  209 1    
   173   87   88 2    
   174   87   89 am   BACKBONE|DICT|INTERRES
   175   89   90 1    
   176   89  210 1    
   177   90   91 1    
   178   90   92 1    
   179   90  211 1    
   180   91  212 1    
   181   91  213 1    
   182   91  214 1    
   183   92   93 2    
   184   92   94 am   BACKBONE|DICT|INTERRES
   185   94   95 1    
   186   94  215 1    
   187   95   96 1    
   188   95   97 1    
   189   95  216 1    
   190   96  217 1    
   191   96  218 1    
   192   96  219 1    
   193   97   98 2    
   194   97   99 am   BACKBONE|DICT|INTERRES
   195   99  100 1    
   196   99  220 1    
   197  100  101 1    
   198  100  102 1    
   199  100  221 1    
   200  101  222 1    
   201  101  223 1    
   202  101  224 1    
   203  102  103 2    
   204  102  104 am   BACKBONE|DICT|INTERRES
   205  104  105 1    
   206  104  225 1    
   207  105  106 1    
   208  105  107 1    
   209  105  226 1    
   210  106  227 1    
   211  106  228 1    
   212  106  229 1    
   213  107  108 2    
   214  107  109 am   BACKBONE|DICT|INTERRES
   215  109  110 1    
   216  109  230 1    
   217  110  111 1    
   218  110  112 1    
   219  110  231 1    
   220  111  232 1    
   221  111  233 1    
   222  111  234 1    
   223  112  113 2    
   224  112  114 am   BACKBONE|DICT|INTERRES
   225  114  115 1    
   226  114  235 1    
   227  115  116 1    
   228  115  117 1    
   229  115  236 1    
   230  116  237 1    
   231  116  238 1    
   232  116  239 1    
   233  117  118 2    
   234  117  119 am   BACKBONE|DICT|INTERRES
   235  119  120 1    
   236  119  240 1    
   237  120  121 1    
   238  120  124 1    
   239  120  241 1    
   240  121  122 am   BACKBONE|DICT|INTERRES
   241  121  123 2    
   242  122  242 1    
   243  122  243 1    
   244  124  125 1    
   245  124  244 1    
   246  124  245 1    
   247  125  126 1    
   248  126  246 1    
   249  126  247 1    
@<TRIPOS>SUBSTRUCTURE
     1 UNK         1 GROUP             0       ****    0 ROOT    
