@<TRIPOS>MOLECULE
3R540
247   249    1
SMALL
USER_CHARGES


@<TRIPOS>ATOM
      1 CA         -0.9940  -18.8905  -42.7193 C.3       0 UNK        -0.1800 
      2 C          -1.7403  -17.5997  -42.4184 C.2       0 UNK         0.5000 
      3 O          -2.0083  -17.3060  -41.2538 O.2       0 UNK        -0.5000 
      4 N          -2.0605  -16.8170  -43.4567 N.am      1 UNK        -0.5000 
      5 CA         -2.8483  -15.5705  -43.4041 C.3       1 UNK         0.1400 
      6 C6         -3.4810  -15.2310  -44.7790 C.3       23 UNK        -0.0398 
      7 S7         -4.6200  -16.5325  -45.3498 S.3       23 UNK        -0.2404 
      8 C8         -5.3411  -15.7643  -46.8384 C.3       23 UNK        -0.0205 
      9 C9         -5.0856  -16.6191  -48.0696 C.ar      23 UNK        -0.0193 
     10 C10        -4.3054  -16.1430  -49.1261 C.ar      23 UNK        -0.1150 
     11 C11        -4.0577  -16.9499  -50.2399 C.ar      23 UNK        -0.0193 
     12 C12        -4.5596  -18.2554  -50.2706 C.ar      23 UNK        -0.1150 
     13 C13        -5.3398  -18.7490  -49.2191 C.ar      23 UNK        -0.0193 
     14 C14        -5.6331  -17.9012  -48.1447 C.ar      23 UNK        -0.1150 
     15 C15        -5.8496  -20.1914  -49.2884 C.3       23 UNK        -0.0205 
     16 S16        -6.3625  -20.9593  -47.7033 S.3       23 UNK        -0.2404 
     17 C17        -4.9071  -20.7493  -46.6188 C.3       23 UNK        -0.0398 
     18 CA         -3.8823  -21.9050  -46.6666 C.3       11 UNK         0.1400 
     19 N          -2.5810  -21.4227  -46.1962 N.am      11 UNK        -0.5000 
     20 C          -1.4342  -22.1031  -46.1029 C.2       10 UNK         0.5000 
     21 O          -1.3535  -23.3242  -46.2342 O.2       10 UNK        -0.5000 
     22 CA         -0.1683  -21.2510  -45.8689 C.3       10 UNK         0.1400 
     23 CB          1.1261  -22.0754  -45.9736 C.3       10 UNK        -0.1800 
     24 N          -0.0870  -20.1397  -46.8199 N.am      10 UNK        -0.5000 
     25 C          -0.7501  -18.9792  -46.7553 C.2       9 UNK         0.5000 
     26 O          -1.5391  -18.7098  -45.8471 O.2       9 UNK        -0.5000 
     27 CA         -0.5162  -17.9727  -47.9017 C.3       9 UNK         0.1400 
     28 CB         -1.1065  -16.5896  -47.5831 C.3       9 UNK        -0.1800 
     29 N           0.8952  -17.8044  -48.2458 N.am      9 UNK        -0.5000 
     30 C           1.6590  -18.6537  -48.9448 C.2       8 UNK         0.5000 
     31 O           1.2773  -19.7561  -49.3335 O.2       8 UNK        -0.5000 
     32 CA          3.1090  -18.2180  -49.1957 C.3       8 UNK         0.1400 
     33 CB          3.1665  -17.0295  -50.1695 C.3       8 UNK        -0.1800 
     34 N           3.7344  -17.8453  -47.9302 N.am      8 UNK        -0.5000 
     35 C           4.4797  -18.6633  -47.1755 C.2       7 UNK         0.5000 
     36 O           4.8287  -19.7915  -47.5246 O.2       7 UNK        -0.5000 
     37 CA          4.9018  -18.1398  -45.7868 C.3       7 UNK         0.1400 
     38 CB          6.2715  -17.4486  -45.8659 C.3       7 UNK        -0.1800 
     39 N           3.9332  -17.2122  -45.1986 N.am      7 UNK        -0.5000 
     40 C           2.6926  -17.5462  -44.8162 C.2       6 UNK         0.5000 
     41 O           2.2626  -18.6985  -44.8347 O.2       6 UNK        -0.5000 
     42 CA          1.7676  -16.4075  -44.3370 C.3       6 UNK         0.1400 
     43 CB          1.8068  -16.3466  -42.8035 C.3       6 UNK        -0.1800 
     44 N           2.0493  -15.0679  -44.8797 N.am      6 UNK        -0.5000 
     45 C           2.1925  -14.7547  -46.1772 C.2       5 UNK         0.5000 
     46 O           2.1410  -15.5840  -47.0861 O.2       5 UNK        -0.5000 
     47 CA          2.4596  -13.2740  -46.5085 C.3       5 UNK         0.1400 
     48 CB          2.8025  -13.0529  -47.9969 C.3       5 UNK        -0.1800 
     49 N           1.3657  -12.3880  -46.1063 N.am      5 UNK        -0.5000 
     50 C           0.0745  -12.4444  -46.4661 C.2       4 UNK         0.5000 
     51 O          -0.4026  -13.3212  -47.1860 O.2       4 UNK        -0.5000 
     52 CA         -0.8285  -11.3107  -45.9317 C.3       4 UNK         0.1400 
     53 CB         -2.3253  -11.5658  -46.1865 C.3       4 UNK        -0.1800 
     54 N          -0.6123  -11.0682  -44.5029 N.am      4 UNK        -0.5000 
     55 C           0.3698  -10.3098  -43.9937 C.2       3 UNK         0.5000 
     56 O           1.1871   -9.7112  -44.6940 O.2       3 UNK        -0.5000 
     57 CA          0.5043  -10.2288  -42.4611 C.3       3 UNK         0.1400 
     58 CB         -0.0991   -8.9159  -41.9389 C.3       3 UNK        -0.1800 
     59 N          -0.1066  -11.3469  -41.7437 N.am      3 UNK        -0.5000 
     60 C           0.2827  -12.6275  -41.8053 C.2       2 UNK         0.5000 
     61 O           1.2187  -13.0268  -42.5022 O.2       2 UNK        -0.5000 
     62 CA         -0.5215  -13.6368  -40.9545 C.3       2 UNK         0.1400 
     63 CB         -1.4696  -12.9780  -39.9278 C.3       2 UNK        -0.1800 
     64 N          -1.2767  -14.5990  -41.7623 N.am      2 UNK        -0.5000 
     65 C          -2.0945  -14.3569  -42.7957 C.2       1 UNK         0.5000 
     66 O          -2.2855  -13.2267  -43.2486 O.2       1 UNK        -0.5000 
     67 C          -4.3878  -23.1695  -45.9443 C.2       11 UNK         0.5000 
     68 O          -4.8610  -24.0967  -46.6044 O.2       11 UNK        -0.5000 
     69 N          -4.2419  -23.1979  -44.6130 N.am      12 UNK        -0.5000 
     70 CA         -4.6586  -24.3141  -43.7635 C.3       12 UNK         0.1400 
     71 CB         -4.6929  -23.8467  -42.3005 C.3       12 UNK        -0.1800 
     72 C          -3.7619  -25.5574  -43.9115 C.2       12 UNK         0.5000 
     73 O          -4.2645  -26.6778  -43.8248 O.2       12 UNK        -0.5000 
     74 N          -2.4587  -25.3418  -44.1352 N.am      13 UNK        -0.5000 
     75 CA         -1.4663  -26.4030  -44.3115 C.3       13 UNK         0.1400 
     76 CB         -0.0700  -25.8539  -43.9810 C.3       13 UNK        -0.1800 
     77 C          -1.5000  -26.9809  -45.7356 C.2       13 UNK         0.5000 
     78 O          -1.3939  -28.1955  -45.9076 O.2       13 UNK        -0.5000 
     79 N          -1.6645  -26.0962  -46.7269 N.am      14 UNK        -0.5000 
     80 CA         -1.7433  -26.4275  -48.1483 C.3       14 UNK         0.1400 
     81 CB         -1.4649  -25.1510  -48.9547 C.3       14 UNK        -0.1800 
     82 C          -3.0999  -27.0257  -48.5660 C.2       14 UNK         0.5000 
     83 O          -3.1965  -27.5633  -49.6683 O.2       14 UNK        -0.5000 
     84 N          -4.1236  -26.8893  -47.7094 N.am      15 UNK        -0.5000 
     85 CA         -5.5243  -27.2613  -47.9360 C.3       15 UNK         0.1400 
     86 CB         -5.6811  -28.7902  -48.0726 C.3       15 UNK        -0.1800 
     87 C          -6.1259  -26.4717  -49.1163 C.2       15 UNK         0.5000 
     88 O          -6.6350  -27.0566  -50.0732 O.2       15 UNK        -0.5000 
     89 N          -5.9998  -25.1408  -49.0248 N.am      16 UNK        -0.5000 
     90 CA         -6.4389  -24.1091  -49.9724 C.3       16 UNK         0.1400 
     91 CB         -7.9489  -24.2055  -50.2675 C.3       16 UNK        -0.1800 
     92 C          -5.6022  -23.9947  -51.2632 C.2       16 UNK         0.5000 
     93 O          -5.8216  -23.0564  -52.0302 O.2       16 UNK        -0.5000 
     94 N          -4.6219  -24.8864  -51.4712 N.am      17 UNK        -0.5000 
     95 CA         -3.7224  -24.8775  -52.6325 C.3       17 UNK         0.1400 
     96 CB         -3.0396  -26.2475  -52.7572 C.3       17 UNK        -0.1800 
     97 C          -2.6725  -23.7459  -52.6042 C.2       17 UNK         0.5000 
     98 O          -1.9932  -23.5285  -53.6085 O.2       17 UNK        -0.5000 
     99 N          -2.5698  -23.0297  -51.4732 N.am      18 UNK        -0.5000 
    100 CA        -1.6480  -21.9153  -51.2288 C.3       18 UNK         0.1400 
    101 CB        -1.8262  -21.4129  -49.7911 C.3       18 UNK        -0.1800 
    102 C         -1.7800  -20.7405  -52.2143 C.2       18 UNK         0.5000 
    103 O         -0.8209  -19.9903  -52.3767 O.2       18 UNK        -0.5000 
    104 N         -2.9245  -20.6266  -52.9038 N.am      19 UNK        -0.5000 
    105 CA        -3.1609  -19.6668  -53.9855 C.3       19 UNK         0.1400 
    106 CB        -4.5876  -19.8550  -54.5190 C.3       19 UNK        -0.1800 
    107 C         -2.1303  -19.7516  -55.1330 C.2       19 UNK         0.5000 
    108 O         -1.8135  -18.7269  -55.7397 O.2       19 UNK        -0.5000 
    109 N         -1.5816  -20.9531  -55.3693 N.am      20 UNK        -0.5000 
    110 CA        -0.4924  -21.1959  -56.3161 C.3       20 UNK         0.1400 
    111 CB        -0.3497  -22.7090  -56.5383 C.3       20 UNK        -0.1800 
    112 C          0.8532  -20.5871  -55.8694 C.2       20 UNK         0.5000 
    113 O          1.6748  -20.2597  -56.7264 O.2       20 UNK        -0.5000 
    114 N          1.0558  -20.4388  -54.5523 N.am      21 UNK        -0.5000 
    115 CA         2.2164  -19.7711  -53.9644 C.3       21 UNK         0.1400 
    116 CB         2.5356  -20.3881  -52.5944 C.3       21 UNK        -0.1800 
    117 C          1.9902  -18.2538  -53.8504 C.2       21 UNK         0.5000 
    118 O          2.9415  -17.4956  -54.0435 O.2       21 UNK        -0.5000 
    119 N          0.7471  -17.8343  -53.5641 N.am      22 UNK        -0.5000 
    120 CA         0.3160  -16.4255  -53.5936 C.3       22 UNK         0.1400 
    121 C          0.4835  -15.7709  -54.9952 C.2       22 UNK         0.5000 
    122 N          0.0630  -16.4345  -56.0666 N.am      22 UNK        -0.7600 
    123 O          0.9889  -14.6576  -55.1085 O.2       22 UNK        -0.5000 
    124 C124       -1.1481  -16.2242  -53.1267 C.3       23 UNK        -0.0398 
    125 S125       -1.5471  -16.8589  -51.4653 S.3       23 UNK        -0.2404 
    126 C126       -3.3057  -16.3905  -51.4368 C.3       23 UNK        -0.0205 
    127 H127       -0.2526  -18.7400  -43.5032 H         1 UNK         0.0600 
    128 H128       -1.6921  -19.6618  -43.0443 H         1 UNK         0.0600 
    129 H129       -0.4727  -19.2502  -41.8321 H         1 UNK         0.0600 
    130 H130       -1.8536  -17.1607  -44.3884 H         1 UNK         0.3000 
    131 H131       -3.6773  -15.7515  -42.7167 H         1 UNK         0.0600 
    132 H132       -4.0600  -14.3076  -44.7193 H         1 UNK         0.0800 
    133 H133       -2.7081  -15.0680  -45.5317 H         1 UNK         0.0800 
    134 H134       -4.9434  -14.7582  -46.9793 H         1 UNK         0.0800 
    135 H135       -6.4167  -15.6528  -46.6954 H         1 UNK         0.0800 
    136 H136       -3.8994  -15.1418  -49.0876 H         1 UNK         0.1150 
    137 H137       -4.3530  -18.8831  -51.1257 H         1 UNK         0.1150 
    138 H138       -6.2529  -18.2457  -47.3299 H         1 UNK         0.1150 
    139 H139       -5.0916  -20.8272  -49.7444 H         1 UNK         0.0800 
    140 H140       -6.7045  -20.2148  -49.9654 H         1 UNK         0.0800 
    141 H141       -5.2617  -20.5894  -45.5990 H         1 UNK         0.0800 
    142 H142       -4.4059  -19.8207  -46.8869 H         1 UNK         0.0800 
    143 H143       -3.7385  -22.1851  -47.7106 H         1 UNK         0.0600 
    144 H144       -2.5106  -20.4215  -46.0427 H         1 UNK         0.3000 
    145 H145       -0.2269  -20.8467  -44.8574 H         1 UNK         0.0600 
    146 H146        2.0036  -21.4513  -45.8012 H         1 UNK         0.0600 
    147 H147        1.1457  -22.8721  -45.2298 H         1 UNK         0.0600 
    148 H148        1.2309  -22.5362  -46.9568 H         1 UNK         0.0600 
    149 H149        0.5071  -20.2820  -47.6310 H         1 UNK         0.3000 
    150 H150       -1.0398  -18.3587  -48.7777 H         1 UNK         0.0600 
    151 H151       -0.6312  -16.1386  -46.7118 H         1 UNK         0.0600 
    152 H152       -2.1736  -16.6589  -47.3756 H         1 UNK         0.0600 
    153 H153       -0.9854  -15.9041  -48.4221 H         1 UNK         0.0600 
    154 H154        1.3220  -16.9423  -47.9120 H         1 UNK         0.3000 
    155 H155        3.6416  -19.0545  -49.6531 H         1 UNK         0.0600 
    156 H156        2.6852  -16.1405  -49.7602 H         1 UNK         0.0600 
    157 H157        2.6633  -17.2700  -51.1061 H         1 UNK         0.0600 
    158 H158        4.1971  -16.7695  -50.4106 H         1 UNK         0.0600 
    159 H159        3.4372  -16.9587  -47.5356 H         1 UNK         0.3000 
    160 H160        4.9906  -19.0017  -45.1221 H         1 UNK         0.0600 
    161 H161        6.2395  -16.5632  -46.5022 H         1 UNK         0.0600 
    162 H162        7.0250  -18.1215  -46.2774 H         1 UNK         0.0600 
    163 H163        6.6167  -17.1415  -44.8784 H         1 UNK         0.0600 
    164 H164        4.2098  -16.2440  -45.1349 H         1 UNK         0.3000 
    165 H165        0.7544  -16.6703  -44.6460 H         1 UNK         0.0600 
    166 H166        1.0407  -15.6811  -42.4183 H         1 UNK         0.0600 
    167 H167        2.7719  -15.9918  -42.4401 H         1 UNK         0.0600 
    168 H168        1.6294  -17.3275  -42.3605 H         1 UNK         0.0600 
    169 H169        2.0632  -14.3154  -44.2011 H         1 UNK         0.3000 
    170 H170        3.3312  -12.9776  -45.9235 H         1 UNK         0.0600 
    171 H171        3.6666  -13.6496  -48.2920 H         1 UNK         0.0600 
    172 H172        1.9750  -13.3327  -48.6501 H         1 UNK         0.0600 
    173 H173        3.0465  -12.0092  -48.1945 H         1 UNK         0.0600 
    174 H174        1.6307  -11.6112  -45.5125 H         1 UNK         0.3000 
    175 H175       -0.5602  -10.4092  -46.4864 H         1 UNK         0.0600 
    176 H176       -2.6596  -12.4978  -45.7337 H         1 UNK         0.0600 
    177 H177       -2.9385  -10.7585  -45.7861 H         1 UNK         0.0600 
    178 H178       -2.5331  -11.6312  -47.2552 H         1 UNK         0.0600 
    179 H179       -1.1996  -11.6025  -43.8700 H         1 UNK         0.3000 
    180 H180        1.5714  -10.2304  -42.2296 H         1 UNK         0.0600 
    181 H181       -1.1735   -8.8674  -42.1205 H         1 UNK         0.0600 
    182 H182        0.3558   -8.0538  -42.4289 H         1 UNK         0.0600 
    183 H183        0.0671   -8.8029  -40.8674 H         1 UNK         0.0600 
    184 H184       -0.9044  -11.1236  -41.1668 H         1 UNK         0.3000 
    185 H185        0.2169  -14.2140  -40.3965 H         1 UNK         0.0600 
    186 H186       -1.9269  -13.7315  -39.2862 H         1 UNK         0.0600 
    187 H187       -0.9320  -12.2898  -39.2740 H         1 UNK         0.0600 
    188 H188       -2.2782  -12.4264  -40.4092 H         1 UNK         0.0600 
    189 H189       -1.2362  -15.5634  -41.4470 H         1 UNK         0.3000 
    190 H190       -3.8226  -22.4035  -44.1525 H         1 UNK         0.3000 
    191 H191       -5.6722  -24.6022  -44.0512 H         1 UNK         0.0600 
    192 H192       -5.0227  -24.6509  -41.6414 H         1 UNK         0.0600 
    193 H193       -5.3858  -23.0155  -42.1682 H         1 UNK         0.0600 
    194 H194       -3.7096  -23.5231  -41.9568 H         1 UNK         0.0600 
    195 H195       -2.1364  -24.3929  -44.2616 H         1 UNK         0.3000 
    196 H196       -1.6843  -27.2133  -43.6124 H         1 UNK         0.0600 
    197 H197        0.2137  -25.0425  -44.6516 H         1 UNK         0.0600 
    198 H198       -0.0260  -25.4763  -42.9594 H         1 UNK         0.0600 
    199 H199        0.6868  -26.6340  -44.0726 H         1 UNK         0.0600 
    200 H200       -1.6835  -25.1047  -46.4956 H         1 UNK         0.3000 
    201 H201       -0.9681  -27.1606  -48.3802 H         1 UNK         0.0600 
    202 H202       -2.2511  -24.4119  -48.8002 H         1 UNK         0.0600 
    203 H203       -1.4110  -25.3627  -50.0222 H         1 UNK         0.0600 
    204 H204       -0.5160  -24.6974  -48.6675 H         1 UNK         0.0600 
    205 H205       -3.9420  -26.3844  -46.8528 H         1 UNK         0.3000 
    206 H206       -6.0731  -26.9533  -47.0446 H         1 UNK         0.0600 
    207 H207       -5.2557  -29.3069  -47.2122 H         1 UNK         0.0600 
    208 H208       -6.7341  -29.0679  -48.1308 H         1 UNK         0.0600 
    209 H209       -5.1939  -29.1748  -48.9688 H         1 UNK         0.0600 
    210 H210       -5.5546  -24.7810  -48.1817 H         1 UNK         0.3000 
    211 H211       -6.2785  -23.1691  -49.4501 H         1 UNK         0.0600 
    212 H212       -8.2911  -23.3359  -50.8299 H         1 UNK         0.0600 
    213 H213       -8.5293  -24.2419  -49.3457 H         1 UNK         0.0600 
    214 H214       -8.1950  -25.0883  -50.8576 H         1 UNK         0.0600 
    215 H215       -4.5102  -25.6475  -50.8151 H         1 UNK         0.3000 
    216 H216       -4.3298  -24.7261  -53.5272 H         1 UNK         0.0600 
    217 H217       -2.3556  -26.4358  -51.9304 H         1 UNK         0.0600 
    218 H218       -2.4594  -26.3110  -53.6786 H         1 UNK         0.0600 
    219 H219       -3.7713  -27.0554  -52.7784 H         1 UNK         0.0600 
    220 H220       -3.1812  -23.2818  -50.7132 H         1 UNK         0.3000 
    221 H221       -0.6323  -22.3026  -51.3306 H         1 UNK         0.0600 
    222 H222       -1.5843  -22.1879  -49.0669 H         1 UNK         0.0600 
    223 H223       -2.8403  -21.0657  -49.6048 H         1 UNK         0.0600 
    224 H224       -1.1618  -20.5745  -49.5919 H         1 UNK         0.0600 
    225 H225       -3.6582  -21.2973  -52.7248 H         1 UNK         0.3000 
    226 H226       -3.0873  -18.6688  -53.5547 H         1 UNK         0.0600 
    227 H227       -4.7345  -20.8553  -54.9283 H         1 UNK         0.0600 
    228 H228       -5.3262  -19.7026  -53.7316 H         1 UNK         0.0600 
    229 H229       -4.8062  -19.1386  -55.3120 H         1 UNK         0.0600 
    230 H230       -1.8732  -21.7449  -54.8066 H         1 UNK         0.3000 
    231 H231       -0.7630  -20.7356  -57.2687 H         1 UNK         0.0600 
    232 H232       -0.0749  -23.2258  -55.6178 H         1 UNK         0.0600 
    233 H233        0.4220  -22.9243  -57.2785 H         1 UNK         0.0600 
    234 H234       -1.2803  -23.1448  -56.9021 H         1 UNK         0.0600 
    235 H235        0.3049  -20.6647  -53.9111 H         1 UNK         0.3000 
    236 H236        3.0863  -19.9298  -54.6054 H         1 UNK         0.0600 
    237 H237        2.7431  -21.4545  -52.6809 H         1 UNK         0.0600 
    238 H238        3.4151  -19.9192  -52.1517 H         1 UNK         0.0600 
    239 H239        1.7126  -20.2642  -51.8923 H         1 UNK         0.0600 
    240 H240        0.0434  -18.5223  -53.3155 H         1 UNK         0.3000 
    241 H241        0.9617  -15.8822  -52.9011 H         1 UNK         0.0600 
    242 H242        0.1683  -16.0208  -56.9792 H         1 UNK         0.3800 
    243 H243       -0.4228  -17.3209  -55.9708 H         1 UNK         0.3800 
    244 H244       -1.8316  -16.6878  -53.8389 H         1 UNK         0.0800 
    245 H245       -1.3901  -15.1595  -53.1304 H         1 UNK         0.0800 
    246 H246       -3.7925  -16.7342  -52.3501 H         1 UNK         0.0800 
    247 H247       -3.3805  -15.3020  -51.4492 H         1 UNK         0.0800 
@<TRIPOS>BOND
     1    1    2 1    
     2    1  127 1    
     3    1  128 1    
     4    1  129 1    
     5    2    3 2    
     6    2    4 am   BACKBONE|DICT|INTERRES
     7    4    5 1    
     8    4  130 1    
     9    5    6 1    
    10    5   65 1    
    11    5  131 1    
    12    6    7 1    
    13    6  132 1    
    14    6  133 1    
    15    7    8 1    
    16    8    9 1    
    17    8  134 1    
    18    8  135 1    
    19    9   10 ar   
    20    9   14 ar   
    21   10   11 ar   
    22   10  136 1    
    23   11   12 ar   
    24   11  126 1    
    25   12   13 ar   
    26   12  137 1    
    27   13   14 ar   
    28   13   15 1    
    29   14  138 1    
    30   15   16 1    
    31   15  139 1    
    32   15  140 1    
    33   16   17 1    
    34   17   18 1    
    35   17  141 1    
    36   17  142 1    
    37   18   19 1    
    38   18   67 1    
    39   18  143 1    
    40   19   20 am   BACKBONE|DICT|INTERRES
    41   19  144 1    
    42   20   21 2    
    43   20   22 1    
    44   22   23 1    
    45   22   24 1    
    46   22  145 1    
    47   23  146 1    
    48   23  147 1    
    49   23  148 1    
    50   24   25 am   BACKBONE|DICT|INTERRES
    51   24  149 1    
    52   25   26 2    
    53   25   27 1    
    54   27   28 1    
    55   27   29 1    
    56   27  150 1    
    57   28  151 1    
    58   28  152 1    
    59   28  153 1    
    60   29   30 am   BACKBONE|DICT|INTERRES
    61   29  154 1    
    62   30   31 2    
    63   30   32 1    
    64   32   33 1    
    65   32   34 1    
    66   32  155 1    
    67   33  156 1    
    68   33  157 1    
    69   33  158 1    
    70   34   35 am   BACKBONE|DICT|INTERRES
    71   34  159 1    
    72   35   36 2    
    73   35   37 1    
    74   37   38 1    
    75   37   39 1    
    76   37  160 1    
    77   38  161 1    
    78   38  162 1    
    79   38  163 1    
    80   39   40 am   BACKBONE|DICT|INTERRES
    81   39  164 1    
    82   40   41 2    
    83   40   42 1    
    84   42   43 1    
    85   42   44 1    
    86   42  165 1    
    87   43  166 1    
    88   43  167 1    
    89   43  168 1    
    90   44   45 am   BACKBONE|DICT|INTERRES
    91   44  169 1    
    92   45   46 2    
    93   45   47 1    
    94   47   48 1    
    95   47   49 1    
    96   47  170 1    
    97   48  171 1    
    98   48  172 1    
    99   48  173 1    
   100   49   50 am   BACKBONE|DICT|INTERRES
   101   49  174 1    
   102   50   51 2    
   103   50   52 1    
   104   52   53 1    
   105   52   54 1    
   106   52  175 1    
   107   53  176 1    
   108   53  177 1    
   109   53  178 1    
   110   54   55 am   BACKBONE|DICT|INTERRES
   111   54  179 1    
   112   55   56 2    
   113   55   57 1    
   114   57   58 1    
   115   57   59 1    
   116   57  180 1    
   117   58  181 1    
   118   58  182 1    
   119   58  183 1    
   120   59   60 am   BACKBONE|DICT|INTERRES
   121   59  184 1    
   122   60   61 2    
   123   60   62 1    
   124   62   63 1    
   125   62   64 1    
   126   62  185 1    
   127   63  186 1    
   128   63  187 1    
   129   63  188 1    
   130   64   65 am   BACKBONE|DICT|INTERRES
   131   64  189 1    
   132   65   66 2    
   133   67   68 2    
   134   67   69 am   BACKBONE|DICT|INTERRES
   135   69   70 1    
   136   69  190 1    
   137   70   71 1    
   138   70   72 1    
   139   70  191 1    
   140   71  192 1    
   141   71  193 1    
   142   71  194 1    
   143   72   73 2    
   144   72   74 am   BACKBONE|DICT|INTERRES
   145   74   75 1    
   146   74  195 1    
   147   75   76 1    
   148   75   77 1    
   149   75  196 1    
   150   76  197 1    
   151   76  198 1    
   152   76  199 1    
   153   77   78 2    
   154   77   79 am   BACKBONE|DICT|INTERRES
   155   79   80 1    
   156   79  200 1    
   157   80   81 1    
   158   80   82 1    
   159   80  201 1    
   160   81  202 1    
   161   81  203 1    
   162   81  204 1    
   163   82   83 2    
   164   82   84 am   BACKBONE|DICT|INTERRES
   165   84   85 1    
   166   84  205 1    
   167   85   86 1    
   168   85   87 1    
   169   85  206 1    
   170   86  207 1    
   171   86  208 1    
   172   86  209 1    
   173   87   88 2    
   174   87   89 am   BACKBONE|DICT|INTERRES
   175   89   90 1    
   176   89  210 1    
   177   90   91 1    
   178   90   92 1    
   179   90  211 1    
   180   91  212 1    
   181   91  213 1    
   182   91  214 1    
   183   92   93 2    
   184   92   94 am   BACKBONE|DICT|INTERRES
   185   94   95 1    
   186   94  215 1    
   187   95   96 1    
   188   95   97 1    
   189   95  216 1    
   190   96  217 1    
   191   96  218 1    
   192   96  219 1    
   193   97   98 2    
   194   97   99 am   BACKBONE|DICT|INTERRES
   195   99  100 1    
   196   99  220 1    
   197  100  101 1    
   198  100  102 1    
   199  100  221 1    
   200  101  222 1    
   201  101  223 1    
   202  101  224 1    
   203  102  103 2    
   204  102  104 am   BACKBONE|DICT|INTERRES
   205  104  105 1    
   206  104  225 1    
   207  105  106 1    
   208  105  107 1    
   209  105  226 1    
   210  106  227 1    
   211  106  228 1    
   212  106  229 1    
   213  107  108 2    
   214  107  109 am   BACKBONE|DICT|INTERRES
   215  109  110 1    
   216  109  230 1    
   217  110  111 1    
   218  110  112 1    
   219  110  231 1    
   220  111  232 1    
   221  111  233 1    
   222  111  234 1    
   223  112  113 2    
   224  112  114 am   BACKBONE|DICT|INTERRES
   225  114  115 1    
   226  114  235 1    
   227  115  116 1    
   228  115  117 1    
   229  115  236 1    
   230  116  237 1    
   231  116  238 1    
   232  116  239 1    
   233  117  118 2    
   234  117  119 am   BACKBONE|DICT|INTERRES
   235  119  120 1    
   236  119  240 1    
   237  120  121 1    
   238  120  124 1    
   239  120  241 1    
   240  121  122 am   BACKBONE|DICT|INTERRES
   241  121  123 2    
   242  122  242 1    
   243  122  243 1    
   244  124  125 1    
   245  124  244 1    
   246  124  245 1    
   247  125  126 1    
   248  126  246 1    
   249  126  247 1    
@<TRIPOS>SUBSTRUCTURE
     1 UNK         1 GROUP             0       ****    0 ROOT    
