@<TRIPOS>MOLECULE
3R540
247   249    1
SMALL
USER_CHARGES


@<TRIPOS>ATOM
      1 CA         -4.8759  -15.9437  -51.6953 C.3       0 UNK        -0.1800 
      2 C          -4.0017  -16.5669  -50.6178 C.2       0 UNK         0.5000 
      3 O          -3.3809  -15.8407  -49.8425 O.2       0 UNK        -0.5000 
      4 N          -3.9778  -17.9027  -50.5390 N.am      1 UNK        -0.5000 
      5 CA         -3.2500  -18.6781  -49.5280 C.3       1 UNK         0.1400 
      6 C6         -3.2379  -20.1796  -49.9160 C.3       23 UNK        -0.0398 
      7 S7         -2.3934  -21.3015  -48.7489 S.3       23 UNK        -0.2404 
      8 C8         -1.3868  -22.3392  -49.8561 C.3       23 UNK        -0.0205 
      9 C9          0.0146  -21.7828  -50.0733 C.ar      23 UNK        -0.0193 
     10 C10         0.3224  -21.0566  -51.2263 C.ar      23 UNK        -0.1150 
     11 C11         1.6256  -20.6013  -51.4526 C.ar      23 UNK        -0.0193 
     12 C12         2.6267  -20.8864  -50.5190 C.ar      23 UNK        -0.1150 
     13 C13         2.3368  -21.6156  -49.3620 C.ar      23 UNK        -0.0193 
     14 C14         1.0235  -22.0456  -49.1418 C.ar      23 UNK        -0.1150 
     15 C15         3.4459  -21.9254  -48.3599 C.3       23 UNK        -0.0205 
     16 S16         4.0534  -23.6380  -48.4926 S.3       23 UNK        -0.2404 
     17 C17         2.9508  -24.5196  -47.3301 C.3       23 UNK        -0.0398 
     18 CA          3.6149  -24.8350  -45.9652 C.3       11 UNK         0.1400 
     19 N           4.0921  -23.6170  -45.3022 N.am      11 UNK        -0.5000 
     20 C           5.2523  -23.4893  -44.6462 C.2       10 UNK         0.5000 
     21 O           6.1030  -24.3768  -44.5780 O.2       10 UNK        -0.5000 
     22 CA          5.4920  -22.1518  -43.9158 C.3       10 UNK         0.1400 
     23 CB          6.3622  -21.2225  -44.7748 C.3       10 UNK        -0.1800 
     24 N           4.2473  -21.4635  -43.5549 N.am      10 UNK        -0.5000 
     25 C           3.3853  -21.9054  -42.6249 C.2       9 UNK         0.5000 
     26 O           3.5820  -22.9158  -41.9505 O.2       9 UNK        -0.5000 
     27 CA          2.0553  -21.1456  -42.4483 C.3       9 UNK         0.1400 
     28 CB          2.1633  -20.1482  -41.2856 C.3       9 UNK        -0.1800 
     29 N           1.6014  -20.4391  -43.6452 N.am      9 UNK        -0.5000 
     30 C           1.3674  -20.9897  -44.8446 C.2       8 UNK         0.5000 
     31 O           1.4736  -22.1958  -45.0793 O.2       8 UNK        -0.5000 
     32 CA          1.0364  -20.0182  -45.9913 C.3       8 UNK         0.1400 
     33 CB         -0.4700  -19.8264  -46.1302 C.3       8 UNK        -0.1800 
     34 N           1.6825  -18.7122  -45.8685 N.am      8 UNK        -0.5000 
     35 C           3.0066  -18.5067  -45.8377 C.2       7 UNK         0.5000 
     36 O           3.8405  -19.4104  -45.8794 O.2       7 UNK        -0.5000 
     37 CA          3.4701  -17.0501  -45.6955 C.3       7 UNK         0.1400 
     38 CB          3.4043  -16.3245  -47.0471 C.3       7 UNK        -0.1800 
     39 N           2.6507  -16.3416  -44.7138 N.am      7 UNK        -0.5000 
     40 C           2.8676  -16.3746  -43.3917 C.2       6 UNK         0.5000 
     41 O           3.8349  -16.9313  -42.8715 O.2       6 UNK        -0.5000 
     42 CA          1.8244  -15.6826  -42.4925 C.3       6 UNK         0.1400 
     43 CB          2.2178  -14.2194  -42.2396 C.3       6 UNK        -0.1800 
     44 N           0.4656  -15.7254  -43.0358 N.am      6 UNK        -0.5000 
     45 C          -0.2613  -16.8417  -43.1840 C.2       5 UNK         0.5000 
     46 O           0.1351  -17.9619  -42.8657 O.2       5 UNK        -0.5000 
     47 CA         -1.6485  -16.6817  -43.8350 C.3       5 UNK         0.1400 
     48 CB         -2.7051  -16.3559  -42.7696 C.3       5 UNK        -0.1800 
     49 N          -1.7057  -15.6720  -44.8960 N.am      5 UNK        -0.5000 
     50 C          -0.9332  -15.6366  -45.9911 C.2       4 UNK         0.5000 
     51 O           0.0150  -16.4015  -46.1766 O.2       4 UNK        -0.5000 
     52 CA         -1.2727  -14.5588  -47.0406 C.3       4 UNK         0.1400 
     53 CB         -0.4666  -14.7268  -48.3389 C.3       4 UNK        -0.1800 
     54 N          -2.6972  -14.5562  -47.3705 N.am      4 UNK        -0.5000 
     55 C          -3.6538  -13.9203  -46.6835 C.2       3 UNK         0.5000 
     56 O          -3.4328  -13.2319  -45.6867 O.2       3 UNK        -0.5000 
     57 CA         -5.1002  -14.1463  -47.1521 C.3       3 UNK         0.1400 
     58 CB         -5.4004  -13.3694  -48.4442 C.3       3 UNK        -0.1800 
     59 N          -5.3756  -15.5702  -47.3467 N.am      3 UNK        -0.5000 
     60 C          -5.5790  -16.4380  -46.3448 C.2       2 UNK         0.5000 
     61 O          -5.6105  -16.1125  -45.1580 O.2       2 UNK        -0.5000 
     62 CA         -5.8046  -17.9151  -46.7227 C.3       2 UNK         0.1400 
     63 CB         -7.3108  -18.1940  -46.8501 C.3       2 UNK        -0.1800 
     64 N          -5.1238  -18.3242  -47.9548 N.am      2 UNK        -0.5000 
     65 C          -3.7928  -18.3824  -48.1059 C.2       1 UNK         0.5000 
     66 O          -3.0103  -18.1334  -47.1916 O.2       1 UNK        -0.5000 
     67 C           2.6214  -25.5989  -45.0574 C.2       11 UNK         0.5000 
     68 O           2.1310  -26.6533  -45.4630 O.2       11 UNK        -0.5000 
     69 N           2.3211  -25.0465  -43.8690 N.am      12 UNK        -0.5000 
     70 CA          1.3032  -25.4763  -42.9046 C.3       12 UNK         0.1400 
     71 CB          1.6857  -26.8304  -42.2716 C.3       12 UNK        -0.1800 
     72 C          -0.1229  -25.4593  -43.4986 C.2       12 UNK         0.5000 
     73 O          -0.9153  -26.3640  -43.2275 O.2       12 UNK        -0.5000 
     74 N          -0.4153  -24.4372  -44.3124 N.am      13 UNK        -0.5000 
     75 CA         -1.6713  -24.2690  -45.0391 C.3       13 UNK         0.1400 
     76 CB         -1.3673  -24.3943  -46.5417 C.3       13 UNK        -0.1800 
     77 C          -2.3068  -22.9030  -44.7302 C.2       13 UNK         0.5000 
     78 O          -1.6815  -22.0557  -44.0911 O.2       13 UNK        -0.5000 
     79 N          -3.5365  -22.7208  -45.2227 N.am      14 UNK        -0.5000 
     80 CA         -4.3164  -21.4819  -45.2344 C.3       14 UNK         0.1400 
     81 CB         -4.6465  -20.9964  -43.8054 C.3       14 UNK        -0.1800 
     82 C          -5.5772  -21.7432  -46.0789 C.2       14 UNK         0.5000 
     83 O          -6.6980  -21.5642  -45.6001 O.2       14 UNK        -0.5000 
     84 N          -5.3694  -22.2527  -47.3004 N.am      15 UNK        -0.5000 
     85 CA         -6.4266  -22.6808  -48.2165 C.3       15 UNK         0.1400 
     86 CB         -5.7953  -23.5301  -49.3291 C.3       15 UNK        -0.1800 
     87 C          -7.1969  -21.4915  -48.8157 C.2       15 UNK         0.5000 
     88 O          -6.5884  -20.4718  -49.1420 O.2       15 UNK        -0.5000 
     89 N          -8.5174  -21.6455  -48.9750 N.am      16 UNK        -0.5000 
     90 CA         -9.3921  -20.6551  -49.6045 C.3       16 UNK         0.1400 
     91 CB        -10.8571  -21.0880  -49.4355 C.3       16 UNK        -0.1800 
     92 C          -9.0268  -20.4755  -51.0895 C.2       16 UNK         0.5000 
     93 O          -9.1503  -21.4313  -51.8587 O.2       16 UNK        -0.5000 
     94 N          -8.5494  -19.2721  -51.4400 N.am      17 UNK        -0.5000 
     95 CA         -7.9169  -18.9114  -52.7118 C.3       17 UNK         0.1400 
     96 CB         -8.9259  -18.9592  -53.8814 C.3       17 UNK        -0.1800 
     97 C          -6.6422  -19.7497  -52.9362 C.2       17 UNK         0.5000 
     98 O          -5.6190  -19.4495  -52.3190 O.2       17 UNK        -0.5000 
     99 N          -6.7296  -20.7757  -53.7953 N.am      18 UNK        -0.5000 
    100 CA        -5.7346  -21.8102  -54.1202 C.3       18 UNK         0.1400 
    101 CB        -5.3318  -22.5984  -52.8595 C.3       18 UNK        -0.1800 
    102 C         -4.4846  -21.3235  -54.8809 C.2       18 UNK         0.5000 
    103 O         -3.9300  -22.0847  -55.6749 O.2       18 UNK        -0.5000 
    104 N         -4.0684  -20.0802  -54.6435 N.am      19 UNK        -0.5000 
    105 CA        -2.9183  -19.4131  -55.2351 C.3       19 UNK         0.1400 
    106 CB        -1.6380  -19.8547  -54.4965 C.3       19 UNK        -0.1800 
    107 C         -3.1362  -17.8932  -55.1477 C.2       19 UNK         0.5000 
    108 O         -4.2163  -17.4393  -54.7581 O.2       19 UNK        -0.5000 
    109 N         -2.0944  -17.1316  -55.4969 N.am      20 UNK        -0.5000 
    110 CA        -1.9847  -15.6987  -55.2255 C.3       20 UNK         0.1400 
    111 CB        -0.8918  -15.1205  -56.1424 C.3       20 UNK        -0.1800 
    112 C         -1.6619  -15.4376  -53.7376 C.2       20 UNK         0.5000 
    113 O         -1.5409  -16.3769  -52.9487 O.2       20 UNK        -0.5000 
    114 N         -1.5020  -14.1605  -53.3713 N.am      21 UNK        -0.5000 
    115 CA        -1.0046  -13.7462  -52.0599 C.3       21 UNK         0.1400 
    116 CB        -1.3617  -12.2683  -51.8281 C.3       21 UNK        -0.1800 
    117 C          0.5133  -14.0089  -51.9680 C.2       21 UNK         0.5000 
    118 O          1.3122  -13.1304  -52.2954 O.2       21 UNK        -0.5000 
    119 N          0.8710  -15.2370  -51.5775 N.am      22 UNK        -0.5000 
    120 CA         2.2377  -15.7925  -51.5512 C.3       22 UNK         0.1400 
    121 C          3.2331  -15.1444  -50.5397 C.2       22 UNK         0.5000 
    122 N          2.8424  -14.1611  -49.7400 N.am      22 UNK        -0.7600 
    123 O          4.3962  -15.5347  -50.4898 O.2       22 UNK        -0.5000 
    124 C124        2.2107  -17.3381  -51.3949 C.3       23 UNK        -0.0398 
    125 S125        1.2627  -18.1555  -52.7244 S.3       23 UNK        -0.2404 
    126 C126        1.9605  -19.8351  -52.7241 C.3       23 UNK        -0.0205 
    127 H127       -5.2892  -16.6967  -52.3653 H         1 UNK         0.0600 
    128 H128       -4.2940  -15.2423  -52.2921 H         1 UNK         0.0600 
    129 H129       -5.7028  -15.3999  -51.2392 H         1 UNK         0.0600 
    130 H130       -4.5315  -18.4480  -51.1974 H         1 UNK         0.3000 
    131 H131       -2.2140  -18.3321  -49.5453 H         1 UNK         0.0600 
    132 H132       -4.2547  -20.5451  -50.0472 H         1 UNK         0.0800 
    133 H133       -2.7703  -20.2783  -50.8965 H         1 UNK         0.0800 
    134 H134       -1.8998  -22.4803  -50.8087 H         1 UNK         0.0800 
    135 H135       -1.3082  -23.3343  -49.4167 H         1 UNK         0.0800 
    136 H136       -0.4483  -20.8547  -51.9553 H         1 UNK         0.1150 
    137 H137        3.6374  -20.5472  -50.6979 H         1 UNK         0.1150 
    138 H138        0.7787  -22.5954  -48.2487 H         1 UNK         0.1150 
    139 H139        4.2882  -21.2502  -48.5180 H         1 UNK         0.0800 
    140 H140        3.1150  -21.7404  -47.3404 H         1 UNK         0.0800 
    141 H141        2.0390  -23.9471  -47.1725 H         1 UNK         0.0800 
    142 H142        2.6408  -25.4432  -47.8221 H         1 UNK         0.0800 
    143 H143        4.4549  -25.5075  -46.1502 H         1 UNK         0.0600 
    144 H144        3.4324  -22.8479  -45.2830 H         1 UNK         0.3000 
    145 H145        6.0357  -22.3696  -42.9941 H         1 UNK         0.0600 
    146 H146        6.5211  -20.2612  -44.2859 H         1 UNK         0.0600 
    147 H147        5.9104  -21.0352  -45.7494 H         1 UNK         0.0600 
    148 H148        7.3432  -21.6647  -44.9521 H         1 UNK         0.0600 
    149 H149        4.0074  -20.6466  -44.1055 H         1 UNK         0.3000 
    150 H150        1.2900  -21.8832  -42.1985 H         1 UNK         0.0600 
    151 H151        2.5141  -20.6390  -40.3768 H         1 UNK         0.0600 
    152 H152        1.1949  -19.7031  -41.0574 H         1 UNK         0.0600 
    153 H153        2.8589  -19.3397  -41.5140 H         1 UNK         0.0600 
    154 H154        1.4075  -19.4497  -43.5335 H         1 UNK         0.3000 
    155 H155        1.3885  -20.4579  -46.9198 H         1 UNK         0.0600 
    156 H156       -0.9601  -20.7787  -46.3229 H         1 UNK         0.0600 
    157 H157       -0.6975  -19.1671  -46.9666 H         1 UNK         0.0600 
    158 H158       -0.9108  -19.4087  -45.2271 H         1 UNK         0.0600 
    159 H159        1.0654  -17.9033  -45.8667 H         1 UNK         0.3000 
    160 H160        4.5117  -17.0544  -45.3668 H         1 UNK         0.0600 
    161 H161        2.3935  -16.3106  -47.4552 H         1 UNK         0.0600 
    162 H162        4.0443  -16.8142  -47.7821 H         1 UNK         0.0600 
    163 H163        3.7434  -15.2927  -46.9577 H         1 UNK         0.0600 
    164 H164        1.7934  -15.9288  -45.0585 H         1 UNK         0.3000 
    165 H165        1.8193  -16.2056  -41.5337 H         1 UNK         0.0600 
    166 H166        1.5327  -13.7417  -41.5390 H         1 UNK         0.0600 
    167 H167        3.2183  -14.1529  -41.8101 H         1 UNK         0.0600 
    168 H168        2.2170  -13.6370  -43.1618 H         1 UNK         0.0600 
    169 H169        0.0634  -14.8485  -43.3324 H         1 UNK         0.3000 
    170 H170       -1.9165  -17.6364  -44.2881 H         1 UNK         0.0600 
    171 H171       -2.5279  -15.3826  -42.3107 H         1 UNK         0.0600 
    172 H172       -3.7072  -16.3477  -43.1978 H         1 UNK         0.0600 
    173 H173       -2.7005  -17.1019  -41.9736 H         1 UNK         0.0600 
    174 H174       -2.4498  -14.9888  -44.8303 H         1 UNK         0.3000 
    175 H175       -1.0012  -13.5944  -46.6070 H         1 UNK         0.0600 
    176 H176       -0.6968  -15.6700  -48.8367 H         1 UNK         0.0600 
    177 H177       -0.6786  -13.9151  -49.0332 H         1 UNK         0.0600 
    178 H178        0.6042  -14.7114  -48.1380 H         1 UNK         0.0600 
    179 H179       -2.9676  -15.1191  -48.1747 H         1 UNK         0.3000 
    180 H180       -5.7678  -13.7666  -46.3755 H         1 UNK         0.0600 
    181 H181       -6.4338  -13.5136  -48.7597 H         1 UNK         0.0600 
    182 H182       -4.7539  -13.6726  -49.2674 H         1 UNK         0.0600 
    183 H183       -5.2533  -12.2992  -48.2942 H         1 UNK         0.0600 
    184 H184       -5.3124  -15.9257  -48.2890 H         1 UNK         0.3000 
    185 H185       -5.4132  -18.5217  -45.9040 H         1 UNK         0.0600 
    186 H186       -7.7387  -17.7072  -47.7270 H         1 UNK         0.0600 
    187 H187       -7.5112  -19.2612  -46.9247 H         1 UNK         0.0600 
    188 H188       -7.8533  -17.8330  -45.9753 H         1 UNK         0.0600 
    189 H189       -5.7106  -18.6577  -48.7115 H         1 UNK         0.3000 
    190 H190        2.8110  -24.1987  -43.6175 H         1 UNK         0.3000 
    191 H191        1.3058  -24.7311  -42.1081 H         1 UNK         0.0600 
    192 H192        1.0055  -27.0877  -41.4590 H         1 UNK         0.0600 
    193 H193        2.6916  -26.7984  -41.8530 H         1 UNK         0.0600 
    194 H194        1.6496  -27.6433  -42.9973 H         1 UNK         0.0600 
    195 H195        0.2641  -23.6945  -44.4496 H         1 UNK         0.3000 
    196 H196       -2.3898  -25.0409  -44.7568 H         1 UNK         0.0600 
    197 H197       -2.2772  -24.3475  -47.1408 H         1 UNK         0.0600 
    198 H198       -0.8787  -25.3422  -46.7686 H         1 UNK         0.0600 
    199 H199       -0.7111  -23.5918  -46.8765 H         1 UNK         0.0600 
    200 H200       -3.9777  -23.4910  -45.7068 H         1 UNK         0.3000 
    201 H201       -3.7354  -20.7089  -45.7419 H         1 UNK         0.0600 
    202 H202       -3.7489  -20.7135  -43.2566 H         1 UNK         0.0600 
    203 H203       -5.1631  -21.7658  -43.2309 H         1 UNK         0.0600 
    204 H204       -5.2886  -20.1152  -43.8300 H         1 UNK         0.0600 
    205 H205       -4.4244  -22.2994  -47.6558 H         1 UNK         0.3000 
    206 H206       -7.1270  -23.3077  -47.6605 H         1 UNK         0.0600 
    207 H207       -5.3027  -24.4128  -48.9209 H         1 UNK         0.0600 
    208 H208       -6.5518  -23.8776  -50.0336 H         1 UNK         0.0600 
    209 H209       -5.0529  -22.9648  -49.8929 H         1 UNK         0.0600 
    210 H210       -8.9470  -22.5212  -48.7154 H         1 UNK         0.3000 
    211 H211       -9.2586  -19.7043  -49.0840 H         1 UNK         0.0600 
    212 H212      -11.0497  -22.0551  -49.9018 H         1 UNK         0.0600 
    213 H213      -11.5319  -20.3631  -49.8925 H         1 UNK         0.0600 
    214 H214      -11.1269  -21.1636  -48.3819 H         1 UNK         0.0600 
    215 H215       -8.4584  -18.5779  -50.7123 H         1 UNK         0.3000 
    216 H216       -7.5869  -17.8764  -52.6113 H         1 UNK         0.0600 
    217 H217       -8.4508  -18.6620  -54.8172 H         1 UNK         0.0600 
    218 H218       -9.7506  -18.2680  -53.7076 H         1 UNK         0.0600 
    219 H219       -9.3566  -19.9494  -54.0297 H         1 UNK         0.0600 
    220 H220       -7.6278  -20.9105  -54.2377 H         1 UNK         0.3000 
    221 H221       -6.2470  -22.5046  -54.7877 H         1 UNK         0.0600 
    222 H222       -4.7758  -21.9801  -52.1545 H         1 UNK         0.0600 
    223 H223       -6.2099  -22.9890  -52.3457 H         1 UNK         0.0600 
    224 H224       -4.6979  -23.4480  -53.1157 H         1 UNK         0.0600 
    225 H225       -4.5912  -19.5154  -53.9801 H         1 UNK         0.3000 
    226 H226       -2.8482  -19.6831  -56.2905 H         1 UNK         0.0600 
    227 H227       -1.5401  -20.9400  -54.4729 H         1 UNK         0.0600 
    228 H228       -0.7419  -19.4662  -54.9805 H         1 UNK         0.0600 
    229 H229       -1.6361  -19.4954  -53.4665 H         1 UNK         0.0600 
    230 H230       -1.2386  -17.5915  -55.7693 H         1 UNK         0.3000 
    231 H231       -2.9356  -15.2153  -55.4589 H         1 UNK         0.0600 
    232 H232       -0.8289  -14.0354  -56.0554 H         1 UNK         0.0600 
    233 H233       -1.0976  -15.3438  -57.1895 H         1 UNK         0.0600 
    234 H234        0.0914  -15.5271  -55.9005 H         1 UNK         0.0600 
    235 H235       -1.5932  -13.4333  -54.0654 H         1 UNK         0.3000 
    236 H236       -1.5067  -14.3323  -51.2870 H         1 UNK         0.0600 
    237 H237       -0.9345  -11.6207  -52.5947 H         1 UNK         0.0600 
    238 H238       -2.4419  -12.1216  -51.8292 H         1 UNK         0.0600 
    239 H239       -0.9892  -11.9253  -50.8621 H         1 UNK         0.0600 
    240 H240        0.1304  -15.9127  -51.4371 H         1 UNK         0.3000 
    241 H241        2.6671  -15.5786  -52.5316 H         1 UNK         0.0600 
    242 H242        3.5067  -13.7461  -49.1070 H         1 UNK         0.3800 
    243 H243        1.9128  -13.7846  -49.8158 H         1 UNK         0.3800 
    244 H244        1.7778  -17.6189  -50.4331 H         1 UNK         0.0800 
    245 H245        3.2243  -17.7425  -51.4061 H         1 UNK         0.0800 
    246 H246        1.5604  -20.3789  -53.5810 H         1 UNK         0.0800 
    247 H247        3.0394  -19.7799  -52.8765 H         1 UNK         0.0800 
@<TRIPOS>BOND
     1    1    2 1    
     2    1  127 1    
     3    1  128 1    
     4    1  129 1    
     5    2    3 2    
     6    2    4 am   BACKBONE|DICT|INTERRES
     7    4    5 1    
     8    4  130 1    
     9    5    6 1    
    10    5   65 1    
    11    5  131 1    
    12    6    7 1    
    13    6  132 1    
    14    6  133 1    
    15    7    8 1    
    16    8    9 1    
    17    8  134 1    
    18    8  135 1    
    19    9   10 ar   
    20    9   14 ar   
    21   10   11 ar   
    22   10  136 1    
    23   11   12 ar   
    24   11  126 1    
    25   12   13 ar   
    26   12  137 1    
    27   13   14 ar   
    28   13   15 1    
    29   14  138 1    
    30   15   16 1    
    31   15  139 1    
    32   15  140 1    
    33   16   17 1    
    34   17   18 1    
    35   17  141 1    
    36   17  142 1    
    37   18   19 1    
    38   18   67 1    
    39   18  143 1    
    40   19   20 am   BACKBONE|DICT|INTERRES
    41   19  144 1    
    42   20   21 2    
    43   20   22 1    
    44   22   23 1    
    45   22   24 1    
    46   22  145 1    
    47   23  146 1    
    48   23  147 1    
    49   23  148 1    
    50   24   25 am   BACKBONE|DICT|INTERRES
    51   24  149 1    
    52   25   26 2    
    53   25   27 1    
    54   27   28 1    
    55   27   29 1    
    56   27  150 1    
    57   28  151 1    
    58   28  152 1    
    59   28  153 1    
    60   29   30 am   BACKBONE|DICT|INTERRES
    61   29  154 1    
    62   30   31 2    
    63   30   32 1    
    64   32   33 1    
    65   32   34 1    
    66   32  155 1    
    67   33  156 1    
    68   33  157 1    
    69   33  158 1    
    70   34   35 am   BACKBONE|DICT|INTERRES
    71   34  159 1    
    72   35   36 2    
    73   35   37 1    
    74   37   38 1    
    75   37   39 1    
    76   37  160 1    
    77   38  161 1    
    78   38  162 1    
    79   38  163 1    
    80   39   40 am   BACKBONE|DICT|INTERRES
    81   39  164 1    
    82   40   41 2    
    83   40   42 1    
    84   42   43 1    
    85   42   44 1    
    86   42  165 1    
    87   43  166 1    
    88   43  167 1    
    89   43  168 1    
    90   44   45 am   BACKBONE|DICT|INTERRES
    91   44  169 1    
    92   45   46 2    
    93   45   47 1    
    94   47   48 1    
    95   47   49 1    
    96   47  170 1    
    97   48  171 1    
    98   48  172 1    
    99   48  173 1    
   100   49   50 am   BACKBONE|DICT|INTERRES
   101   49  174 1    
   102   50   51 2    
   103   50   52 1    
   104   52   53 1    
   105   52   54 1    
   106   52  175 1    
   107   53  176 1    
   108   53  177 1    
   109   53  178 1    
   110   54   55 am   BACKBONE|DICT|INTERRES
   111   54  179 1    
   112   55   56 2    
   113   55   57 1    
   114   57   58 1    
   115   57   59 1    
   116   57  180 1    
   117   58  181 1    
   118   58  182 1    
   119   58  183 1    
   120   59   60 am   BACKBONE|DICT|INTERRES
   121   59  184 1    
   122   60   61 2    
   123   60   62 1    
   124   62   63 1    
   125   62   64 1    
   126   62  185 1    
   127   63  186 1    
   128   63  187 1    
   129   63  188 1    
   130   64   65 am   BACKBONE|DICT|INTERRES
   131   64  189 1    
   132   65   66 2    
   133   67   68 2    
   134   67   69 am   BACKBONE|DICT|INTERRES
   135   69   70 1    
   136   69  190 1    
   137   70   71 1    
   138   70   72 1    
   139   70  191 1    
   140   71  192 1    
   141   71  193 1    
   142   71  194 1    
   143   72   73 2    
   144   72   74 am   BACKBONE|DICT|INTERRES
   145   74   75 1    
   146   74  195 1    
   147   75   76 1    
   148   75   77 1    
   149   75  196 1    
   150   76  197 1    
   151   76  198 1    
   152   76  199 1    
   153   77   78 2    
   154   77   79 am   BACKBONE|DICT|INTERRES
   155   79   80 1    
   156   79  200 1    
   157   80   81 1    
   158   80   82 1    
   159   80  201 1    
   160   81  202 1    
   161   81  203 1    
   162   81  204 1    
   163   82   83 2    
   164   82   84 am   BACKBONE|DICT|INTERRES
   165   84   85 1    
   166   84  205 1    
   167   85   86 1    
   168   85   87 1    
   169   85  206 1    
   170   86  207 1    
   171   86  208 1    
   172   86  209 1    
   173   87   88 2    
   174   87   89 am   BACKBONE|DICT|INTERRES
   175   89   90 1    
   176   89  210 1    
   177   90   91 1    
   178   90   92 1    
   179   90  211 1    
   180   91  212 1    
   181   91  213 1    
   182   91  214 1    
   183   92   93 2    
   184   92   94 am   BACKBONE|DICT|INTERRES
   185   94   95 1    
   186   94  215 1    
   187   95   96 1    
   188   95   97 1    
   189   95  216 1    
   190   96  217 1    
   191   96  218 1    
   192   96  219 1    
   193   97   98 2    
   194   97   99 am   BACKBONE|DICT|INTERRES
   195   99  100 1    
   196   99  220 1    
   197  100  101 1    
   198  100  102 1    
   199  100  221 1    
   200  101  222 1    
   201  101  223 1    
   202  101  224 1    
   203  102  103 2    
   204  102  104 am   BACKBONE|DICT|INTERRES
   205  104  105 1    
   206  104  225 1    
   207  105  106 1    
   208  105  107 1    
   209  105  226 1    
   210  106  227 1    
   211  106  228 1    
   212  106  229 1    
   213  107  108 2    
   214  107  109 am   BACKBONE|DICT|INTERRES
   215  109  110 1    
   216  109  230 1    
   217  110  111 1    
   218  110  112 1    
   219  110  231 1    
   220  111  232 1    
   221  111  233 1    
   222  111  234 1    
   223  112  113 2    
   224  112  114 am   BACKBONE|DICT|INTERRES
   225  114  115 1    
   226  114  235 1    
   227  115  116 1    
   228  115  117 1    
   229  115  236 1    
   230  116  237 1    
   231  116  238 1    
   232  116  239 1    
   233  117  118 2    
   234  117  119 am   BACKBONE|DICT|INTERRES
   235  119  120 1    
   236  119  240 1    
   237  120  121 1    
   238  120  124 1    
   239  120  241 1    
   240  121  122 am   BACKBONE|DICT|INTERRES
   241  121  123 2    
   242  122  242 1    
   243  122  243 1    
   244  124  125 1    
   245  124  244 1    
   246  124  245 1    
   247  125  126 1    
   248  126  246 1    
   249  126  247 1    
@<TRIPOS>SUBSTRUCTURE
     1 UNK         1 GROUP             0       ****    0 ROOT    
