@<TRIPOS>MOLECULE
3R540
247   249    1
SMALL
USER_CHARGES


@<TRIPOS>ATOM
      1 CA         -1.1401  -12.8124  -48.9420 C.3       0 UNK        -0.1800 
      2 C          -0.4750  -12.7298  -47.5767 C.2       0 UNK         0.5000 
      3 O           0.6930  -12.3524  -47.4906 O.2       0 UNK        -0.5000 
      4 N          -1.2169  -13.0581  -46.5098 N.am      1 UNK        -0.5000 
      5 CA         -0.7435  -13.1346  -45.1179 C.3       1 UNK         0.1400 
      6 C6         -1.8202  -13.7161  -44.1683 C.3       23 UNK        -0.0398 
      7 S7         -2.2350  -15.4401  -44.5820 S.3       23 UNK        -0.2404 
      8 C8         -3.8847  -15.2866  -45.3352 C.3       23 UNK        -0.0205 
      9 C9         -4.0299  -16.2638  -46.4898 C.ar      23 UNK        -0.0193 
     10 C10        -3.8218  -15.8319  -47.8029 C.ar      23 UNK        -0.1150 
     11 C11        -3.9052  -16.7342  -48.8651 C.ar      23 UNK        -0.0193 
     12 C12        -4.2022  -18.0724  -48.6058 C.ar      23 UNK        -0.1150 
     13 C13        -4.4103  -18.5242  -47.2980 C.ar      23 UNK        -0.0193 
     14 C14        -4.3411  -17.6056  -46.2453 C.ar      23 UNK        -0.1150 
     15 C15        -4.6944  -19.9984  -47.0187 C.3       23 UNK        -0.0205 
     16 S16        -3.5737  -21.0933  -47.9482 S.3       23 UNK        -0.2404 
     17 C17        -4.0224  -22.7552  -47.3643 C.3       23 UNK        -0.0398 
     18 CA         -2.7465  -23.5970  -47.1278 C.3       11 UNK         0.1400 
     19 N          -1.9487  -23.0955  -46.0029 N.am      11 UNK        -0.5000 
     20 C          -0.6800  -23.4198  -45.7260 C.2       10 UNK         0.5000 
     21 O          -0.0550  -24.2653  -46.3689 O.2       10 UNK        -0.5000 
     22 CA         -0.0168  -22.7098  -44.5196 C.3       10 UNK         0.1400 
     23 CB          1.5128  -22.8811  -44.5095 C.3       10 UNK        -0.1800 
     24 N          -0.3217  -21.2781  -44.4226 N.am      10 UNK        -0.5000 
     25 C          -1.4929  -20.7313  -44.0671 C.2       9 UNK         0.5000 
     26 O          -2.4882  -21.3980  -43.7805 O.2       9 UNK        -0.5000 
     27 CA         -1.5894  -19.1938  -44.0299 C.3       9 UNK         0.1400 
     28 CB         -1.6322  -18.6995  -42.5754 C.3       9 UNK        -0.1800 
     29 N          -0.5147  -18.4911  -44.7308 N.am      9 UNK        -0.5000 
     30 C          -0.2758  -18.5209  -46.0504 C.2       8 UNK         0.5000 
     31 O          -0.9149  -19.2051  -46.8453 O.2       8 UNK        -0.5000 
     32 CA          0.8959  -17.6624  -46.5699 C.3       8 UNK         0.1400 
     33 CB          0.3710  -16.4240  -47.3108 C.3       8 UNK        -0.1800 
     34 N           1.8273  -17.2380  -45.5192 N.am      8 UNK        -0.5000 
     35 C           2.6313  -18.0651  -44.8340 C.2       7 UNK         0.5000 
     36 O           2.6950  -19.2781  -45.0369 O.2       7 UNK        -0.5000 
     37 CA          3.4694  -17.4412  -43.7082 C.3       7 UNK         0.1400 
     38 CB          4.8376  -16.9882  -44.2392 C.3       7 UNK        -0.1800 
     39 N           2.7915  -16.2966  -43.1022 N.am      7 UNK        -0.5000 
     40 C           1.9517  -16.3542  -42.0619 C.2       6 UNK         0.5000 
     41 O           1.6161  -17.4135  -41.5311 O.2       6 UNK        -0.5000 
     42 CA          1.3744  -15.0188  -41.5301 C.3       6 UNK         0.1400 
     43 CB          1.3040  -14.9924  -39.9901 C.3       6 UNK        -0.1800 
     44 N           2.0409  -13.8077  -42.0310 N.am      6 UNK        -0.5000 
     45 C           3.3285  -13.4542  -41.9027 C.2       5 UNK         0.5000 
     46 O           4.1705  -14.1053  -41.2813 O.2       5 UNK        -0.5000 
     47 CA          3.7401  -12.1635  -42.6416 C.3       5 UNK         0.1400 
     48 CB          4.8869  -11.4390  -41.9151 C.3       5 UNK        -0.1800 
     49 N           4.1245  -12.3311  -44.0510 N.am      5 UNK        -0.5000 
     50 C           3.6446  -13.1629  -44.9897 C.2       4 UNK         0.5000 
     51 O           2.8147  -14.0538  -44.8023 O.2       4 UNK        -0.5000 
     52 CA          4.1352  -12.8833  -46.4171 C.3       4 UNK         0.1400 
     53 CB          3.8987  -14.0673  -47.3712 C.3       4 UNK        -0.1800 
     54 N           3.3924  -11.7327  -46.9126 N.am      4 UNK        -0.5000 
     55 C           3.7900  -10.4585  -46.8329 C.2       3 UNK         0.5000 
     56 O           4.8889  -10.1075  -46.4014 O.2       3 UNK        -0.5000 
     57 CA          2.7616   -9.4046  -47.2657 C.3       3 UNK         0.1400 
     58 CB          2.4982   -9.4725  -48.7792 C.3       3 UNK        -0.1800 
     59 N           1.5046   -9.5986  -46.5443 N.am      3 UNK        -0.5000 
     60 C           1.1885   -8.9945  -45.3905 C.2       2 UNK         0.5000 
     61 O           1.9222   -8.1884  -44.8175 O.2       2 UNK        -0.5000 
     62 CA         -0.1833   -9.3305  -44.7732 C.3       2 UNK         0.1400 
     63 CB         -1.2351   -8.3019  -45.2163 C.3       2 UNK        -0.1800 
     64 N          -0.6521  -10.6697  -45.1284 N.am      2 UNK        -0.5000 
     65 C          -0.2188  -11.7990  -44.5527 C.2       1 UNK         0.5000 
     66 O           0.5623  -11.8243  -43.6019 O.2       1 UNK        -0.5000 
     67 C          -3.0781  -25.0979  -47.0266 C.2       11 UNK         0.5000 
     68 O          -3.4550  -25.6906  -48.0366 O.2       11 UNK        -0.5000 
     69 N          -2.8784  -25.7142  -45.8531 N.am      12 UNK        -0.5000 
     70 CA         -2.9463  -27.1636  -45.6511 C.3       12 UNK         0.1400 
     71 CB         -2.7307  -27.4777  -44.1637 C.3       12 UNK        -0.1800 
     72 C          -1.9369  -27.9406  -46.5224 C.2       12 UNK         0.5000 
     73 O          -2.2608  -29.0299  -46.9954 O.2       12 UNK        -0.5000 
     74 N          -0.7627  -27.3416  -46.7776 N.am      13 UNK        -0.5000 
     75 CA          0.2645  -27.8771  -47.6762 C.3       13 UNK         0.1400 
     76 CB          1.5853  -27.1323  -47.4303 C.3       13 UNK        -0.1800 
     77 C          -0.1324  -27.7956  -49.1650 C.2       13 UNK         0.5000 
     78 O           0.3816  -28.5706  -49.9716 O.2       13 UNK        -0.5000 
     79 N          -1.0512  -26.8786  -49.4963 N.am      14 UNK        -0.5000 
     80 CA         -1.6393  -26.7017  -50.8246 C.3       14 UNK         0.1400 
     81 CB         -1.8313  -25.1950  -51.0806 C.3       14 UNK        -0.1800 
     82 C          -2.9763  -27.4577  -50.9716 C.2       14 UNK         0.5000 
     83 O          -3.6427  -27.2952  -51.9921 O.2       14 UNK        -0.5000 
     84 N          -3.3716  -28.2381  -49.9524 N.am      15 UNK        -0.5000 
     85 CA         -4.6427  -28.9637  -49.8383 C.3       15 UNK         0.1400 
     86 CB         -4.7219  -30.1021  -50.8769 C.3       15 UNK        -0.1800 
     87 C          -5.8688  -28.0238  -49.8682 C.2       15 UNK         0.5000 
     88 O          -6.8820  -28.3406  -50.4932 O.2       15 UNK        -0.5000 
     89 N          -5.7319  -26.8736  -49.1924 N.am      16 UNK        -0.5000 
     90 CA         -6.6952  -25.7777  -49.0461 C.3       16 UNK         0.1400 
     91 CB         -8.0331  -26.2653  -48.4522 C.3       16 UNK        -0.1800 
     92 C          -6.8844  -24.9189  -50.3138 C.2       16 UNK         0.5000 
     93 O          -7.7734  -24.0651  -50.3312 O.2       16 UNK        -0.5000 
     94 N          -6.0409  -25.1090  -51.3389 N.am      17 UNK        -0.5000 
     95 CA         -6.0268  -24.3015  -52.5576 C.3       17 UNK         0.1400 
     96 CB         -5.3859  -25.1043  -53.7018 C.3       17 UNK        -0.1800 
     97 C          -5.3062  -22.9635  -52.3100 C.2       17 UNK         0.5000 
     98 O          -4.1394  -22.8072  -52.6737 O.2       17 UNK        -0.5000 
     99 N          -6.0176  -22.0123  -51.6923 N.am      18 UNK        -0.5000 
    100 CA        -5.5369  -20.6631  -51.3752 C.3       18 UNK         0.1400 
    101 CB        -6.6502  -19.8938  -50.6481 C.3       18 UNK        -0.1800 
    102 C         -5.0449  -19.8733  -52.6045 C.2       18 UNK         0.5000 
    103 O         -4.0551  -19.1467  -52.5125 O.2       18 UNK        -0.5000 
    104 N         -5.7175  -20.0763  -53.7455 N.am      19 UNK        -0.5000 
    105 CA        -5.3587  -19.5030  -55.0430 C.3       19 UNK         0.1400 
    106 CB        -6.5120  -19.7428  -56.0291 C.3       19 UNK        -0.1800 
    107 C         -4.0371  -20.0532  -55.6156 C.2       19 UNK         0.5000 
    108 O         -3.3845  -19.3524  -56.3891 O.2       19 UNK        -0.5000 
    109 N         -3.6626  -21.2821  -55.2305 N.am      20 UNK        -0.5000 
    110 CA        -2.3765  -21.8878  -55.5700 C.3       20 UNK         0.1400 
    111 CB        -2.5067  -23.4187  -55.6047 C.3       20 UNK        -0.1800 
    112 C         -1.2938  -21.4481  -54.5723 C.2       20 UNK         0.5000 
    113 O         -0.1937  -21.0930  -54.9962 O.2       20 UNK        -0.5000 
    114 N         -1.6349  -21.4392  -53.2741 N.am      21 UNK        -0.5000 
    115 CA        -0.7603  -21.0371  -52.1682 C.3       21 UNK         0.1400 
    116 CB        -1.5025  -21.2200  -50.8368 C.3       21 UNK        -0.1800 
    117 C         -0.2299  -19.5961  -52.2986 C.2       21 UNK         0.5000 
    118 O          0.9614  -19.3685  -52.0833 O.2       21 UNK        -0.5000 
    119 N         -1.1112  -18.6700  -52.6943 N.am      22 UNK        -0.5000 
    120 CA        -0.7777  -17.2739  -53.0251 C.3       22 UNK         0.1400 
    121 C         -0.4934  -17.0463  -54.5408 C.2       22 UNK         0.5000 
    122 N         -0.3118  -18.0785  -55.3556 N.am      22 UNK        -0.7600 
    123 O         -0.4123  -15.9070  -54.9924 O.2       22 UNK        -0.5000 
    124 C124       -1.8336  -16.2834  -52.4672 C.3       23 UNK        -0.0398 
    125 S125       -1.8616  -16.3014  -50.6433 S.3       23 UNK        -0.2404 
    126 C126       -3.6435  -16.2824  -50.2913 C.3       23 UNK        -0.0205 
    127 H127       -0.6662  -13.5917  -49.5386 H         1 UNK         0.0600 
    128 H128       -1.0323  -11.8650  -49.4698 H         1 UNK         0.0600 
    129 H129       -2.2029  -13.0395  -48.8656 H         1 UNK         0.0600 
    130 H130       -2.1693  -13.3568  -46.6537 H         1 UNK         0.3000 
    131 H131        0.1107  -13.8146  -45.1134 H         1 UNK         0.0600 
    132 H132       -1.4625  -13.7200  -43.1371 H         1 UNK         0.0800 
    133 H133       -2.7193  -13.0976  -44.1689 H         1 UNK         0.0800 
    134 H134       -4.0551  -14.2689  -45.6880 H         1 UNK         0.0800 
    135 H135       -4.6462  -15.4813  -44.5786 H         1 UNK         0.0800 
    136 H136       -3.5751  -14.7994  -48.0003 H         1 UNK         0.1150 
    137 H137       -4.2368  -18.7708  -49.4279 H         1 UNK         0.1150 
    138 H138       -4.5026  -17.9362  -45.2294 H         1 UNK         0.1150 
    139 H139       -4.5877  -20.2109  -45.9538 H         1 UNK         0.0800 
    140 H140       -5.7271  -20.2212  -47.2889 H         1 UNK         0.0800 
    141 H141       -4.6558  -23.2019  -48.1327 H         1 UNK         0.0800 
    142 H142       -4.6241  -22.6926  -46.4562 H         1 UNK         0.0800 
    143 H143       -2.1223  -23.5062  -48.0200 H         1 UNK         0.0600 
    144 H144       -2.3953  -22.4138  -45.3973 H         1 UNK         0.3000 
    145 H145       -0.4076  -23.1955  -43.6235 H         1 UNK         0.0600 
    146 H146        1.9561  -22.4201  -43.6266 H         1 UNK         0.0600 
    147 H147        1.7936  -23.9351  -44.4969 H         1 UNK         0.0600 
    148 H148        1.9713  -22.4272  -45.3891 H         1 UNK         0.0600 
    149 H149        0.4274  -20.6485  -44.6758 H         1 UNK         0.3000 
    150 H150       -2.5277  -18.9225  -44.5127 H         1 UNK         0.0600 
    151 H151       -2.4568  -19.1593  -42.0292 H         1 UNK         0.0600 
    152 H152       -1.7750  -17.6204  -42.5244 H         1 UNK         0.0600 
    153 H153       -0.7112  -18.9408  -42.0434 H         1 UNK         0.0600 
    154 H154        0.0781  -17.9054  -44.1626 H         1 UNK         0.3000 
    155 H155        1.4481  -18.2752  -47.2853 H         1 UNK         0.0600 
    156 H156       -0.1078  -15.7233  -46.6295 H         1 UNK         0.0600 
    157 H157       -0.3688  -16.7016  -48.0622 H         1 UNK         0.0600 
    158 H158        1.1736  -15.8998  -47.8274 H         1 UNK         0.0600 
    159 H159        1.8481  -16.2517  -45.2963 H         1 UNK         0.3000 
    160 H160        3.6381  -18.2083  -42.9494 H         1 UNK         0.0600 
    161 H161        4.7388  -16.2210  -45.0067 H         1 UNK         0.0600 
    162 H162        5.3833  -17.8247  -44.6776 H         1 UNK         0.0600 
    163 H163        5.4540  -16.5806  -43.4376 H         1 UNK         0.0600 
    164 H164        2.9546  -15.3902  -43.5342 H         1 UNK         0.3000 
    165 H165        0.3519  -14.9720  -41.9062 H         1 UNK         0.0600 
    166 H166        2.2915  -15.0937  -39.5391 H         1 UNK         0.0600 
    167 H167        0.8650  -14.0613  -39.6317 H         1 UNK         0.0600 
    168 H168        0.6861  -15.8067  -39.6099 H         1 UNK         0.0600 
    169 H169        1.4626  -13.1985  -42.6049 H         1 UNK         0.3000 
    170 H170        2.8851  -11.4878  -42.6230 H         1 UNK         0.0600 
    171 H171        5.8171  -12.0066  -41.9653 H         1 UNK         0.0600 
    172 H172        5.0707  -10.4556  -42.3484 H         1 UNK         0.0600 
    173 H173        4.6502  -11.2877  -40.8610 H         1 UNK         0.0600 
    174 H174        4.7824  -11.6382  -44.3802 H         1 UNK         0.3000 
    175 H175        5.2068  -12.6750  -46.3889 H         1 UNK         0.0600 
    176 H176        2.8385  -14.3025  -47.4641 H         1 UNK         0.0600 
    177 H177        4.2769  -13.8467  -48.3693 H         1 UNK         0.0600 
    178 H178        4.4085  -14.9645  -47.0208 H         1 UNK         0.0600 
    179 H179        2.4392  -11.9290  -47.2138 H         1 UNK         0.3000 
    180 H180        3.1725   -8.4175  -47.0429 H         1 UNK         0.0600 
    181 H181        1.8163   -8.6822  -49.0933 H         1 UNK         0.0600 
    182 H182        2.0607  -10.4265  -49.0764 H         1 UNK         0.0600 
    183 H183        3.4239   -9.3457  -49.3419 H         1 UNK         0.0600 
    184 H184        0.8851  -10.3124  -46.9066 H         1 UNK         0.3000 
    185 H185       -0.0836   -9.2672  -43.6874 H         1 UNK         0.0600 
    186 H186       -2.1965   -8.4899  -44.7380 H         1 UNK         0.0600 
    187 H187       -0.9306   -7.2903  -44.9444 H         1 UNK         0.0600 
    188 H188       -1.3871   -8.3198  -46.2962 H         1 UNK         0.0600 
    189 H189       -1.3053  -10.7394  -45.8948 H         1 UNK         0.3000 
    190 H190       -2.5726  -25.1582  -45.0683 H         1 UNK         0.3000 
    191 H191       -3.9487  -27.4936  -45.9317 H         1 UNK         0.0600 
    192 H192       -2.7964  -28.5506  -43.9778 H         1 UNK         0.0600 
    193 H193       -3.4874  -26.9952  -43.5448 H         1 UNK         0.0600 
    194 H194       -1.7511  -27.1439  -43.8190 H         1 UNK         0.0600 
    195 H195       -0.5818  -26.4237  -46.3882 H         1 UNK         0.3000 
    196 H196        0.4173  -28.9306  -47.4324 H         1 UNK         0.0600 
    197 H197        1.5032  -26.0740  -47.6804 H         1 UNK         0.0600 
    198 H198        1.8941  -27.2078  -46.3876 H         1 UNK         0.0600 
    199 H199        2.3882  -27.5508  -48.0384 H         1 UNK         0.0600 
    200 H200       -1.4548  -26.3141  -48.7612 H         1 UNK         0.3000 
    201 H201       -0.9606  -27.0903  -51.5863 H         1 UNK         0.0600 
    202 H202       -2.1787  -25.0086  -52.0977 H         1 UNK         0.0600 
    203 H203       -2.5657  -24.7573  -50.4039 H         1 UNK         0.0600 
    204 H204       -0.8951  -24.6505  -50.9573 H         1 UNK         0.0600 
    205 H205       -2.7635  -28.3041  -49.1470 H         1 UNK         0.3000 
    206 H206       -4.6403  -29.4235  -48.8489 H         1 UNK         0.0600 
    207 H207       -3.8472  -30.7497  -50.8186 H         1 UNK         0.0600 
    208 H208       -5.5990  -30.7269  -50.7046 H         1 UNK         0.0600 
    209 H209       -4.7894  -29.7199  -51.8958 H         1 UNK         0.0600 
    210 H210       -4.8278  -26.6828  -48.7646 H         1 UNK         0.3000 
    211 H211       -6.2512  -25.1073  -48.3097 H         1 UNK         0.0600 
    212 H212       -8.6629  -25.4222  -48.1663 H         1 UNK         0.0600 
    213 H213       -7.8727  -26.8658  -47.5567 H         1 UNK         0.0600 
    214 H214       -8.6012  -26.8647  -49.1636 H         1 UNK         0.0600 
    215 H215       -5.3290  -25.8239  -51.2644 H         1 UNK         0.3000 
    216 H216       -7.0551  -24.0828  -52.8532 H         1 UNK         0.0600 
    217 H217       -4.3363  -25.3229  -53.5078 H         1 UNK         0.0600 
    218 H218       -5.4334  -24.5493  -54.6394 H         1 UNK         0.0600 
    219 H219       -5.9009  -26.0524  -53.8568 H         1 UNK         0.0600 
    220 H220       -6.9460  -22.2534  -51.3675 H         1 UNK         0.3000 
    221 H221       -4.6905  -20.7699  -50.6969 H         1 UNK         0.0600 
    222 H222       -6.8832  -20.3558  -49.6885 H         1 UNK         0.0600 
    223 H223       -7.5672  -19.8618  -51.2374 H         1 UNK         0.0600 
    224 H224       -6.3576  -18.8623  -50.4497 H         1 UNK         0.0600 
    225 H225       -6.5175  -20.6913  -53.7264 H         1 UNK         0.3000 
    226 H226       -5.2362  -18.4256  -54.9133 H         1 UNK         0.0600 
    227 H227       -6.6948  -20.8069  -56.1837 H         1 UNK         0.0600 
    228 H228       -7.4374  -19.2903  -55.6722 H         1 UNK         0.0600 
    229 H229       -6.2914  -19.3028  -57.0026 H         1 UNK         0.0600 
    230 H230       -4.2212  -21.7729  -54.5450 H         1 UNK         0.3000 
    231 H231       -2.0745  -21.5593  -56.5670 H         1 UNK         0.0600 
    232 H232       -2.7246  -23.8341  -54.6214 H         1 UNK         0.0600 
    233 H233       -1.5789  -23.8765  -55.9497 H         1 UNK         0.0600 
    234 H234       -3.2976  -23.7334  -56.2856 H         1 UNK         0.0600 
    235 H235       -2.5556  -21.7843  -53.0177 H         1 UNK         0.3000 
    236 H236        0.0982  -21.7115  -52.1741 H         1 UNK         0.0600 
    237 H237       -1.8919  -22.2320  -50.7289 H         1 UNK         0.0600 
    238 H238       -0.8405  -21.0322  -49.9905 H         1 UNK         0.0600 
    239 H239       -2.3401  -20.5283  -50.7501 H         1 UNK         0.0600 
    240 H240       -2.0850  -18.9350  -52.8073 H         1 UNK         0.3000 
    241 H241        0.1666  -17.0194  -52.5405 H         1 UNK         0.0600 
    242 H242       -0.1321  -17.9061  -56.3317 H         1 UNK         0.3800 
    243 H243       -0.3290  -19.0313  -55.0142 H         1 UNK         0.3800 
    244 H244       -2.8205  -16.5193  -52.8680 H         1 UNK         0.0800 
    245 H245       -1.6138  -15.2591  -52.7722 H         1 UNK         0.0800 
    246 H246       -4.1690  -16.9368  -50.9876 H         1 UNK         0.0800 
    247 H247       -4.0364  -15.2773  -50.4501 H         1 UNK         0.0800 
@<TRIPOS>BOND
     1    1    2 1    
     2    1  127 1    
     3    1  128 1    
     4    1  129 1    
     5    2    3 2    
     6    2    4 am   BACKBONE|DICT|INTERRES
     7    4    5 1    
     8    4  130 1    
     9    5    6 1    
    10    5   65 1    
    11    5  131 1    
    12    6    7 1    
    13    6  132 1    
    14    6  133 1    
    15    7    8 1    
    16    8    9 1    
    17    8  134 1    
    18    8  135 1    
    19    9   10 ar   
    20    9   14 ar   
    21   10   11 ar   
    22   10  136 1    
    23   11   12 ar   
    24   11  126 1    
    25   12   13 ar   
    26   12  137 1    
    27   13   14 ar   
    28   13   15 1    
    29   14  138 1    
    30   15   16 1    
    31   15  139 1    
    32   15  140 1    
    33   16   17 1    
    34   17   18 1    
    35   17  141 1    
    36   17  142 1    
    37   18   19 1    
    38   18   67 1    
    39   18  143 1    
    40   19   20 am   BACKBONE|DICT|INTERRES
    41   19  144 1    
    42   20   21 2    
    43   20   22 1    
    44   22   23 1    
    45   22   24 1    
    46   22  145 1    
    47   23  146 1    
    48   23  147 1    
    49   23  148 1    
    50   24   25 am   BACKBONE|DICT|INTERRES
    51   24  149 1    
    52   25   26 2    
    53   25   27 1    
    54   27   28 1    
    55   27   29 1    
    56   27  150 1    
    57   28  151 1    
    58   28  152 1    
    59   28  153 1    
    60   29   30 am   BACKBONE|DICT|INTERRES
    61   29  154 1    
    62   30   31 2    
    63   30   32 1    
    64   32   33 1    
    65   32   34 1    
    66   32  155 1    
    67   33  156 1    
    68   33  157 1    
    69   33  158 1    
    70   34   35 am   BACKBONE|DICT|INTERRES
    71   34  159 1    
    72   35   36 2    
    73   35   37 1    
    74   37   38 1    
    75   37   39 1    
    76   37  160 1    
    77   38  161 1    
    78   38  162 1    
    79   38  163 1    
    80   39   40 am   BACKBONE|DICT|INTERRES
    81   39  164 1    
    82   40   41 2    
    83   40   42 1    
    84   42   43 1    
    85   42   44 1    
    86   42  165 1    
    87   43  166 1    
    88   43  167 1    
    89   43  168 1    
    90   44   45 am   BACKBONE|DICT|INTERRES
    91   44  169 1    
    92   45   46 2    
    93   45   47 1    
    94   47   48 1    
    95   47   49 1    
    96   47  170 1    
    97   48  171 1    
    98   48  172 1    
    99   48  173 1    
   100   49   50 am   BACKBONE|DICT|INTERRES
   101   49  174 1    
   102   50   51 2    
   103   50   52 1    
   104   52   53 1    
   105   52   54 1    
   106   52  175 1    
   107   53  176 1    
   108   53  177 1    
   109   53  178 1    
   110   54   55 am   BACKBONE|DICT|INTERRES
   111   54  179 1    
   112   55   56 2    
   113   55   57 1    
   114   57   58 1    
   115   57   59 1    
   116   57  180 1    
   117   58  181 1    
   118   58  182 1    
   119   58  183 1    
   120   59   60 am   BACKBONE|DICT|INTERRES
   121   59  184 1    
   122   60   61 2    
   123   60   62 1    
   124   62   63 1    
   125   62   64 1    
   126   62  185 1    
   127   63  186 1    
   128   63  187 1    
   129   63  188 1    
   130   64   65 am   BACKBONE|DICT|INTERRES
   131   64  189 1    
   132   65   66 2    
   133   67   68 2    
   134   67   69 am   BACKBONE|DICT|INTERRES
   135   69   70 1    
   136   69  190 1    
   137   70   71 1    
   138   70   72 1    
   139   70  191 1    
   140   71  192 1    
   141   71  193 1    
   142   71  194 1    
   143   72   73 2    
   144   72   74 am   BACKBONE|DICT|INTERRES
   145   74   75 1    
   146   74  195 1    
   147   75   76 1    
   148   75   77 1    
   149   75  196 1    
   150   76  197 1    
   151   76  198 1    
   152   76  199 1    
   153   77   78 2    
   154   77   79 am   BACKBONE|DICT|INTERRES
   155   79   80 1    
   156   79  200 1    
   157   80   81 1    
   158   80   82 1    
   159   80  201 1    
   160   81  202 1    
   161   81  203 1    
   162   81  204 1    
   163   82   83 2    
   164   82   84 am   BACKBONE|DICT|INTERRES
   165   84   85 1    
   166   84  205 1    
   167   85   86 1    
   168   85   87 1    
   169   85  206 1    
   170   86  207 1    
   171   86  208 1    
   172   86  209 1    
   173   87   88 2    
   174   87   89 am   BACKBONE|DICT|INTERRES
   175   89   90 1    
   176   89  210 1    
   177   90   91 1    
   178   90   92 1    
   179   90  211 1    
   180   91  212 1    
   181   91  213 1    
   182   91  214 1    
   183   92   93 2    
   184   92   94 am   BACKBONE|DICT|INTERRES
   185   94   95 1    
   186   94  215 1    
   187   95   96 1    
   188   95   97 1    
   189   95  216 1    
   190   96  217 1    
   191   96  218 1    
   192   96  219 1    
   193   97   98 2    
   194   97   99 am   BACKBONE|DICT|INTERRES
   195   99  100 1    
   196   99  220 1    
   197  100  101 1    
   198  100  102 1    
   199  100  221 1    
   200  101  222 1    
   201  101  223 1    
   202  101  224 1    
   203  102  103 2    
   204  102  104 am   BACKBONE|DICT|INTERRES
   205  104  105 1    
   206  104  225 1    
   207  105  106 1    
   208  105  107 1    
   209  105  226 1    
   210  106  227 1    
   211  106  228 1    
   212  106  229 1    
   213  107  108 2    
   214  107  109 am   BACKBONE|DICT|INTERRES
   215  109  110 1    
   216  109  230 1    
   217  110  111 1    
   218  110  112 1    
   219  110  231 1    
   220  111  232 1    
   221  111  233 1    
   222  111  234 1    
   223  112  113 2    
   224  112  114 am   BACKBONE|DICT|INTERRES
   225  114  115 1    
   226  114  235 1    
   227  115  116 1    
   228  115  117 1    
   229  115  236 1    
   230  116  237 1    
   231  116  238 1    
   232  116  239 1    
   233  117  118 2    
   234  117  119 am   BACKBONE|DICT|INTERRES
   235  119  120 1    
   236  119  240 1    
   237  120  121 1    
   238  120  124 1    
   239  120  241 1    
   240  121  122 am   BACKBONE|DICT|INTERRES
   241  121  123 2    
   242  122  242 1    
   243  122  243 1    
   244  124  125 1    
   245  124  244 1    
   246  124  245 1    
   247  125  126 1    
   248  126  246 1    
   249  126  247 1    
@<TRIPOS>SUBSTRUCTURE
     1 UNK         1 GROUP             0       ****    0 ROOT    
