@<TRIPOS>MOLECULE
3R540
247   249    1
SMALL
USER_CHARGES


@<TRIPOS>ATOM
      1 CA         -1.9194  -15.7456  -43.5647 C.3       0 UNK        -0.1800 
      2 C          -2.8088  -15.1030  -44.6174 C.2       0 UNK         0.5000 
      3 O          -3.5321  -14.1541  -44.3175 O.2       0 UNK        -0.5000 
      4 N          -2.7571  -15.6281  -45.8482 N.am      1 UNK        -0.5000 
      5 CA         -3.6245  -15.2509  -46.9750 C.3       1 UNK         0.1400 
      6 C6         -3.4977  -16.2440  -48.1560 C.3       23 UNK        -0.0398 
      7 S7         -3.8633  -17.9572  -47.6515 S.3       23 UNK        -0.2404 
      8 C8         -3.9540  -18.8224  -49.2455 C.3       23 UNK        -0.0205 
      9 C9         -2.6378  -18.7616  -50.0036 C.ar      23 UNK        -0.0193 
     10 C10        -2.4876  -17.8664  -51.0649 C.ar      23 UNK        -0.1150 
     11 C11        -1.2815  -17.7929  -51.7629 C.ar      23 UNK        -0.0193 
     12 C12        -0.2280  -18.6366  -51.4048 C.ar      23 UNK        -0.1150 
     13 C13        -0.3622  -19.5487  -50.3526 C.ar      23 UNK        -0.0193 
     14 C14        -1.5741  -19.5981  -49.6489 C.ar      23 UNK        -0.1150 
     15 C15         0.8383  -20.4302  -50.0064 C.3       23 UNK        -0.0205 
     16 S16         0.4455  -22.0181  -49.1971 S.3       23 UNK        -0.2404 
     17 C17         0.5837  -21.5428  -47.4414 C.3       23 UNK        -0.0398 
     18 CA         -0.1170  -22.5427  -46.4930 C.3       11 UNK         0.1400 
     19 N           0.3707  -22.4306  -45.1157 N.am      11 UNK        -0.5000 
     20 C           0.0467  -23.2650  -44.1166 C.2       10 UNK         0.5000 
     21 O          -0.6618  -24.2611  -44.2589 O.2       10 UNK        -0.5000 
     22 CA          0.5443  -22.8885  -42.7095 C.3       10 UNK         0.1400 
     23 CB          2.0143  -23.2885  -42.5170 C.3       10 UNK        -0.1800 
     24 N           0.3727  -21.4623  -42.4296 N.am      10 UNK        -0.5000 
     25 C          -0.8168  -20.8473  -42.3619 C.2       9 UNK         0.5000 
     26 O          -1.8929  -21.4403  -42.4402 O.2       9 UNK        -0.5000 
     27 CA         -0.8047  -19.3116  -42.2459 C.3       9 UNK         0.1400 
     28 CB         -0.6086  -18.8664  -40.7899 C.3       9 UNK        -0.1800 
     29 N           0.2174  -18.6916  -43.0915 N.am      9 UNK        -0.5000 
     30 C           0.2231  -18.7302  -44.4312 C.2       8 UNK         0.5000 
     31 O          -0.6742  -19.2350  -45.1014 O.2       8 UNK        -0.5000 
     32 CA          1.4567  -18.1535  -45.1450 C.3       8 UNK         0.1400 
     33 CB          1.3377  -16.6342  -45.3365 C.3       8 UNK        -0.1800 
     34 N           2.6944  -18.4731  -44.4352 N.am      8 UNK        -0.5000 
     35 C           3.2223  -19.7033  -44.3649 C.2       7 UNK         0.5000 
     36 O           2.7388  -20.6847  -44.9284 O.2       7 UNK        -0.5000 
     37 CA          4.4735  -19.8701  -43.4833 C.3       7 UNK         0.1400 
     38 CB          5.7399  -19.4892  -44.2641 C.3       7 UNK        -0.1800 
     39 N           4.4026  -19.0759  -42.2557 N.am      7 UNK        -0.5000 
     40 C           3.5362  -19.3011  -41.2574 C.2       6 UNK         0.5000 
     41 O           2.7363  -20.2357  -41.2468 O.2       6 UNK        -0.5000 
     42 CA          3.5247  -18.2763  -40.1062 C.3       6 UNK         0.1400 
     43 CB          4.5680  -18.6472  -39.0420 C.3       6 UNK        -0.1800 
     44 N           3.7550  -16.8997  -40.5575 N.am      6 UNK        -0.5000 
     45 C           2.9559  -16.2381  -41.4047 C.2       5 UNK         0.5000 
     46 O           1.9340  -16.7239  -41.8952 O.2       5 UNK        -0.5000 
     47 CA          3.4219  -14.8364  -41.8326 C.3       5 UNK         0.1400 
     48 CB          4.5091  -14.9484  -42.9141 C.3       5 UNK        -0.1800 
     49 N           2.3193  -14.0484  -42.3765 N.am      5 UNK        -0.5000 
     50 C           1.3676  -13.4377  -41.6596 C.2       4 UNK         0.5000 
     51 O           1.3429  -13.4404  -40.4276 O.2       4 UNK        -0.5000 
     52 CA          0.2502  -12.7138  -42.4488 C.3       4 UNK         0.1400 
     53 CB         -0.1596  -11.3780  -41.7945 C.3       4 UNK        -0.1800 
     54 N           0.5373  -12.5323  -43.8818 N.am      4 UNK        -0.5000 
     55 C           1.5058  -11.7841  -44.4349 C.2       3 UNK         0.5000 
     56 O           2.3091  -11.1089  -43.7914 O.2       3 UNK        -0.5000 
     57 CA          1.6254  -11.8277  -45.9708 C.3       3 UNK         0.1400 
     58 CB          2.7266  -12.8167  -46.3854 C.3       3 UNK        -0.1800 
     59 N           0.3828  -12.1866  -46.6633 N.am      3 UNK        -0.5000 
     60 C          -0.6797  -11.3745  -46.7718 C.2       2 UNK         0.5000 
     61 O          -0.7564  -10.2710  -46.2313 O.2       2 UNK        -0.5000 
     62 CA         -1.8499  -11.8820  -47.6244 C.3       2 UNK         0.1400 
     63 CB         -1.5281  -11.7765  -49.1271 C.3       2 UNK        -0.1800 
     64 N          -2.2046  -13.2555  -47.2671 N.am      2 UNK        -0.5000 
     65 C          -3.4086  -13.8050  -47.4736 C.2       1 UNK         0.5000 
     66 O          -4.3380  -13.2195  -48.0314 O.2       1 UNK        -0.5000 
     67 C          -1.6530  -22.4272  -46.5770 C.2       11 UNK         0.5000 
     68 O          -2.2703  -23.2189  -47.2864 O.2       11 UNK        -0.5000 
     69 N          -2.2411  -21.4852  -45.8255 N.am      12 UNK        -0.5000 
     70 CA         -3.6865  -21.2886  -45.7017 C.3       12 UNK         0.1400 
     71 CB         -3.9703  -20.0501  -44.8332 C.3       12 UNK        -0.1800 
     72 C          -4.4019  -22.5168  -45.1122 C.2       12 UNK         0.5000 
     73 O          -5.4446  -22.9201  -45.6281 O.2       12 UNK        -0.5000 
     74 N          -3.8213  -23.0871  -44.0477 N.am      13 UNK        -0.5000 
     75 CA         -4.3339  -24.2661  -43.3534 C.3       13 UNK         0.1400 
     76 CB         -3.5970  -24.4273  -42.0145 C.3       13 UNK        -0.1800 
     77 C          -4.2261  -25.5497  -44.1958 C.2       13 UNK         0.5000 
     78 O          -5.1894  -26.3143  -44.2630 O.2       13 UNK        -0.5000 
     79 N          -3.0583  -25.7670  -44.8146 N.am      14 UNK        -0.5000 
     80 CA         -2.7614  -26.9579  -45.6115 C.3       14 UNK         0.1400 
     81 CB         -1.2364  -27.1250  -45.7020 C.3       14 UNK        -0.1800 
     82 C          -3.3687  -26.9229  -47.0255 C.2       14 UNK         0.5000 
     83 O          -3.5855  -27.9864  -47.6074 O.2       14 UNK        -0.5000 
     84 N          -3.5821  -25.7127  -47.5652 N.am      15 UNK        -0.5000 
     85 CA         -3.9101  -25.4059  -48.9635 C.3       15 UNK         0.1400 
     86 CB         -5.3060  -25.9402  -49.3444 C.3       15 UNK        -0.1800 
     87 C          -2.7910  -25.8627  -49.9269 C.2       15 UNK         0.5000 
     88 O          -3.0734  -26.3407  -51.0264 O.2       15 UNK        -0.5000 
     89 N          -1.5356  -25.7355  -49.4698 N.am      16 UNK        -0.5000 
     90 CA         -0.3397  -26.3074  -50.0945 C.3       16 UNK         0.1400 
     91 CB          0.8527  -26.1463  -49.1383 C.3       16 UNK        -0.1800 
     92 C          -0.0105  -25.7187  -51.4771 C.2       16 UNK         0.5000 
     93 O           0.3684  -26.4629  -52.3824 O.2       16 UNK        -0.5000 
     94 N          -0.1738  -24.3997  -51.6123 N.am      17 UNK        -0.5000 
     95 CA          0.0431  -23.6441  -52.8452 C.3       17 UNK         0.1400 
     96 CB          1.5223  -23.2275  -52.9550 C.3       17 UNK        -0.1800 
     97 C          -0.9360  -22.4599  -52.9243 C.2       17 UNK         0.5000 
     98 O          -0.6143  -21.4253  -53.5099 O.2       17 UNK        -0.5000 
     99 N          -2.1255  -22.6377  -52.3331 N.am      18 UNK        -0.5000 
    100 CA        -3.2085  -21.6581  -52.2643 C.3       18 UNK         0.1400 
    101 CB        -4.1027  -22.0137  -51.0627 C.3       18 UNK        -0.1800 
    102 C         -3.9905  -21.5900  -53.5911 C.2       18 UNK         0.5000 
    103 O         -5.1675  -21.9529  -53.6431 O.2       18 UNK        -0.5000 
    104 N         -3.2981  -21.1738  -54.6558 N.am      19 UNK        -0.5000 
    105 CA        -3.8233  -21.0603  -56.0122 C.3       19 UNK         0.1400 
    106 CB        -2.6473  -20.8323  -56.9749 C.3       19 UNK        -0.1800 
    107 C         -4.8430  -19.9175  -56.1482 C.2       19 UNK         0.5000 
    108 O         -4.6703  -18.8569  -55.5426 O.2       19 UNK        -0.5000 
    109 N         -5.8410  -20.1141  -57.0198 N.am      20 UNK        -0.5000 
    110 CA        -6.8382  -19.1017  -57.3919 C.3       20 UNK         0.1400 
    111 CB        -7.9213  -19.7625  -58.2582 C.3       20 UNK        -0.1800 
    112 C         -6.2332  -17.8806  -58.1182 C.2       20 UNK         0.5000 
    113 O         -6.8491  -16.8148  -58.1395 O.2       20 UNK        -0.5000 
    114 N         -5.0273  -18.0563  -58.6755 N.am      21 UNK        -0.5000 
    115 CA        -4.2056  -17.0140  -59.2844 C.3       21 UNK         0.1400 
    116 CB        -3.0795  -17.6869  -60.0854 C.3       21 UNK        -0.1800 
    117 C         -3.6161  -16.0110  -58.2704 C.2       21 UNK         0.5000 
    118 O         -3.2094  -14.9268  -58.6915 O.2       21 UNK        -0.5000 
    119 N         -3.5662  -16.3695  -56.9782 N.am      22 UNK        -0.5000 
    120 CA        -3.0500  -15.5105  -55.8997 C.3       22 UNK         0.1400 
    121 C         -4.0202  -15.3510  -54.6944 C.2       22 UNK         0.5000 
    122 N         -4.9322  -16.2808  -54.4382 N.am      22 UNK        -0.7600 
    123 O         -3.9583  -14.3476  -53.9893 O.2       22 UNK        -0.5000 
    124 C124       -1.6118  -15.9130  -55.4758 C.3       23 UNK        -0.0398 
    125 S125       -1.4979  -17.4649  -54.5116 S.3       23 UNK        -0.2404 
    126 C126       -1.1076  -16.7725  -52.8745 C.3       23 UNK        -0.0205 
    127 H127       -2.2473  -15.4738  -42.5613 H         1 UNK         0.0600 
    128 H128       -1.9617  -16.8302  -43.6470 H         1 UNK         0.0600 
    129 H129       -0.8855  -15.4273  -43.6861 H         1 UNK         0.0600 
    130 H130       -2.1700  -16.4329  -46.0160 H         1 UNK         0.3000 
    131 H131       -4.6535  -15.3000  -46.6119 H         1 UNK         0.0600 
    132 H132       -2.4913  -16.2121  -48.5774 H         1 UNK         0.0800 
    133 H133       -4.1829  -15.9723  -48.9614 H         1 UNK         0.0800 
    134 H134       -4.7662  -18.4036  -49.8417 H         1 UNK         0.0800 
    135 H135       -4.2181  -19.8628  -49.0558 H         1 UNK         0.0800 
    136 H136       -3.3053  -17.2152  -51.3411 H         1 UNK         0.1150 
    137 H137        0.7039  -18.5790  -51.9496 H         1 UNK         0.1150 
    138 H138       -1.7029  -20.2821  -48.8235 H         1 UNK         0.1150 
    139 H139        1.3801  -20.6597  -50.9242 H         1 UNK         0.0800 
    140 H140        1.5296  -19.8601  -49.3845 H         1 UNK         0.0800 
    141 H141        1.6493  -21.5009  -47.2136 H         1 UNK         0.0800 
    142 H142        0.2043  -20.5302  -47.2967 H         1 UNK         0.0800 
    143 H143        0.1456  -23.5512  -46.8204 H         1 UNK         0.0600 
    144 H144        1.0042  -21.6620  -44.9206 H         1 UNK         0.3000 
    145 H145       -0.0546  -23.4454  -41.9858 H         1 UNK         0.0600 
    146 H146        2.3477  -23.0827  -41.4997 H         1 UNK         0.0600 
    147 H147        2.1544  -24.3552  -42.6962 H         1 UNK         0.0600 
    148 H148        2.6737  -22.7519  -43.1987 H         1 UNK         0.0600 
    149 H149        1.2172  -20.9189  -42.2789 H         1 UNK         0.3000 
    150 H150       -1.7799  -18.9523  -42.5795 H         1 UNK         0.0600 
    151 H151       -1.3947  -19.2694  -40.1503 H         1 UNK         0.0600 
    152 H152       -0.6409  -17.7800  -40.7028 H         1 UNK         0.0600 
    153 H153        0.3463  -19.2058  -40.3895 H         1 UNK         0.0600 
    154 H154        0.9610  -18.1868  -42.6167 H         1 UNK         0.3000 
    155 H155        1.5057  -18.6100  -46.1360 H         1 UNK         0.0600 
    156 H156        2.1759  -16.2506  -45.9179 H         1 UNK         0.0600 
    157 H157        1.3191  -16.1034  -44.3857 H         1 UNK         0.0600 
    158 H158        0.4251  -16.3790  -45.8763 H         1 UNK         0.0600 
    159 H159        3.1157  -17.7323  -43.8964 H         1 UNK         0.3000 
    160 H160        4.5470  -20.9235  -43.2047 H         1 UNK         0.0600 
    161 H161        5.7378  -18.4366  -44.5503 H         1 UNK         0.0600 
    162 H162        5.8260  -20.0781  -45.1784 H         1 UNK         0.0600 
    163 H163        6.6374  -19.6750  -43.6739 H         1 UNK         0.0600 
    164 H164        5.0309  -18.2899  -42.1809 H         1 UNK         0.3000 
    165 H165        2.5373  -18.3133  -39.6419 H         1 UNK         0.0600 
    166 H166        5.5835  -18.5982  -39.4372 H         1 UNK         0.0600 
    167 H167        4.5091  -17.9794  -38.1823 H         1 UNK         0.0600 
    168 H168        4.4070  -19.6618  -38.6750 H         1 UNK         0.0600 
    169 H169        4.5829  -16.4423  -40.2033 H         1 UNK         0.3000 
    170 H170        3.8339  -14.3203  -40.9629 H         1 UNK         0.0600 
    171 H171        5.3774  -15.4975  -42.5478 H         1 UNK         0.0600 
    172 H172        4.1445  -15.4643  -43.8035 H         1 UNK         0.0600 
    173 H173        4.8593  -13.9626  -43.2217 H         1 UNK         0.0600 
    174 H174        2.2466  -14.0114  -43.3804 H         1 UNK         0.3000 
    175 H175       -0.6180  -13.3709  -42.3979 H         1 UNK         0.0600 
    176 H176       -0.9511  -10.8880  -42.3618 H         1 UNK         0.0600 
    177 H177       -0.5380  -11.5367  -40.7840 H         1 UNK         0.0600 
    178 H178        0.6796  -10.6859  -41.7214 H         1 UNK         0.0600 
    179 H179       -0.0672  -13.0353  -44.5130 H         1 UNK         0.3000 
    180 H180        1.9243  -10.8305  -46.3015 H         1 UNK         0.0600 
    181 H181        2.8900  -12.7966  -47.4630 H         1 UNK         0.0600 
    182 H182        3.6768  -12.5674  -45.9108 H         1 UNK         0.0600 
    183 H183        2.4779  -13.8393  -46.1020 H         1 UNK         0.0600 
    184 H184        0.3977  -13.0476  -47.1893 H         1 UNK         0.3000 
    185 H185       -2.7022  -11.2336  -47.4085 H         1 UNK         0.0600 
    186 H186       -2.3983  -12.0190  -49.7372 H         1 UNK         0.0600 
    187 H187       -1.2221  -10.7634  -49.3913 H         1 UNK         0.0600 
    188 H188       -0.7210  -12.4506  -49.4157 H         1 UNK         0.0600 
    189 H189       -1.5189  -13.7898  -46.7560 H         1 UNK         0.3000 
    190 H190       -1.6526  -20.8210  -45.3294 H         1 UNK         0.3000 
    191 H191       -4.0791  -21.1073  -46.7042 H         1 UNK         0.0600 
    192 H192       -5.0170  -19.7554  -44.9143 H         1 UNK         0.0600 
    193 H193       -3.3665  -19.1961  -45.1353 H         1 UNK         0.0600 
    194 H194       -3.7668  -20.2316  -43.7786 H         1 UNK         0.0600 
    195 H195       -2.9864  -22.6568  -43.6624 H         1 UNK         0.3000 
    196 H196       -5.3910  -24.0971  -43.1379 H         1 UNK         0.0600 
    197 H197       -3.9698  -25.2920  -41.4641 H         1 UNK         0.0600 
    198 H198       -3.7379  -23.5517  -41.3805 H         1 UNK         0.0600 
    199 H199       -2.5247  -24.5647  -42.1576 H         1 UNK         0.0600 
    200 H200       -2.2942  -25.1095  -44.6750 H         1 UNK         0.3000 
    201 H201       -3.1670  -27.8328  -45.0989 H         1 UNK         0.0600 
    202 H202       -0.7920  -27.2287  -44.7120 H         1 UNK         0.0600 
    203 H203       -0.7680  -26.2691  -46.1893 H         1 UNK         0.0600 
    204 H204       -0.9707  -28.0155  -46.2732 H         1 UNK         0.0600 
    205 H205       -3.3267  -24.8993  -47.0146 H         1 UNK         0.3000 
    206 H206       -3.9497  -24.3189  -49.0358 H         1 UNK         0.0600 
    207 H207       -6.0623  -25.6030  -48.6356 H         1 UNK         0.0600 
    208 H208       -5.6032  -25.5818  -50.3306 H         1 UNK         0.0600 
    209 H209       -5.3330  -27.0297  -49.3723 H         1 UNK         0.0600 
    210 H210       -1.4109  -25.2950  -48.5696 H         1 UNK         0.3000 
    211 H211       -0.5207  -27.3757  -50.2307 H         1 UNK         0.0600 
    212 H212        1.0482  -25.0985  -48.9081 H         1 UNK         0.0600 
    213 H213        1.7623  -26.5610  -49.5747 H         1 UNK         0.0600 
    214 H214        0.6790  -26.6704  -48.1987 H         1 UNK         0.0600 
    215 H215       -0.4559  -23.8579  -50.8056 H         1 UNK         0.3000 
    216 H216       -0.1950  -24.2783  -53.7016 H         1 UNK         0.0600 
    217 H217        1.7075  -22.6547  -53.8643 H         1 UNK         0.0600 
    218 H218        2.1742  -24.1005  -52.9871 H         1 UNK         0.0600 
    219 H219        1.8300  -22.6157  -52.1081 H         1 UNK         0.0600 
    220 H220       -2.3261  -23.5479  -51.9466 H         1 UNK         0.3000 
    221 H221       -2.7801  -20.6698  -52.0917 H         1 UNK         0.0600 
    222 H222       -4.5526  -23.0011  -51.1726 H         1 UNK         0.0600 
    223 H223       -3.5331  -22.0064  -50.1328 H         1 UNK         0.0600 
    224 H224       -4.9146  -21.2938  -50.9551 H         1 UNK         0.0600 
    225 H225       -2.3296  -20.9071  -54.5129 H         1 UNK         0.3000 
    226 H226       -4.3098  -22.0036  -56.2689 H         1 UNK         0.0600 
    227 H227       -2.9878  -20.7856  -58.0099 H         1 UNK         0.0600 
    228 H228       -2.1256  -19.8989  -56.7572 H         1 UNK         0.0600 
    229 H229       -1.9214  -21.6431  -56.9096 H         1 UNK         0.0600 
    230 H230       -5.9144  -21.0058  -57.4887 H         1 UNK         0.3000 
    231 H231       -7.3057  -18.7365  -56.4751 H         1 UNK         0.0600 
    232 H232       -8.6970  -19.0449  -58.5292 H         1 UNK         0.0600 
    233 H233       -8.4090  -20.5793  -57.7259 H         1 UNK         0.0600 
    234 H234       -7.5070  -20.1632  -59.1842 H         1 UNK         0.0600 
    235 H235       -4.6150  -18.9749  -58.6200 H         1 UNK         0.3000 
    236 H236       -4.8313  -16.4491  -59.9785 H         1 UNK         0.0600 
    237 H237       -2.4260  -18.2775  -59.4419 H         1 UNK         0.0600 
    238 H238       -3.4813  -18.3470  -60.8544 H         1 UNK         0.0600 
    239 H239       -2.4595  -16.9442  -60.5893 H         1 UNK         0.0600 
    240 H240       -3.9263  -17.2711  -56.6911 H         1 UNK         0.3000 
    241 H241       -2.9683  -14.4943  -56.2898 H         1 UNK         0.0600 
    242 H242       -5.5614  -16.1460  -53.6641 H         1 UNK         0.3800 
    243 H243       -4.9149  -17.1797  -54.9144 H         1 UNK         0.3800 
    244 H244       -1.1573  -15.0988  -54.9093 H         1 UNK         0.0800 
    245 H245       -0.9872  -16.0230  -56.3632 H         1 UNK         0.0800 
    246 H246       -0.0837  -16.3955  -52.8784 H         1 UNK         0.0800 
    247 H247       -1.7492  -15.9119  -52.6781 H         1 UNK         0.0800 
@<TRIPOS>BOND
     1    1    2 1    
     2    1  127 1    
     3    1  128 1    
     4    1  129 1    
     5    2    3 2    
     6    2    4 am   BACKBONE|DICT|INTERRES
     7    4    5 1    
     8    4  130 1    
     9    5    6 1    
    10    5   65 1    
    11    5  131 1    
    12    6    7 1    
    13    6  132 1    
    14    6  133 1    
    15    7    8 1    
    16    8    9 1    
    17    8  134 1    
    18    8  135 1    
    19    9   10 ar   
    20    9   14 ar   
    21   10   11 ar   
    22   10  136 1    
    23   11   12 ar   
    24   11  126 1    
    25   12   13 ar   
    26   12  137 1    
    27   13   14 ar   
    28   13   15 1    
    29   14  138 1    
    30   15   16 1    
    31   15  139 1    
    32   15  140 1    
    33   16   17 1    
    34   17   18 1    
    35   17  141 1    
    36   17  142 1    
    37   18   19 1    
    38   18   67 1    
    39   18  143 1    
    40   19   20 am   BACKBONE|DICT|INTERRES
    41   19  144 1    
    42   20   21 2    
    43   20   22 1    
    44   22   23 1    
    45   22   24 1    
    46   22  145 1    
    47   23  146 1    
    48   23  147 1    
    49   23  148 1    
    50   24   25 am   BACKBONE|DICT|INTERRES
    51   24  149 1    
    52   25   26 2    
    53   25   27 1    
    54   27   28 1    
    55   27   29 1    
    56   27  150 1    
    57   28  151 1    
    58   28  152 1    
    59   28  153 1    
    60   29   30 am   BACKBONE|DICT|INTERRES
    61   29  154 1    
    62   30   31 2    
    63   30   32 1    
    64   32   33 1    
    65   32   34 1    
    66   32  155 1    
    67   33  156 1    
    68   33  157 1    
    69   33  158 1    
    70   34   35 am   BACKBONE|DICT|INTERRES
    71   34  159 1    
    72   35   36 2    
    73   35   37 1    
    74   37   38 1    
    75   37   39 1    
    76   37  160 1    
    77   38  161 1    
    78   38  162 1    
    79   38  163 1    
    80   39   40 am   BACKBONE|DICT|INTERRES
    81   39  164 1    
    82   40   41 2    
    83   40   42 1    
    84   42   43 1    
    85   42   44 1    
    86   42  165 1    
    87   43  166 1    
    88   43  167 1    
    89   43  168 1    
    90   44   45 am   BACKBONE|DICT|INTERRES
    91   44  169 1    
    92   45   46 2    
    93   45   47 1    
    94   47   48 1    
    95   47   49 1    
    96   47  170 1    
    97   48  171 1    
    98   48  172 1    
    99   48  173 1    
   100   49   50 am   BACKBONE|DICT|INTERRES
   101   49  174 1    
   102   50   51 2    
   103   50   52 1    
   104   52   53 1    
   105   52   54 1    
   106   52  175 1    
   107   53  176 1    
   108   53  177 1    
   109   53  178 1    
   110   54   55 am   BACKBONE|DICT|INTERRES
   111   54  179 1    
   112   55   56 2    
   113   55   57 1    
   114   57   58 1    
   115   57   59 1    
   116   57  180 1    
   117   58  181 1    
   118   58  182 1    
   119   58  183 1    
   120   59   60 am   BACKBONE|DICT|INTERRES
   121   59  184 1    
   122   60   61 2    
   123   60   62 1    
   124   62   63 1    
   125   62   64 1    
   126   62  185 1    
   127   63  186 1    
   128   63  187 1    
   129   63  188 1    
   130   64   65 am   BACKBONE|DICT|INTERRES
   131   64  189 1    
   132   65   66 2    
   133   67   68 2    
   134   67   69 am   BACKBONE|DICT|INTERRES
   135   69   70 1    
   136   69  190 1    
   137   70   71 1    
   138   70   72 1    
   139   70  191 1    
   140   71  192 1    
   141   71  193 1    
   142   71  194 1    
   143   72   73 2    
   144   72   74 am   BACKBONE|DICT|INTERRES
   145   74   75 1    
   146   74  195 1    
   147   75   76 1    
   148   75   77 1    
   149   75  196 1    
   150   76  197 1    
   151   76  198 1    
   152   76  199 1    
   153   77   78 2    
   154   77   79 am   BACKBONE|DICT|INTERRES
   155   79   80 1    
   156   79  200 1    
   157   80   81 1    
   158   80   82 1    
   159   80  201 1    
   160   81  202 1    
   161   81  203 1    
   162   81  204 1    
   163   82   83 2    
   164   82   84 am   BACKBONE|DICT|INTERRES
   165   84   85 1    
   166   84  205 1    
   167   85   86 1    
   168   85   87 1    
   169   85  206 1    
   170   86  207 1    
   171   86  208 1    
   172   86  209 1    
   173   87   88 2    
   174   87   89 am   BACKBONE|DICT|INTERRES
   175   89   90 1    
   176   89  210 1    
   177   90   91 1    
   178   90   92 1    
   179   90  211 1    
   180   91  212 1    
   181   91  213 1    
   182   91  214 1    
   183   92   93 2    
   184   92   94 am   BACKBONE|DICT|INTERRES
   185   94   95 1    
   186   94  215 1    
   187   95   96 1    
   188   95   97 1    
   189   95  216 1    
   190   96  217 1    
   191   96  218 1    
   192   96  219 1    
   193   97   98 2    
   194   97   99 am   BACKBONE|DICT|INTERRES
   195   99  100 1    
   196   99  220 1    
   197  100  101 1    
   198  100  102 1    
   199  100  221 1    
   200  101  222 1    
   201  101  223 1    
   202  101  224 1    
   203  102  103 2    
   204  102  104 am   BACKBONE|DICT|INTERRES
   205  104  105 1    
   206  104  225 1    
   207  105  106 1    
   208  105  107 1    
   209  105  226 1    
   210  106  227 1    
   211  106  228 1    
   212  106  229 1    
   213  107  108 2    
   214  107  109 am   BACKBONE|DICT|INTERRES
   215  109  110 1    
   216  109  230 1    
   217  110  111 1    
   218  110  112 1    
   219  110  231 1    
   220  111  232 1    
   221  111  233 1    
   222  111  234 1    
   223  112  113 2    
   224  112  114 am   BACKBONE|DICT|INTERRES
   225  114  115 1    
   226  114  235 1    
   227  115  116 1    
   228  115  117 1    
   229  115  236 1    
   230  116  237 1    
   231  116  238 1    
   232  116  239 1    
   233  117  118 2    
   234  117  119 am   BACKBONE|DICT|INTERRES
   235  119  120 1    
   236  119  240 1    
   237  120  121 1    
   238  120  124 1    
   239  120  241 1    
   240  121  122 am   BACKBONE|DICT|INTERRES
   241  121  123 2    
   242  122  242 1    
   243  122  243 1    
   244  124  125 1    
   245  124  244 1    
   246  124  245 1    
   247  125  126 1    
   248  126  246 1    
   249  126  247 1    
@<TRIPOS>SUBSTRUCTURE
     1 UNK         1 GROUP             0       ****    0 ROOT    
