@<TRIPOS>MOLECULE
3R540
247   249    1
SMALL
USER_CHARGES


@<TRIPOS>ATOM
      1 CA         -1.9639  -10.7596  -49.7750 C.3       0 UNK        -0.1800 
      2 C          -1.9309  -11.7001  -48.5796 C.2       0 UNK         0.5000 
      3 O          -1.1971  -11.4514  -47.6232 O.2       0 UNK        -0.5000 
      4 N          -2.7353  -12.7714  -48.6190 N.am      1 UNK        -0.5000 
      5 CA         -2.8110  -13.8230  -47.5924 C.3       1 UNK         0.1400 
      6 C6         -3.7152  -15.0022  -48.0269 C.3       23 UNK        -0.0398 
      7 S7         -3.2358  -15.7330  -49.6289 S.3       23 UNK        -0.2404 
      8 C8         -1.8059  -16.7291  -49.1196 C.3       23 UNK        -0.0205 
      9 C9         -1.4065  -17.7180  -50.1996 C.ar      23 UNK        -0.0193 
     10 C10        -0.6891  -17.2910  -51.3185 C.ar      23 UNK        -0.1150 
     11 C11        -0.3267  -18.2017  -52.3134 C.ar      23 UNK        -0.0193 
     12 C12        -0.6756  -19.5484  -52.1722 C.ar      23 UNK        -0.1150 
     13 C13        -1.3812  -19.9984  -51.0522 C.ar      23 UNK        -0.0193 
     14 C14        -1.7508  -19.0651  -50.0736 C.ar      23 UNK        -0.1150 
     15 C15        -1.7026  -21.4943  -50.9552 C.3       23 UNK        -0.0205 
     16 S16        -2.5786  -22.0470  -49.4479 S.3       23 UNK        -0.2404 
     17 C17        -1.3175  -21.7454  -48.1633 C.3       23 UNK        -0.0398 
     18 CA         -0.9581  -22.9967  -47.3326 C.3       11 UNK         0.1400 
     19 N           0.2461  -22.7740  -46.5300 N.am      11 UNK        -0.5000 
     20 C           0.8641  -23.7031  -45.7879 C.2       10 UNK         0.5000 
     21 O           0.5159  -24.8817  -45.7372 O.2       10 UNK        -0.5000 
     22 CA          2.0340  -23.2223  -44.9118 C.3       10 UNK         0.1400 
     23 CB          3.3167  -23.0774  -45.7438 C.3       10 UNK        -0.1800 
     24 N           1.7385  -21.9608  -44.2305 N.am      10 UNK        -0.5000 
     25 C           0.7662  -21.8002  -43.3205 C.2       9 UNK         0.5000 
     26 O           0.0493  -22.7174  -42.9183 O.2       9 UNK        -0.5000 
     27 CA          0.5184  -20.3665  -42.8144 C.3       9 UNK         0.1400 
     28 CB          1.5589  -19.9647  -41.7588 C.3       9 UNK        -0.1800 
     29 N           0.5139  -19.3820  -43.8970 N.am      9 UNK        -0.5000 
     30 C          -0.3696  -19.3603  -44.9044 C.2       8 UNK         0.5000 
     31 O          -1.3110  -20.1448  -45.0084 O.2       8 UNK        -0.5000 
     32 CA         -0.1278  -18.3252  -46.0148 C.3       8 UNK         0.1400 
     33 CB         -0.6775  -16.9443  -45.6188 C.3       8 UNK        -0.1800 
     34 N           1.2891  -18.2202  -46.3613 N.am      8 UNK        -0.5000 
     35 C           1.9885  -19.1860  -46.9748 C.2       7 UNK         0.5000 
     36 O           1.5034  -20.2585  -47.3321 O.2       7 UNK        -0.5000 
     37 CA          3.4915  -18.9276  -47.1827 C.3       7 UNK         0.1400 
     38 CB          3.7203  -18.0534  -48.4250 C.3       7 UNK        -0.1800 
     39 N           4.1179  -18.2977  -46.0193 N.am      7 UNK        -0.5000 
     40 C           4.2478  -18.8811  -44.8186 C.2       6 UNK         0.5000 
     41 O           3.9038  -20.0380  -44.5799 O.2       6 UNK        -0.5000 
     42 CA          4.7999  -18.0035  -43.6775 C.3       6 UNK         0.1400 
     43 CB          6.3344  -18.0580  -43.6490 C.3       6 UNK        -0.1800 
     44 N           4.3628  -16.6044  -43.7487 N.am      6 UNK        -0.5000 
     45 C           3.0839  -16.2050  -43.7378 C.2       5 UNK         0.5000 
     46 O           2.1318  -16.9866  -43.6793 O.2       5 UNK        -0.5000 
     47 CA          2.8381  -14.6904  -43.8852 C.3       5 UNK         0.1400 
     48 CB          3.1403  -14.2379  -45.3237 C.3       5 UNK        -0.1800 
     49 N           1.4606  -14.3125  -43.5720 N.am      5 UNK        -0.5000 
     50 C           0.8892  -14.3758  -42.3622 C.2       4 UNK         0.5000 
     51 O           1.4895  -14.6984  -41.3347 O.2       4 UNK        -0.5000 
     52 CA         -0.6050  -13.9919  -42.3148 C.3       4 UNK         0.1400 
     53 CB         -1.1552  -13.8491  -40.8804 C.3       4 UNK        -0.1800 
     54 N          -0.9065  -12.7967  -43.1122 N.am      4 UNK        -0.5000 
     55 C          -0.4119  -11.5584  -42.9376 C.2       3 UNK         0.5000 
     56 O           0.3876  -11.2569  -42.0507 O.2       3 UNK        -0.5000 
     57 CA         -0.8766  -10.4611  -43.9195 C.3       3 UNK         0.1400 
     58 CB          0.2420  -10.1380  -44.9222 C.3       3 UNK        -0.1800 
     59 N          -2.0910  -10.8125  -44.6583 N.am      3 UNK        -0.5000 
     60 C          -3.3141  -10.9096  -44.1140 C.2       2 UNK         0.5000 
     61 O          -3.5615  -10.6052  -42.9467 O.2       2 UNK        -0.5000 
     62 CA         -4.4508  -11.4622  -45.0008 C.3       2 UNK         0.1400 
     63 CB         -5.3871  -10.3269  -45.4426 C.3       2 UNK        -0.1800 
     64 N          -3.9961  -12.1849  -46.1917 N.am      2 UNK        -0.5000 
     65 C          -3.2495  -13.2993  -46.2068 C.2       1 UNK         0.5000 
     66 O          -2.8675  -13.8791  -45.1890 O.2       1 UNK        -0.5000 
     67 C          -2.1440  -23.4623  -46.4632 C.2       11 UNK         0.5000 
     68 O          -2.7835  -24.4596  -46.8019 O.2       11 UNK        -0.5000 
     69 N          -2.3910  -22.7609  -45.3466 N.am      12 UNK        -0.5000 
     70 CA         -3.4344  -23.0694  -44.3665 C.3       12 UNK         0.1400 
     71 CB         -3.4834  -21.9689  -43.2967 C.3       12 UNK        -0.1800 
     72 C          -3.2753  -24.4562  -43.7213 C.2       12 UNK         0.5000 
     73 O          -4.2727  -25.1532  -43.5332 O.2       12 UNK        -0.5000 
     74 N          -2.0271  -24.8412  -43.4252 N.am      13 UNK        -0.5000 
     75 CA         -1.6744  -26.1704  -42.9302 C.3       13 UNK         0.1400 
     76 CB         -0.2299  -26.1515  -42.4072 C.3       13 UNK        -0.1800 
     77 C          -1.8577  -27.2689  -43.9958 C.2       13 UNK         0.5000 
     78 O          -2.3015  -28.3676  -43.6596 O.2       13 UNK        -0.5000 
     79 N          -1.5083  -26.9582  -45.2516 N.am      14 UNK        -0.5000 
     80 CA         -1.5764  -27.8766  -46.3857 C.3       14 UNK         0.1400 
     81 CB         -0.7350  -27.3278  -47.5493 C.3       14 UNK        -0.1800 
     82 C          -3.0136  -28.1770  -46.8460 C.2       14 UNK         0.5000 
     83 O          -3.3657  -29.3509  -46.9754 O.2       14 UNK        -0.5000 
     84 N          -3.8072  -27.1292  -47.1100 N.am      15 UNK        -0.5000 
     85 CA         -5.1439  -27.2588  -47.7046 C.3       15 UNK         0.1400 
     86 CB         -5.0172  -27.5735  -49.2096 C.3       15 UNK        -0.1800 
     87 C          -6.0537  -26.0334  -47.5098 C.2       15 UNK         0.5000 
     88 O          -7.2706  -26.1816  -47.6277 O.2       15 UNK        -0.5000 
     89 N          -5.4726  -24.8510  -47.2587 N.am      16 UNK        -0.5000 
     90 CA         -6.1338  -23.5421  -47.1637 C.3       16 UNK         0.1400 
     91 CB         -7.1292  -23.4950  -45.9851 C.3       16 UNK        -0.1800 
     92 C          -6.7494  -23.0564  -48.4937 C.2       16 UNK         0.5000 
     93 O          -7.6542  -22.2194  -48.4863 O.2       16 UNK        -0.5000 
     94 N          -6.2183  -23.5488  -49.6207 N.am      17 UNK        -0.5000 
     95 CA         -6.5627  -23.1332  -50.9807 C.3       17 UNK         0.1400 
     96 CB         -6.2486  -24.2952  -51.9406 C.3       17 UNK        -0.1800 
     97 C          -5.8083  -21.8382  -51.3432 C.2       17 UNK         0.5000 
     98 O          -4.9235  -21.8557  -52.1986 O.2       17 UNK        -0.5000 
     99 N          -6.1304  -20.7588  -50.6196 N.am      18 UNK        -0.5000 
    100 CA        -5.4296  -19.4757  -50.6200 C.3       18 UNK         0.1400 
    101 CB        -6.1116  -18.5452  -49.6055 C.3       18 UNK        -0.1800 
    102 C         -5.3300  -18.7950  -51.9988 C.2       18 UNK         0.5000 
    103 O         -6.2438  -18.9187  -52.8180 O.2       18 UNK        -0.5000 
    104 N         -4.2303  -18.0523  -52.1908 N.am      19 UNK        -0.5000 
    105 CA        -3.8837  -17.2594  -53.3743 C.3       19 UNK         0.1400 
    106 CB        -4.8753  -16.0928  -53.5644 C.3       19 UNK        -0.1800 
    107 C         -3.6900  -18.1098  -54.6474 C.2       19 UNK         0.5000 
    108 O         -4.0575  -17.6789  -55.7425 O.2       19 UNK        -0.5000 
    109 N         -3.0863  -19.2968  -54.4925 N.am      20 UNK        -0.5000 
    110 CA        -2.7819  -20.2570  -55.5597 C.3       20 UNK         0.1400 
    111 CB        -2.5820  -21.6507  -54.9382 C.3       20 UNK        -0.1800 
    112 C         -1.5865  -19.8276  -56.4422 C.2       20 UNK         0.5000 
    113 O         -0.6195  -20.5781  -56.5882 O.2       20 UNK        -0.5000 
    114 N         -1.6816  -18.6195  -57.0117 N.am      21 UNK        -0.5000 
    115 CA        -0.7711  -17.9418  -57.9417 C.3       21 UNK         0.1400 
    116 CB        -0.6323  -18.7271  -59.2603 C.3       21 UNK        -0.1800 
    117 C          0.6097  -17.5778  -57.3616 C.2       21 UNK         0.5000 
    118 O          0.9893  -16.4078  -57.4164 O.2       21 UNK        -0.5000 
    119 N          1.3360  -18.5731  -56.8366 N.am      22 UNK        -0.5000 
    120 CA         2.7193  -18.4787  -56.3282 C.3       22 UNK         0.1400 
    121 C          3.7831  -18.1071  -57.4117 C.2       22 UNK         0.5000 
    122 N          3.5115  -18.3006  -58.6970 N.am      22 UNK        -0.7600 
    123 O          4.8858  -17.6707  -57.0917 O.2       22 UNK        -0.5000 
    124 C124        2.8319  -17.6123  -55.0392 C.3       23 UNK        -0.0398 
    125 S125        2.1117  -18.4361  -53.5806 S.3       23 UNK        -0.2404 
    126 C126        0.4359  -17.7340  -53.5428 C.3       23 UNK        -0.0205 
    127 H127       -2.6614  -11.1010  -50.5402 H         1 UNK         0.0600 
    128 H128       -0.9732  -10.6902  -50.2238 H         1 UNK         0.0600 
    129 H129       -2.2668   -9.7616  -49.4582 H         1 UNK         0.0600 
    130 H130       -3.3061  -12.9286  -49.4377 H         1 UNK         0.3000 
    131 H131       -1.7975  -14.2078  -47.4642 H         1 UNK         0.0600 
    132 H132       -4.7518  -14.6714  -48.1138 H         1 UNK         0.0800 
    133 H133       -3.7150  -15.7895  -47.2705 H         1 UNK         0.0800 
    134 H134       -0.9640  -16.0741  -48.8913 H         1 UNK         0.0800 
    135 H135       -2.0514  -17.2592  -48.1997 H         1 UNK         0.0800 
    136 H136       -0.4225  -16.2478  -51.4153 H         1 UNK         0.1150 
    137 H137       -0.3768  -20.2520  -52.9366 H         1 UNK         0.1150 
    138 H138       -2.3051  -19.3713  -49.2004 H         1 UNK         0.1150 
    139 H139       -2.3124  -21.7713  -51.8149 H         1 UNK         0.0800 
    140 H140       -0.7758  -22.0630  -51.0443 H         1 UNK         0.0800 
    141 H141       -1.6633  -20.9367  -47.5192 H         1 UNK         0.0800 
    142 H142       -0.4186  -21.3712  -48.6533 H         1 UNK         0.0800 
    143 H143       -0.7245  -23.8057  -48.0279 H         1 UNK         0.0600 
    144 H144        0.6339  -21.8356  -46.5540 H         1 UNK         0.3000 
    145 H145        2.2092  -23.9817  -44.1469 H         1 UNK         0.0600 
    146 H146        4.1677  -22.8216  -45.1124 H         1 UNK         0.0600 
    147 H147        3.5590  -24.0102  -46.2544 H         1 UNK         0.0600 
    148 H148        3.2198  -22.3013  -46.5034 H         1 UNK         0.0600 
    149 H149        2.3246  -21.1665  -44.4712 H         1 UNK         0.3000 
    150 H150       -0.4668  -20.3456  -42.3443 H         1 UNK         0.0600 
    151 H151        1.5410  -20.6530  -40.9130 H         1 UNK         0.0600 
    152 H152        1.3618  -18.9649  -41.3712 H         1 UNK         0.0600 
    153 H153        2.5699  -19.9714  -42.1656 H         1 UNK         0.0600 
    154 H154        1.2307  -18.6616  -43.8694 H         1 UNK         0.3000 
    155 H155       -0.6622  -18.6635  -46.9042 H         1 UNK         0.0600 
    156 H156       -1.7587  -16.9825  -45.4805 H         1 UNK         0.0600 
    157 H157       -0.4736  -16.1985  -46.3865 H         1 UNK         0.0600 
    158 H158       -0.2461  -16.5854  -44.6850 H         1 UNK         0.0600 
    159 H159        1.7786  -17.4056  -46.0229 H         1 UNK         0.3000 
    160 H160        3.9758  -19.8923  -47.3485 H         1 UNK         0.0600 
    161 H161        3.2845  -17.0604  -48.3073 H         1 UNK         0.0600 
    162 H162        3.2691  -18.5064  -49.3092 H         1 UNK         0.0600 
    163 H163        4.7838  -17.9314  -48.6307 H         1 UNK         0.0600 
    164 H164        4.4309  -17.3446  -46.1271 H         1 UNK         0.3000 
    165 H165        4.4276  -18.4163  -42.7379 H         1 UNK         0.0600 
    166 H166        6.7327  -17.5187  -42.7894 H         1 UNK         0.0600 
    167 H167        6.6870  -19.0878  -43.5762 H         1 UNK         0.0600 
    168 H168        6.7704  -17.6246  -44.5500 H         1 UNK         0.0600 
    169 H169        5.0929  -15.9093  -43.8089 H         1 UNK         0.3000 
    170 H170        3.5034  -14.1651  -43.1971 H         1 UNK         0.0600 
    171 H171        4.1762  -14.4428  -45.5963 H         1 UNK         0.0600 
    172 H172        2.5030  -14.7464  -46.0487 H         1 UNK         0.0600 
    173 H173        2.9863  -13.1646  -45.4390 H         1 UNK         0.0600 
    174 H174        0.8842  -14.0372  -44.3523 H         1 UNK         0.3000 
    175 H175       -1.1425  -14.8149  -42.7886 H         1 UNK         0.0600 
    176 H176       -0.6313  -13.0755  -40.3184 H         1 UNK         0.0600 
    177 H177       -2.2156  -13.5968  -40.8895 H         1 UNK         0.0600 
    178 H178       -1.0488  -14.7830  -40.3274 H         1 UNK         0.0600 
    179 H179       -1.5615  -12.9450  -43.8728 H         1 UNK         0.3000 
    180 H180       -1.0815   -9.5618  -43.3349 H         1 UNK         0.0600 
    181 H181        0.5145  -11.0120  -45.5149 H         1 UNK         0.0600 
    182 H182        1.1419   -9.7980  -44.4082 H         1 UNK         0.0600 
    183 H183       -0.0582   -9.3468  -45.6095 H         1 UNK         0.0600 
    184 H184       -1.9650  -11.0691  -45.6310 H         1 UNK         0.3000 
    185 H185       -5.0236  -12.1622  -44.3893 H         1 UNK         0.0600 
    186 H186       -5.7772   -9.7826  -44.5814 H         1 UNK         0.0600 
    187 H187       -4.8721   -9.6071  -46.0800 H         1 UNK         0.0600 
    188 H188       -6.2441  -10.7133  -45.9947 H         1 UNK         0.0600 
    189 H189       -4.2373  -11.7726  -47.0813 H         1 UNK         0.3000 
    190 H190       -1.8395  -21.9260  -45.1612 H         1 UNK         0.3000 
    191 H191       -4.3897  -23.0635  -44.8882 H         1 UNK         0.0600 
    192 H192       -3.6935  -20.9963  -43.7419 H         1 UNK         0.0600 
    193 H193       -4.2683  -22.1683  -42.5661 H         1 UNK         0.0600 
    194 H194       -2.5412  -21.8914  -42.7542 H         1 UNK         0.0600 
    195 H195       -1.2669  -24.1822  -43.5574 H         1 UNK         0.3000 
    196 H196       -2.3335  -26.4063  -42.0921 H         1 UNK         0.0600 
    197 H197        0.0525  -27.1249  -42.0041 H         1 UNK         0.0600 
    198 H198       -0.1103  -25.4202  -41.6076 H         1 UNK         0.0600 
    199 H199        0.4817  -25.9028  -43.1949 H         1 UNK         0.0600 
    200 H200       -1.0972  -26.0480  -45.4316 H         1 UNK         0.3000 
    201 H201       -1.1274  -28.8225  -46.0753 H         1 UNK         0.0600 
    202 H202        0.3116  -27.2243  -47.2625 H         1 UNK         0.0600 
    203 H203       -1.0878  -26.3510  -47.8804 H         1 UNK         0.0600 
    204 H204       -0.7708  -27.9985  -48.4087 H         1 UNK         0.0600 
    205 H205       -3.4436  -26.1932  -46.9526 H         1 UNK         0.3000 
    206 H206       -5.6561  -28.0921  -47.2186 H         1 UNK         0.0600 
    207 H207       -4.5155  -28.5258  -49.3801 H         1 UNK         0.0600 
    208 H208       -5.9975  -27.6414  -49.6835 H         1 UNK         0.0600 
    209 H209       -4.4531  -26.8002  -49.7323 H         1 UNK         0.0600 
    210 H210       -4.4595  -24.8096  -47.1718 H         1 UNK         0.3000 
    211 H211       -5.3395  -22.8268  -46.9498 H         1 UNK         0.0600 
    212 H212       -8.0236  -24.0853  -46.1854 H         1 UNK         0.0600 
    213 H213       -7.4533  -22.4723  -45.7895 H         1 UNK         0.0600 
    214 H214       -6.6785  -23.8735  -45.0678 H         1 UNK         0.0600 
    215 H215       -5.4475  -24.1941  -49.5350 H         1 UNK         0.3000 
    216 H216       -7.6333  -22.9267  -51.0407 H         1 UNK         0.0600 
    217 H217       -6.5009  -24.0312  -52.9683 H         1 UNK         0.0600 
    218 H218       -6.8237  -25.1847  -51.6827 H         1 UNK         0.0600 
    219 H219       -5.1913  -24.5629  -51.9192 H         1 UNK         0.0600 
    220 H220       -6.8611  -20.8702  -49.9270 H         1 UNK         0.3000 
    221 H221       -4.4188  -19.6795  -50.2694 H         1 UNK         0.0600 
    222 H222       -7.1523  -18.3575  -49.8726 H         1 UNK         0.0600 
    223 H223       -6.0931  -18.9724  -48.6026 H         1 UNK         0.0600 
    224 H224       -5.6085  -17.5795  -49.5543 H         1 UNK         0.0600 
    225 H225       -3.5502  -18.0089  -51.4433 H         1 UNK         0.3000 
    226 H226       -2.9096  -16.8170  -53.1642 H         1 UNK         0.0600 
    227 H227       -4.9690  -15.5045  -52.6513 H         1 UNK         0.0600 
    228 H228       -4.5378  -15.4168  -54.3508 H         1 UNK         0.0600 
    229 H229       -5.8694  -16.4447  -53.8411 H         1 UNK         0.0600 
    230 H230       -2.8168  -19.5703  -53.5588 H         1 UNK         0.3000 
    231 H231       -3.6507  -20.3183  -56.2181 H         1 UNK         0.0600 
    232 H232       -3.4643  -21.9642  -54.3819 H         1 UNK         0.0600 
    233 H233       -1.7289  -21.6754  -54.2609 H         1 UNK         0.0600 
    234 H234       -2.4089  -22.4020  -55.7097 H         1 UNK         0.0600 
    235 H235       -2.5184  -18.0917  -56.7756 H         1 UNK         0.3000 
    236 H236       -1.2614  -16.9973  -58.1835 H         1 UNK         0.0600 
    237 H237       -1.6056  -18.8939  -59.7218 H         1 UNK         0.0600 
    238 H238       -0.0235  -18.1767  -59.9786 H         1 UNK         0.0600 
    239 H239       -0.1622  -19.6997  -59.1124 H         1 UNK         0.0600 
    240 H240        0.9026  -19.4923  -56.7987 H         1 UNK         0.3000 
    241 H241        2.9905  -19.4982  -56.0521 H         1 UNK         0.0600 
    242 H242        2.6232  -18.6797  -58.9825 H         1 UNK         0.3800 
    243 H243        4.2058  -18.0705  -59.3907 H         1 UNK         0.3800 
    244 H244        3.8762  -17.4286  -54.7831 H         1 UNK         0.0800 
    245 H245        2.3877  -16.6265  -55.1785 H         1 UNK         0.0800 
    246 H246        0.4984  -16.6451  -53.5678 H         1 UNK         0.0800 
    247 H247       -0.1085  -18.0368  -54.4365 H         1 UNK         0.0800 
@<TRIPOS>BOND
     1    1    2 1    
     2    1  127 1    
     3    1  128 1    
     4    1  129 1    
     5    2    3 2    
     6    2    4 am   BACKBONE|DICT|INTERRES
     7    4    5 1    
     8    4  130 1    
     9    5    6 1    
    10    5   65 1    
    11    5  131 1    
    12    6    7 1    
    13    6  132 1    
    14    6  133 1    
    15    7    8 1    
    16    8    9 1    
    17    8  134 1    
    18    8  135 1    
    19    9   10 ar   
    20    9   14 ar   
    21   10   11 ar   
    22   10  136 1    
    23   11   12 ar   
    24   11  126 1    
    25   12   13 ar   
    26   12  137 1    
    27   13   14 ar   
    28   13   15 1    
    29   14  138 1    
    30   15   16 1    
    31   15  139 1    
    32   15  140 1    
    33   16   17 1    
    34   17   18 1    
    35   17  141 1    
    36   17  142 1    
    37   18   19 1    
    38   18   67 1    
    39   18  143 1    
    40   19   20 am   BACKBONE|DICT|INTERRES
    41   19  144 1    
    42   20   21 2    
    43   20   22 1    
    44   22   23 1    
    45   22   24 1    
    46   22  145 1    
    47   23  146 1    
    48   23  147 1    
    49   23  148 1    
    50   24   25 am   BACKBONE|DICT|INTERRES
    51   24  149 1    
    52   25   26 2    
    53   25   27 1    
    54   27   28 1    
    55   27   29 1    
    56   27  150 1    
    57   28  151 1    
    58   28  152 1    
    59   28  153 1    
    60   29   30 am   BACKBONE|DICT|INTERRES
    61   29  154 1    
    62   30   31 2    
    63   30   32 1    
    64   32   33 1    
    65   32   34 1    
    66   32  155 1    
    67   33  156 1    
    68   33  157 1    
    69   33  158 1    
    70   34   35 am   BACKBONE|DICT|INTERRES
    71   34  159 1    
    72   35   36 2    
    73   35   37 1    
    74   37   38 1    
    75   37   39 1    
    76   37  160 1    
    77   38  161 1    
    78   38  162 1    
    79   38  163 1    
    80   39   40 am   BACKBONE|DICT|INTERRES
    81   39  164 1    
    82   40   41 2    
    83   40   42 1    
    84   42   43 1    
    85   42   44 1    
    86   42  165 1    
    87   43  166 1    
    88   43  167 1    
    89   43  168 1    
    90   44   45 am   BACKBONE|DICT|INTERRES
    91   44  169 1    
    92   45   46 2    
    93   45   47 1    
    94   47   48 1    
    95   47   49 1    
    96   47  170 1    
    97   48  171 1    
    98   48  172 1    
    99   48  173 1    
   100   49   50 am   BACKBONE|DICT|INTERRES
   101   49  174 1    
   102   50   51 2    
   103   50   52 1    
   104   52   53 1    
   105   52   54 1    
   106   52  175 1    
   107   53  176 1    
   108   53  177 1    
   109   53  178 1    
   110   54   55 am   BACKBONE|DICT|INTERRES
   111   54  179 1    
   112   55   56 2    
   113   55   57 1    
   114   57   58 1    
   115   57   59 1    
   116   57  180 1    
   117   58  181 1    
   118   58  182 1    
   119   58  183 1    
   120   59   60 am   BACKBONE|DICT|INTERRES
   121   59  184 1    
   122   60   61 2    
   123   60   62 1    
   124   62   63 1    
   125   62   64 1    
   126   62  185 1    
   127   63  186 1    
   128   63  187 1    
   129   63  188 1    
   130   64   65 am   BACKBONE|DICT|INTERRES
   131   64  189 1    
   132   65   66 2    
   133   67   68 2    
   134   67   69 am   BACKBONE|DICT|INTERRES
   135   69   70 1    
   136   69  190 1    
   137   70   71 1    
   138   70   72 1    
   139   70  191 1    
   140   71  192 1    
   141   71  193 1    
   142   71  194 1    
   143   72   73 2    
   144   72   74 am   BACKBONE|DICT|INTERRES
   145   74   75 1    
   146   74  195 1    
   147   75   76 1    
   148   75   77 1    
   149   75  196 1    
   150   76  197 1    
   151   76  198 1    
   152   76  199 1    
   153   77   78 2    
   154   77   79 am   BACKBONE|DICT|INTERRES
   155   79   80 1    
   156   79  200 1    
   157   80   81 1    
   158   80   82 1    
   159   80  201 1    
   160   81  202 1    
   161   81  203 1    
   162   81  204 1    
   163   82   83 2    
   164   82   84 am   BACKBONE|DICT|INTERRES
   165   84   85 1    
   166   84  205 1    
   167   85   86 1    
   168   85   87 1    
   169   85  206 1    
   170   86  207 1    
   171   86  208 1    
   172   86  209 1    
   173   87   88 2    
   174   87   89 am   BACKBONE|DICT|INTERRES
   175   89   90 1    
   176   89  210 1    
   177   90   91 1    
   178   90   92 1    
   179   90  211 1    
   180   91  212 1    
   181   91  213 1    
   182   91  214 1    
   183   92   93 2    
   184   92   94 am   BACKBONE|DICT|INTERRES
   185   94   95 1    
   186   94  215 1    
   187   95   96 1    
   188   95   97 1    
   189   95  216 1    
   190   96  217 1    
   191   96  218 1    
   192   96  219 1    
   193   97   98 2    
   194   97   99 am   BACKBONE|DICT|INTERRES
   195   99  100 1    
   196   99  220 1    
   197  100  101 1    
   198  100  102 1    
   199  100  221 1    
   200  101  222 1    
   201  101  223 1    
   202  101  224 1    
   203  102  103 2    
   204  102  104 am   BACKBONE|DICT|INTERRES
   205  104  105 1    
   206  104  225 1    
   207  105  106 1    
   208  105  107 1    
   209  105  226 1    
   210  106  227 1    
   211  106  228 1    
   212  106  229 1    
   213  107  108 2    
   214  107  109 am   BACKBONE|DICT|INTERRES
   215  109  110 1    
   216  109  230 1    
   217  110  111 1    
   218  110  112 1    
   219  110  231 1    
   220  111  232 1    
   221  111  233 1    
   222  111  234 1    
   223  112  113 2    
   224  112  114 am   BACKBONE|DICT|INTERRES
   225  114  115 1    
   226  114  235 1    
   227  115  116 1    
   228  115  117 1    
   229  115  236 1    
   230  116  237 1    
   231  116  238 1    
   232  116  239 1    
   233  117  118 2    
   234  117  119 am   BACKBONE|DICT|INTERRES
   235  119  120 1    
   236  119  240 1    
   237  120  121 1    
   238  120  124 1    
   239  120  241 1    
   240  121  122 am   BACKBONE|DICT|INTERRES
   241  121  123 2    
   242  122  242 1    
   243  122  243 1    
   244  124  125 1    
   245  124  244 1    
   246  124  245 1    
   247  125  126 1    
   248  126  246 1    
   249  126  247 1    
@<TRIPOS>SUBSTRUCTURE
     1 UNK         1 GROUP             0       ****    0 ROOT    
