@<TRIPOS>MOLECULE
3R540
247   249    1
SMALL
USER_CHARGES


@<TRIPOS>ATOM
      1 CA          0.4154   -8.5138  -46.1809 C.3       0 UNK        -0.1800 
      2 C           1.0712   -9.8773  -46.3454 C.2       0 UNK         0.5000 
      3 O           1.1599  -10.6231  -45.3713 O.2       0 UNK        -0.5000 
      4 N           1.5323  -10.1824  -47.5689 N.am      1 UNK        -0.5000 
      5 CA          2.1693  -11.4299  -48.0264 C.3       1 UNK         0.1400 
      6 C6          1.1865  -12.4587  -48.6522 C.3       23 UNK        -0.0398 
      7 S7         -0.2567  -12.9531  -47.6415 S.3       23 UNK        -0.2404 
      8 C8         -0.0419  -14.7581  -47.4728 C.3       23 UNK        -0.0205 
      9 C9          0.1538  -15.4800  -48.8023 C.ar      23 UNK        -0.0193 
     10 C10        -0.8036  -15.3899  -49.8184 C.ar      23 UNK        -0.1150 
     11 C11        -0.5884  -16.0048  -51.0569 C.ar      23 UNK        -0.0193 
     12 C12         0.5785  -16.7471  -51.2591 C.ar      23 UNK        -0.1150 
     13 C13         1.5352  -16.8654  -50.2458 C.ar      23 UNK        -0.0193 
     14 C14         1.3175  -16.2220  -49.0235 C.ar      23 UNK        -0.1150 
     15 C15         2.8259  -17.6392  -50.5000 C.3       23 UNK        -0.0205 
     16 S16         3.2262  -18.8428  -49.1887 S.3       23 UNK        -0.2404 
     17 C17         1.8066  -19.9778  -49.3149 C.3       23 UNK        -0.0398 
     18 CA          2.1340  -21.4107  -48.8291 C.3       11 UNK         0.1400 
     19 N           2.4550  -21.4360  -47.3960 N.am      11 UNK        -0.5000 
     20 C           3.0895  -22.4299  -46.7608 C.2       10 UNK         0.5000 
     21 O           3.4900  -23.4519  -47.3187 O.2       10 UNK        -0.5000 
     22 CA          3.2874  -22.2642  -45.2423 C.3       10 UNK         0.1400 
     23 CB          4.4932  -21.3609  -44.9390 C.3       10 UNK        -0.1800 
     24 N           2.0968  -21.7290  -44.5792 N.am      10 UNK        -0.5000 
     25 C           0.9786  -22.4301  -44.3450 C.2       9 UNK         0.5000 
     26 O           0.8385  -23.6142  -44.6508 O.2       9 UNK        -0.5000 
     27 CA         -0.1924  -21.6784  -43.6822 C.3       9 UNK         0.1400 
     28 CB         -0.0404  -21.6635  -42.1543 C.3       9 UNK        -0.1800 
     29 N          -0.3337  -20.3070  -44.1693 N.am      9 UNK        -0.5000 
     30 C          -0.6738  -19.9854  -45.4238 C.2       8 UNK         0.5000 
     31 O          -0.9902  -20.8132  -46.2765 O.2       8 UNK        -0.5000 
     32 CA         -0.6271  -18.4965  -45.8056 C.3       8 UNK         0.1400 
     33 CB         -1.9717  -17.8326  -45.4750 C.3       8 UNK        -0.1800 
     34 N           0.4698  -17.7688  -45.1654 N.am      8 UNK        -0.5000 
     35 C           1.7688  -18.0656  -45.3161 C.2       7 UNK         0.5000 
     36 O           2.1748  -18.9847  -46.0228 O.2       7 UNK        -0.5000 
     37 CA          2.7797  -17.2550  -44.4901 C.3       7 UNK         0.1400 
     38 CB          3.1098  -15.9187  -45.1616 C.3       7 UNK        -0.1800 
     39 N           2.2991  -17.0238  -43.1307 N.am      7 UNK        -0.5000 
     40 C           2.2374  -17.9753  -42.1901 C.2       6 UNK         0.5000 
     41 O           2.6641  -19.1200  -42.3445 O.2       6 UNK        -0.5000 
     42 CA          1.5362  -17.5926  -40.8761 C.3       6 UNK         0.1400 
     43 CB          2.5191  -16.9271  -39.9019 C.3       6 UNK        -0.1800 
     44 N           0.3889  -16.7111  -41.1060 N.am      6 UNK        -0.5000 
     45 C          -0.7660  -17.1268  -41.6465 C.2       5 UNK         0.5000 
     46 O          -0.9738  -18.2917  -41.9870 O.2       5 UNK        -0.5000 
     47 CA         -1.8672  -16.0714  -41.8691 C.3       5 UNK         0.1400 
     48 CB         -2.7621  -15.9633  -40.6258 C.3       5 UNK        -0.1800 
     49 N          -1.3656  -14.7405  -42.2150 N.am      5 UNK        -0.5000 
     50 C          -0.6339  -14.4406  -43.2969 C.2       4 UNK         0.5000 
     51 O          -0.2704  -15.2769  -44.1225 O.2       4 UNK        -0.5000 
     52 CA         -0.2016  -12.9703  -43.4789 C.3       4 UNK         0.1400 
     53 CB         -0.8721  -11.9904  -42.4913 C.3       4 UNK        -0.1800 
     54 N           1.2534  -12.7934  -43.4319 N.am      4 UNK        -0.5000 
     55 C           2.0956  -13.2573  -42.4961 C.2       3 UNK         0.5000 
     56 O           1.7440  -13.9818  -41.5628 O.2       3 UNK        -0.5000 
     57 CA          3.5726  -12.8415  -42.6043 C.3       3 UNK         0.1400 
     58 CB          4.5302  -13.9002  -42.0186 C.3       3 UNK        -0.1800 
     59 N           3.9691  -12.5019  -43.9734 N.am      3 UNK        -0.5000 
     60 C           4.9368  -11.6300  -44.2790 C.2       2 UNK         0.5000 
     61 O           5.5473  -10.9706  -43.4360 O.2       2 UNK        -0.5000 
     62 CA          5.3086  -11.4562  -45.7635 C.3       2 UNK         0.1400 
     63 CB          6.1770  -12.6280  -46.2632 C.3       2 UNK        -0.1800 
     64 N           4.1733  -11.1975  -46.6562 N.am      2 UNK        -0.5000 
     65 C           3.1940  -12.0294  -47.0370 C.2       1 UNK         0.5000 
     66 O           3.0787  -13.1850  -46.6316 O.2       1 UNK        -0.5000 
     67 C           0.9740  -22.3609  -49.2019 C.2       11 UNK         0.5000 
     68 O           0.7864  -22.6405  -50.3864 O.2       11 UNK        -0.5000 
     69 N           0.1985  -22.8027  -48.2007 N.am      12 UNK        -0.5000 
     70 CA         -1.0526  -23.5623  -48.3032 C.3       12 UNK         0.1400 
     71 CB         -0.8568  -24.9089  -49.0289 C.3       12 UNK        -0.1800 
     72 C          -2.2175  -22.7321  -48.8822 C.2       12 UNK         0.5000 
     73 O          -3.2265  -23.2947  -49.3010 O.2       12 UNK        -0.5000 
     74 N          -2.1022  -21.3991  -48.8269 N.am      13 UNK        -0.5000 
     75 CA         -3.1678  -20.4527  -49.1548 C.3       13 UNK         0.1400 
     76 CB         -2.5771  -19.0404  -49.2603 C.3       13 UNK        -0.1800 
     77 C          -4.3124  -20.4861  -48.1226 C.2       13 UNK         0.5000 
     78 O          -5.4423  -20.1305  -48.4534 O.2       13 UNK        -0.5000 
     79 N          -4.0001  -20.9373  -46.8998 N.am      14 UNK        -0.5000 
     80 CA         -4.9563  -21.1873  -45.8231 C.3       14 UNK         0.1400 
     81 CB         -4.1987  -21.1486  -44.4858 C.3       14 UNK        -0.1800 
     82 C          -5.7179  -22.5234  -45.9749 C.2       14 UNK         0.5000 
     83 O          -6.6786  -22.7447  -45.2359 O.2       14 UNK        -0.5000 
     84 N          -5.2797  -23.4010  -46.8912 N.am      15 UNK        -0.5000 
     85 CA         -5.9042  -24.6976  -47.1640 C.3       15 UNK         0.1400 
     86 CB         -4.8711  -25.6233  -47.8312 C.3       15 UNK        -0.1800 
     87 C          -7.1632  -24.5608  -48.0429 C.2       15 UNK         0.5000 
     88 O          -7.4726  -23.4709  -48.5338 O.2       15 UNK        -0.5000 
     89 N          -7.8583  -25.6893  -48.2452 N.am      16 UNK        -0.5000 
     90 CA         -9.0366  -25.8211  -49.1054 C.3       16 UNK         0.1400 
     91 CB         -9.5178  -27.2797  -49.0855 C.3       16 UNK        -0.1800 
     92 C          -8.7505  -25.3613  -50.5473 C.2       16 UNK         0.5000 
     93 O          -7.7709  -25.8108  -51.1485 O.2       16 UNK        -0.5000 
     94 N          -9.5770  -24.4273  -51.0400 N.am      17 UNK        -0.5000 
     95 CA         -9.4674  -23.7396  -52.3348 C.3       17 UNK         0.1400 
     96 CB         -9.7452  -24.7246  -53.4901 C.3       17 UNK        -0.1800 
     97 C          -8.1357  -22.9772  -52.5283 C.2       17 UNK         0.5000 
     98 O          -7.7231  -22.7545  -53.6676 O.2       17 UNK        -0.5000 
     99 N          -7.4579  -22.6345  -51.4197 N.am      18 UNK        -0.5000 
    100 CA        -6.1132  -22.0513  -51.3482 C.3       18 UNK         0.1400 
    101 CB        -6.1334  -20.6024  -51.8778 C.3       18 UNK        -0.1800 
    102 C         -5.0421  -22.9298  -52.0329 C.2       18 UNK         0.5000 
    103 O         -4.0861  -22.4046  -52.6086 O.2       18 UNK        -0.5000 
    104 N         -5.2628  -24.2549  -52.0232 N.am      19 UNK        -0.5000 
    105 CA        -4.4979  -25.2871  -52.7325 C.3       19 UNK         0.1400 
    106 CB        -3.0666  -25.3911  -52.1667 C.3       19 UNK        -0.1800 
    107 C         -4.5196  -25.1293  -54.2720 C.2       19 UNK         0.5000 
    108 O         -3.6685  -25.7014  -54.9536 O.2       19 UNK        -0.5000 
    109 N         -5.4854  -24.3512  -54.7892 N.am      20 UNK        -0.5000 
    110 CA        -5.7168  -23.9919  -56.1922 C.3       20 UNK         0.1400 
    111 CB        -6.0733  -25.2414  -57.0240 C.3       20 UNK        -0.1800 
    112 C         -4.5901  -23.1531  -56.8378 C.2       20 UNK         0.5000 
    113 O         -4.5700  -23.0203  -58.0631 O.2       20 UNK        -0.5000 
    114 N         -3.6810  -22.5938  -56.0267 N.am      21 UNK        -0.5000 
    115 CA        -2.5008  -21.8593  -56.4943 C.3       21 UNK         0.1400 
    116 CB        -1.3620  -22.8617  -56.7646 C.3       21 UNK        -0.1800 
    117 C         -2.0442  -20.7454  -55.5326 C.2       21 UNK         0.5000 
    118 O         -1.0406  -20.0906  -55.8186 O.2       21 UNK        -0.5000 
    119 N         -2.7588  -20.5453  -54.4171 N.am      22 UNK        -0.5000 
    120 CA        -2.3385  -19.7199  -53.2741 C.3       22 UNK         0.1400 
    121 C         -1.1374  -20.3628  -52.5251 C.2       22 UNK         0.5000 
    122 N         -1.2794  -21.6100  -52.0971 N.am      22 UNK        -0.7600 
    123 O         -0.0829  -19.7621  -52.3517 O.2       22 UNK        -0.5000 
    124 C124       -2.1724  -18.2084  -53.6139 C.3       23 UNK        -0.0398 
    125 S125       -2.8260  -17.1280  -52.2921 S.3       23 UNK        -0.2404 
    126 C126       -1.5808  -15.8037  -52.1951 C.3       23 UNK        -0.0205 
    127 H127        0.4018   -7.9526  -47.1155 H         1 UNK         0.0600 
    128 H128        0.9548   -7.9260  -45.4382 H         1 UNK         0.0600 
    129 H129       -0.6132   -8.6332  -45.8408 H         1 UNK         0.0600 
    130 H130        1.4204   -9.4877  -48.2938 H         1 UNK         0.3000 
    131 H131        2.7939  -11.1072  -48.8612 H         1 UNK         0.0600 
    132 H132        1.7393  -13.3407  -48.9764 H         1 UNK         0.0800 
    133 H133        0.7807  -12.0344  -49.5710 H         1 UNK         0.0800 
    134 H134        0.8004  -14.9416  -46.8068 H         1 UNK         0.0800 
    135 H135       -0.9196  -15.1660  -46.9740 H         1 UNK         0.0800 
    136 H136       -1.6991  -14.8066  -49.6560 H         1 UNK         0.1150 
    137 H137        0.7489  -17.2188  -52.2165 H         1 UNK         0.1150 
    138 H138        2.0654  -16.2913  -48.2467 H         1 UNK         0.1150 
    139 H139        2.7792  -18.1650  -51.4551 H         1 UNK         0.0800 
    140 H140        3.6469  -16.9260  -50.5812 H         1 UNK         0.0800 
    141 H141        0.9715  -19.5553  -48.7534 H         1 UNK         0.0800 
    142 H142        1.4955  -19.9970  -50.3594 H         1 UNK         0.0800 
    143 H143        3.0113  -21.7612  -49.3769 H         1 UNK         0.0600 
    144 H144        2.2363  -20.5890  -46.8730 H         1 UNK         0.3000 
    145 H145        3.4966  -23.2511  -44.8241 H         1 UNK         0.0600 
    146 H146        4.6591  -21.2727  -43.8652 H         1 UNK         0.0600 
    147 H147        4.3601  -20.3558  -45.3394 H         1 UNK         0.0600 
    148 H148        5.4045  -21.7691  -45.3776 H         1 UNK         0.0600 
    149 H149        2.1218  -20.7518  -44.3202 H         1 UNK         0.3000 
    150 H150       -1.1090  -22.2188  -43.9250 H         1 UNK         0.0600 
    151 H151        0.8496  -21.1162  -41.8427 H         1 UNK         0.0600 
    152 H152       -0.9029  -21.1967  -41.6781 H         1 UNK         0.0600 
    153 H153        0.0411  -22.6770  -41.7595 H         1 UNK         0.0600 
    154 H154       -0.1652  -19.5621  -43.5029 H         1 UNK         0.3000 
    155 H155       -0.4590  -18.4320  -46.8814 H         1 UNK         0.0600 
    156 H156       -2.7889  -18.3084  -46.0177 H         1 UNK         0.0600 
    157 H157       -1.9784  -16.7770  -45.7405 H         1 UNK         0.0600 
    158 H158       -2.2040  -17.9132  -44.4145 H         1 UNK         0.0600 
    159 H159        0.2146  -16.9505  -44.6159 H         1 UNK         0.3000 
    160 H160        3.7021  -17.8379  -44.4406 H         1 UNK         0.0600 
    161 H161        2.2836  -15.2141  -45.0780 H         1 UNK         0.0600 
    162 H162        3.3288  -16.0512  -46.2216 H         1 UNK         0.0600 
    163 H163        3.9883  -15.4576  -44.7135 H         1 UNK         0.0600 
    164 H164        1.8798  -16.1254  -42.9344 H         1 UNK         0.3000 
    165 H165        1.1752  -18.5131  -40.4117 H         1 UNK         0.0600 
    166 H166        2.0342  -16.6839  -38.9565 H         1 UNK         0.0600 
    167 H167        3.3542  -17.5921  -39.6781 H         1 UNK         0.0600 
    168 H168        2.9357  -16.0074  -40.3115 H         1 UNK         0.0600 
    169 H169        0.5230  -15.7242  -40.9193 H         1 UNK         0.3000 
    170 H170       -2.4879  -16.4105  -42.6993 H         1 UNK         0.0600 
    171 H171       -3.1749  -16.9364  -40.3559 H         1 UNK         0.0600 
    172 H172       -2.2087  -15.5906  -39.7628 H         1 UNK         0.0600 
    173 H173       -3.6035  -15.2928  -40.8014 H         1 UNK         0.0600 
    174 H174       -1.5894  -13.9955  -41.5718 H         1 UNK         0.3000 
    175 H175       -0.5131  -12.6900  -44.4859 H         1 UNK         0.0600 
    176 H176       -0.5722  -12.1769  -41.4593 H         1 UNK         0.0600 
    177 H177       -0.6021  -10.9613  -42.7295 H         1 UNK         0.0600 
    178 H178       -1.9597  -12.0530  -42.5456 H         1 UNK         0.0600 
    179 H179        1.6141  -12.1784  -44.1548 H         1 UNK         0.3000 
    180 H180        3.6546  -11.9434  -41.9888 H         1 UNK         0.0600 
    181 H181        4.3306  -14.0635  -40.9592 H         1 UNK         0.0600 
    182 H182        5.5710  -13.5873  -42.0996 H         1 UNK         0.0600 
    183 H183        4.4289  -14.8611  -42.5216 H         1 UNK         0.0600 
    184 H184        3.5046  -12.9890  -44.7360 H         1 UNK         0.3000 
    185 H185        5.9256  -10.5580  -45.8221 H         1 UNK         0.0600 
    186 H186        7.0790  -12.7260  -45.6580 H         1 UNK         0.0600 
    187 H187        5.6508  -13.5816  -46.2130 H         1 UNK         0.0600 
    188 H188        6.4932  -12.4730  -47.2946 H         1 UNK         0.0600 
    189 H189        4.1277  -10.2516  -47.0092 H         1 UNK         0.3000 
    190 H190        0.4270  -22.4830  -47.2686 H         1 UNK         0.3000 
    191 H191       -1.3376  -23.7890  -47.2749 H         1 UNK         0.0600 
    192 H192       -1.7377  -25.5416  -48.9160 H         1 UNK         0.0600 
    193 H193       -0.0088  -25.4584  -48.6206 H         1 UNK         0.0600 
    194 H194       -0.6908  -24.7762  -50.0981 H         1 UNK         0.0600 
    195 H195       -1.2881  -21.0236  -48.3592 H         1 UNK         0.3000 
    196 H196       -3.5750  -20.7310  -50.1271 H         1 UNK         0.0600 
    197 H197       -3.3361  -18.3279  -49.5843 H         1 UNK         0.0600 
    198 H198       -1.7592  -18.9978  -49.9792 H         1 UNK         0.0600 
    199 H199       -2.1958  -18.6897  -48.3049 H         1 UNK         0.0600 
    200 H200       -3.0310  -21.1650  -46.7098 H         1 UNK         0.3000 
    201 H201       -5.6982  -20.3861  -45.8184 H         1 UNK         0.0600 
    202 H202       -4.8794  -21.2861  -43.6447 H         1 UNK         0.0600 
    203 H203       -3.6967  -20.1920  -44.3405 H         1 UNK         0.0600 
    204 H204       -3.4462  -21.9353  -44.4303 H         1 UNK         0.0600 
    205 H205       -4.5367  -23.1266  -47.5199 H         1 UNK         0.3000 
    206 H206       -6.2005  -25.1455  -46.2132 H         1 UNK         0.0600 
    207 H207       -3.9158  -25.6019  -47.3064 H         1 UNK         0.0600 
    208 H208       -5.2139  -26.6582  -47.8307 H         1 UNK         0.0600 
    209 H209       -4.6918  -25.3472  -48.8707 H         1 UNK         0.0600 
    210 H210       -7.5217  -26.5443  -47.8275 H         1 UNK         0.3000 
    211 H211       -9.8237  -25.1947  -48.6806 H         1 UNK         0.0600 
    212 H212       -8.7546  -27.9602  -49.4657 H         1 UNK         0.0600 
    213 H213      -10.4070  -27.4055  -49.7047 H         1 UNK         0.0600 
    214 H214       -9.7786  -27.5969  -48.0757 H         1 UNK         0.0600 
    215 H215      -10.3339  -24.1071  -50.4513 H         1 UNK         0.3000 
    216 H216      -10.2522  -22.9822  -52.3482 H         1 UNK         0.0600 
    217 H217      -10.6866  -25.2532  -53.3405 H         1 UNK         0.0600 
    218 H218       -8.9541  -25.4690  -53.5870 H         1 UNK         0.0600 
    219 H219       -9.8183  -24.2012  -54.4442 H         1 UNK         0.0600 
    220 H220       -7.8495  -22.8913  -50.5195 H         1 UNK         0.3000 
    221 H221       -5.8503  -22.0256  -50.2912 H         1 UNK         0.0600 
    222 H222       -5.2082  -20.0816  -51.6402 H         1 UNK         0.0600 
    223 H223       -6.2632  -20.5660  -52.9599 H         1 UNK         0.0600 
    224 H224       -6.9418  -20.0300  -51.4230 H         1 UNK         0.0600 
    225 H225       -6.0996  -24.5935  -51.5598 H         1 UNK         0.3000 
    226 H226       -5.0047  -26.2296  -52.5217 H         1 UNK         0.0600 
    227 H227       -3.0834  -25.5104  -51.0837 H         1 UNK         0.0600 
    228 H228       -2.5424  -26.2541  -52.5782 H         1 UNK         0.0600 
    229 H229       -2.4704  -24.5079  -52.3961 H         1 UNK         0.0600 
    230 H230       -6.1315  -23.9099  -54.1427 H         1 UNK         0.3000 
    231 H231       -6.5952  -23.3452  -56.1871 H         1 UNK         0.0600 
    232 H232       -6.4099  -24.9648  -58.0237 H         1 UNK         0.0600 
    233 H233       -6.8801  -25.8074  -56.5584 H         1 UNK         0.0600 
    234 H234       -5.2186  -25.9079  -57.1416 H         1 UNK         0.0600 
    235 H235       -3.7482  -22.7746  -55.0344 H         1 UNK         0.3000 
    236 H236       -2.7415  -21.3523  -57.4309 H         1 UNK         0.0600 
    237 H237       -1.6520  -23.5988  -57.5135 H         1 UNK         0.0600 
    238 H238       -0.4695  -22.3587  -57.1387 H         1 UNK         0.0600 
    239 H239       -1.0827  -23.3991  -55.8575 H         1 UNK         0.0600 
    240 H240       -3.5539  -21.1395  -54.2271 H         1 UNK         0.3000 
    241 H241       -3.1688  -19.7990  -52.5747 H         1 UNK         0.0600 
    242 H242       -2.1589  -22.0970  -52.2287 H         1 UNK         0.3800 
    243 H243       -0.5143  -22.0498  -51.5932 H         1 UNK         0.3800 
    244 H244       -2.7377  -17.9638  -54.5139 H         1 UNK         0.0800 
    245 H245       -1.1363  -17.9602  -53.8475 H         1 UNK         0.0800 
    246 H246       -2.1035  -14.8562  -52.0560 H         1 UNK         0.0800 
    247 H247       -1.0523  -15.7089  -53.1447 H         1 UNK         0.0800 
@<TRIPOS>BOND
     1    1    2 1    
     2    1  127 1    
     3    1  128 1    
     4    1  129 1    
     5    2    3 2    
     6    2    4 am   BACKBONE|DICT|INTERRES
     7    4    5 1    
     8    4  130 1    
     9    5    6 1    
    10    5   65 1    
    11    5  131 1    
    12    6    7 1    
    13    6  132 1    
    14    6  133 1    
    15    7    8 1    
    16    8    9 1    
    17    8  134 1    
    18    8  135 1    
    19    9   10 ar   
    20    9   14 ar   
    21   10   11 ar   
    22   10  136 1    
    23   11   12 ar   
    24   11  126 1    
    25   12   13 ar   
    26   12  137 1    
    27   13   14 ar   
    28   13   15 1    
    29   14  138 1    
    30   15   16 1    
    31   15  139 1    
    32   15  140 1    
    33   16   17 1    
    34   17   18 1    
    35   17  141 1    
    36   17  142 1    
    37   18   19 1    
    38   18   67 1    
    39   18  143 1    
    40   19   20 am   BACKBONE|DICT|INTERRES
    41   19  144 1    
    42   20   21 2    
    43   20   22 1    
    44   22   23 1    
    45   22   24 1    
    46   22  145 1    
    47   23  146 1    
    48   23  147 1    
    49   23  148 1    
    50   24   25 am   BACKBONE|DICT|INTERRES
    51   24  149 1    
    52   25   26 2    
    53   25   27 1    
    54   27   28 1    
    55   27   29 1    
    56   27  150 1    
    57   28  151 1    
    58   28  152 1    
    59   28  153 1    
    60   29   30 am   BACKBONE|DICT|INTERRES
    61   29  154 1    
    62   30   31 2    
    63   30   32 1    
    64   32   33 1    
    65   32   34 1    
    66   32  155 1    
    67   33  156 1    
    68   33  157 1    
    69   33  158 1    
    70   34   35 am   BACKBONE|DICT|INTERRES
    71   34  159 1    
    72   35   36 2    
    73   35   37 1    
    74   37   38 1    
    75   37   39 1    
    76   37  160 1    
    77   38  161 1    
    78   38  162 1    
    79   38  163 1    
    80   39   40 am   BACKBONE|DICT|INTERRES
    81   39  164 1    
    82   40   41 2    
    83   40   42 1    
    84   42   43 1    
    85   42   44 1    
    86   42  165 1    
    87   43  166 1    
    88   43  167 1    
    89   43  168 1    
    90   44   45 am   BACKBONE|DICT|INTERRES
    91   44  169 1    
    92   45   46 2    
    93   45   47 1    
    94   47   48 1    
    95   47   49 1    
    96   47  170 1    
    97   48  171 1    
    98   48  172 1    
    99   48  173 1    
   100   49   50 am   BACKBONE|DICT|INTERRES
   101   49  174 1    
   102   50   51 2    
   103   50   52 1    
   104   52   53 1    
   105   52   54 1    
   106   52  175 1    
   107   53  176 1    
   108   53  177 1    
   109   53  178 1    
   110   54   55 am   BACKBONE|DICT|INTERRES
   111   54  179 1    
   112   55   56 2    
   113   55   57 1    
   114   57   58 1    
   115   57   59 1    
   116   57  180 1    
   117   58  181 1    
   118   58  182 1    
   119   58  183 1    
   120   59   60 am   BACKBONE|DICT|INTERRES
   121   59  184 1    
   122   60   61 2    
   123   60   62 1    
   124   62   63 1    
   125   62   64 1    
   126   62  185 1    
   127   63  186 1    
   128   63  187 1    
   129   63  188 1    
   130   64   65 am   BACKBONE|DICT|INTERRES
   131   64  189 1    
   132   65   66 2    
   133   67   68 2    
   134   67   69 am   BACKBONE|DICT|INTERRES
   135   69   70 1    
   136   69  190 1    
   137   70   71 1    
   138   70   72 1    
   139   70  191 1    
   140   71  192 1    
   141   71  193 1    
   142   71  194 1    
   143   72   73 2    
   144   72   74 am   BACKBONE|DICT|INTERRES
   145   74   75 1    
   146   74  195 1    
   147   75   76 1    
   148   75   77 1    
   149   75  196 1    
   150   76  197 1    
   151   76  198 1    
   152   76  199 1    
   153   77   78 2    
   154   77   79 am   BACKBONE|DICT|INTERRES
   155   79   80 1    
   156   79  200 1    
   157   80   81 1    
   158   80   82 1    
   159   80  201 1    
   160   81  202 1    
   161   81  203 1    
   162   81  204 1    
   163   82   83 2    
   164   82   84 am   BACKBONE|DICT|INTERRES
   165   84   85 1    
   166   84  205 1    
   167   85   86 1    
   168   85   87 1    
   169   85  206 1    
   170   86  207 1    
   171   86  208 1    
   172   86  209 1    
   173   87   88 2    
   174   87   89 am   BACKBONE|DICT|INTERRES
   175   89   90 1    
   176   89  210 1    
   177   90   91 1    
   178   90   92 1    
   179   90  211 1    
   180   91  212 1    
   181   91  213 1    
   182   91  214 1    
   183   92   93 2    
   184   92   94 am   BACKBONE|DICT|INTERRES
   185   94   95 1    
   186   94  215 1    
   187   95   96 1    
   188   95   97 1    
   189   95  216 1    
   190   96  217 1    
   191   96  218 1    
   192   96  219 1    
   193   97   98 2    
   194   97   99 am   BACKBONE|DICT|INTERRES
   195   99  100 1    
   196   99  220 1    
   197  100  101 1    
   198  100  102 1    
   199  100  221 1    
   200  101  222 1    
   201  101  223 1    
   202  101  224 1    
   203  102  103 2    
   204  102  104 am   BACKBONE|DICT|INTERRES
   205  104  105 1    
   206  104  225 1    
   207  105  106 1    
   208  105  107 1    
   209  105  226 1    
   210  106  227 1    
   211  106  228 1    
   212  106  229 1    
   213  107  108 2    
   214  107  109 am   BACKBONE|DICT|INTERRES
   215  109  110 1    
   216  109  230 1    
   217  110  111 1    
   218  110  112 1    
   219  110  231 1    
   220  111  232 1    
   221  111  233 1    
   222  111  234 1    
   223  112  113 2    
   224  112  114 am   BACKBONE|DICT|INTERRES
   225  114  115 1    
   226  114  235 1    
   227  115  116 1    
   228  115  117 1    
   229  115  236 1    
   230  116  237 1    
   231  116  238 1    
   232  116  239 1    
   233  117  118 2    
   234  117  119 am   BACKBONE|DICT|INTERRES
   235  119  120 1    
   236  119  240 1    
   237  120  121 1    
   238  120  124 1    
   239  120  241 1    
   240  121  122 am   BACKBONE|DICT|INTERRES
   241  121  123 2    
   242  122  242 1    
   243  122  243 1    
   244  124  125 1    
   245  124  244 1    
   246  124  245 1    
   247  125  126 1    
   248  126  246 1    
   249  126  247 1    
@<TRIPOS>SUBSTRUCTURE
     1 UNK         1 GROUP             0       ****    0 ROOT    
