@<TRIPOS>MOLECULE
3R540
247   249    1
SMALL
USER_CHARGES


@<TRIPOS>ATOM
      1 CA          4.9604  -15.5896  -49.8301 C.3       0 UNK        -0.1800 
      2 C           4.6294  -14.2824  -49.1242 C.2       0 UNK         0.5000 
      3 O           5.2615  -13.2633  -49.3969 O.2       0 UNK        -0.5000 
      4 N           3.6492  -14.3172  -48.2098 N.am      1 UNK        -0.5000 
      5 CA          3.1423  -13.1903  -47.4057 C.3       1 UNK         0.1400 
      6 C6          2.5219  -12.0425  -48.2546 C.3       23 UNK        -0.0398 
      7 S7          0.9105  -12.5219  -48.9671 S.3       23 UNK        -0.2404 
      8 C8          1.3433  -13.0689  -50.6479 C.3       23 UNK        -0.0205 
      9 C9          0.6086  -14.3563  -50.9878 C.ar      23 UNK        -0.0193 
     10 C10        -0.6374  -14.3232  -51.6210 C.ar      23 UNK        -0.1150 
     11 C11        -1.3334  -15.5061  -51.8954 C.ar      23 UNK        -0.0193 
     12 C12        -0.7682  -16.7306  -51.5141 C.ar      23 UNK        -0.1150 
     13 C13         0.4868  -16.7774  -50.9031 C.ar      23 UNK        -0.0193 
     14 C14         1.1681  -15.5877  -50.6442 C.ar      23 UNK        -0.1150 
     15 C15         1.1147  -18.1051  -50.5136 C.3       23 UNK        -0.0205 
     16 S16         0.6986  -18.5498  -48.8028 S.3       23 UNK        -0.2404 
     17 C17        -0.9310  -19.3480  -49.0050 C.3       23 UNK        -0.0398 
     18 CA         -0.9156  -20.7985  -48.4747 C.3       11 UNK         0.1400 
     19 N          -0.6200  -20.8639  -47.0408 N.am      11 UNK        -0.5000 
     20 C          -0.3516  -21.9891  -46.3661 C.2       10 UNK         0.5000 
     21 O          -0.2975  -23.1026  -46.8860 O.2       10 UNK        -0.5000 
     22 CA         -0.1633  -21.8506  -44.8475 C.3       10 UNK         0.1400 
     23 CB          1.2725  -21.4224  -44.5072 C.3       10 UNK        -0.1800 
     24 N          -1.1142  -20.8975  -44.2764 N.am      10 UNK        -0.5000 
     25 C          -2.4225  -21.1414  -44.1208 C.2       9 UNK         0.5000 
     26 O          -2.9560  -22.2124  -44.4121 O.2       9 UNK        -0.5000 
     27 CA         -3.2841  -19.9800  -43.5891 C.3       9 UNK         0.1400 
     28 CB         -3.1904  -19.8911  -42.0587 C.3       9 UNK        -0.1800 
     29 N          -2.9244  -18.6863  -44.1744 N.am      9 UNK        -0.5000 
     30 C          -3.0817  -18.3777  -45.4687 C.2       8 UNK         0.5000 
     31 O          -3.5603  -19.1478  -46.2987 O.2       8 UNK        -0.5000 
     32 CA         -2.5881  -16.9957  -45.9318 C.3       8 UNK         0.1400 
     33 CB         -3.6752  -15.9346  -45.7080 C.3       8 UNK        -0.1800 
     34 N          -1.3372  -16.5315  -45.3272 N.am      8 UNK        -0.5000 
     35 C          -0.1842  -17.2048  -45.2281 C.2       7 UNK         0.5000 
     36 O          -0.0786  -18.4052  -45.4781 O.2       7 UNK        -0.5000 
     37 CA          1.0762  -16.4341  -44.7753 C.3       7 UNK         0.1400 
     38 CB          2.0760  -16.3349  -45.9396 C.3       7 UNK        -0.1800 
     39 N           0.8734  -15.1125  -44.1555 N.am      7 UNK        -0.5000 
     40 C           0.2971  -14.0109  -44.6579 C.2       6 UNK         0.5000 
     41 O          -0.1956  -13.9495  -45.7820 O.2       6 UNK        -0.5000 
     42 CA          0.2215  -12.7820  -43.7432 C.3       6 UNK         0.1400 
     43 CB         -0.7690  -13.0109  -42.5882 C.3       6 UNK        -0.1800 
     44 N           1.5296  -12.4062  -43.2074 N.am      6 UNK        -0.5000 
     45 C           1.9113  -11.1367  -42.9938 C.2       5 UNK         0.5000 
     46 O           1.2121  -10.1642  -43.2866 O.2       5 UNK        -0.5000 
     47 CA          3.2907  -10.9056  -42.3304 C.3       5 UNK         0.1400 
     48 CB          3.3997   -9.5358  -41.6285 C.3       5 UNK        -0.1800 
     49 N           3.6906  -11.9823  -41.4207 N.am      5 UNK        -0.5000 
     50 C           3.0367  -12.4249  -40.3338 C.2       4 UNK         0.5000 
     51 O           2.0339  -11.8805  -39.8693 O.2       4 UNK        -0.5000 
     52 CA          3.5854  -13.7133  -39.6742 C.3       4 UNK         0.1400 
     53 CB          2.4678  -14.5652  -39.0365 C.3       4 UNK        -0.1800 
     54 N           4.4032  -14.5362  -40.5785 N.am      4 UNK        -0.5000 
     55 C           4.0203  -15.0629  -41.7506 C.2       3 UNK         0.5000 
     56 O           2.8829  -14.9592  -42.2143 O.2       3 UNK        -0.5000 
     57 CA          5.1212  -15.7379  -42.5860 C.3       3 UNK         0.1400 
     58 CB          4.7130  -17.1571  -43.0099 C.3       3 UNK        -0.1800 
     59 N           5.4505  -14.9522  -43.7782 N.am      3 UNK        -0.5000 
     60 C           5.9550  -13.7086  -43.7775 C.2       2 UNK         0.5000 
     61 O           6.1583  -13.0520  -42.7554 O.2       2 UNK        -0.5000 
     62 CA          6.2855  -13.0933  -45.1476 C.3       2 UNK         0.1400 
     63 CB          7.6489  -13.5942  -45.6484 C.3       2 UNK        -0.1800 
     64 N           5.2642  -13.4008  -46.1479 N.am      2 UNK        -0.5000 
     65 C           4.1444  -12.6887  -46.3366 C.2       1 UNK         0.5000 
     66 O           3.8696  -11.6896  -45.6725 O.2       1 UNK        -0.5000 
     67 C          -2.2240  -21.5338  -48.8288 C.2       11 UNK         0.5000 
     68 O          -2.2787  -22.1871  -49.8711 O.2       11 UNK        -0.5000 
     69 N          -3.2370  -21.4431  -47.9549 N.am      12 UNK        -0.5000 
     70 CA         -4.4791  -22.2087  -48.0389 C.3       12 UNK         0.1400 
     71 CB         -5.5099  -21.6605  -47.0419 C.3       12 UNK        -0.1800 
     72 C          -4.2427  -23.7098  -47.8177 C.2       12 UNK         0.5000 
     73 O          -4.7120  -24.5160  -48.6197 O.2       12 UNK        -0.5000 
     74 N          -3.4867  -24.0624  -46.7668 N.am      13 UNK        -0.5000 
     75 CA         -3.1224  -25.4430  -46.4313 C.3       13 UNK         0.1400 
     76 CB         -2.3557  -25.4709  -45.1016 C.3       13 UNK        -0.1800 
     77 C          -2.3198  -26.1488  -47.5410 C.2       13 UNK         0.5000 
     78 O          -2.5702  -27.3224  -47.8163 O.2       13 UNK        -0.5000 
     79 N          -1.4244  -25.4063  -48.2067 N.am      14 UNK        -0.5000 
     80 CA         -0.6602  -25.8471  -49.3777 C.3       14 UNK         0.1400 
     81 CB          0.3759  -24.7699  -49.7324 C.3       14 UNK        -0.1800 
     82 C          -1.5333  -26.1822  -50.6062 C.2       14 UNK         0.5000 
     83 O          -1.1081  -26.9718  -51.4498 O.2       14 UNK        -0.5000 
     84 N          -2.7386  -25.6032  -50.6709 N.am      15 UNK        -0.5000 
     85 CA         -3.7623  -25.8645  -51.6827 C.3       15 UNK         0.1400 
     86 CB         -4.2930  -24.5140  -52.1863 C.3       15 UNK        -0.1800 
     87 C          -4.9024  -26.7478  -51.1313 C.2       15 UNK         0.5000 
     88 O          -5.9748  -26.7972  -51.7362 O.2       15 UNK        -0.5000 
     89 N          -4.6764  -27.4034  -49.9803 N.am      16 UNK        -0.5000 
     90 CA         -5.5960  -28.2952  -49.2602 C.3       16 UNK         0.1400 
     91 CB         -5.8105  -29.5965  -50.0606 C.3       16 UNK        -0.1800 
     92 C          -6.9283  -27.6281  -48.8489 C.2       16 UNK         0.5000 
     93 O          -7.9415  -28.3152  -48.7118 O.2       16 UNK        -0.5000 
     94 N          -6.9050  -26.2967  -48.6859 N.am      17 UNK        -0.5000 
     95 CA         -8.0282  -25.3948  -48.4120 C.3       17 UNK         0.1400 
     96 CB         -8.6504  -25.6913  -47.0323 C.3       17 UNK        -0.1800 
     97 C          -9.0853  -25.3248  -49.5382 C.2       17 UNK         0.5000 
     98 O         -10.1553  -24.7529  -49.3228 O.2       17 UNK        -0.5000 
     99 N          -8.7765  -25.8698  -50.7250 N.am      18 UNK        -0.5000 
    100 CA        -9.6298  -25.7998  -51.9152 C.3       18 UNK         0.1400 
    101 CB        -9.2732  -26.9617  -52.8549 C.3       18 UNK        -0.1800 
    102 C         -9.4942  -24.4504  -52.6474 C.2       18 UNK         0.5000 
    103 O        -10.4008  -24.0574  -53.3825 O.2       18 UNK        -0.5000 
    104 N         -8.3679  -23.7697  -52.4199 N.am      19 UNK        -0.5000 
    105 CA        -8.0102  -22.4465  -52.9114 C.3       19 UNK         0.1400 
    106 CB        -7.6200  -22.5149  -54.4048 C.3       19 UNK        -0.1800 
    107 C         -6.8861  -21.9295  -51.9953 C.2       19 UNK         0.5000 
    108 O         -6.8761  -22.2638  -50.8074 O.2       19 UNK        -0.5000 
    109 N         -5.9363  -21.1752  -52.5541 N.am      20 UNK        -0.5000 
    110 CA        -4.6754  -20.8183  -51.9178 C.3       20 UNK         0.1400 
    111 CB        -4.7852  -19.4467  -51.2342 C.3       20 UNK        -0.1800 
    112 C         -3.5771  -20.8454  -52.9857 C.2       20 UNK         0.5000 
    113 O         -3.8435  -20.5211  -54.1463 O.2       20 UNK        -0.5000 
    114 N         -2.3673  -21.2443  -52.5801 N.am      21 UNK        -0.5000 
    115 CA        -1.1872  -21.4279  -53.4279 C.3       21 UNK         0.1400 
    116 CB        -0.2179  -22.3749  -52.6969 C.3       21 UNK        -0.1800 
    117 C         -0.5208  -20.0957  -53.8430 C.2       21 UNK         0.5000 
    118 O          0.6767  -19.9078  -53.6251 O.2       21 UNK        -0.5000 
    119 N         -1.3119  -19.1864  -54.4217 N.am      22 UNK        -0.5000 
    120 CA        -0.8996  -17.8349  -54.8409 C.3       22 UNK         0.1400 
    121 C         -0.0408  -17.7826  -56.1391 C.2       22 UNK         0.5000 
    122 N          0.1123  -18.8703  -56.8846 N.am      22 UNK        -0.7600 
    123 O          0.5015  -16.7336  -56.4757 O.2       22 UNK        -0.5000 
    124 C124       -2.1055  -16.8613  -54.9457 C.3       23 UNK        -0.0398 
    125 S125       -3.2239  -16.8933  -53.5001 S.3       23 UNK        -0.2404 
    126 C126       -2.7070  -15.4146  -52.5607 C.3       23 UNK        -0.0205 
    127 H127        6.0240  -15.8088  -49.7358 H         1 UNK         0.0600 
    128 H128        4.4040  -16.4297  -49.4135 H         1 UNK         0.0600 
    129 H129        4.7198  -15.5134  -50.8905 H         1 UNK         0.0600 
    130 H130        3.1805  -15.1953  -48.0406 H         1 UNK         0.3000 
    131 H131        2.3318  -13.6045  -46.8085 H         1 UNK         0.0600 
    132 H132        2.3212  -11.1662  -47.6363 H         1 UNK         0.0800 
    133 H133        3.1999  -11.6991  -49.0359 H         1 UNK         0.0800 
    134 H134        1.0858  -12.2828  -51.3592 H         1 UNK         0.0800 
    135 H135        2.4184  -13.2229  -50.7398 H         1 UNK         0.0800 
    136 H136       -1.0740  -13.3700  -51.8847 H         1 UNK         0.1150 
    137 H137       -1.2963  -17.6538  -51.6997 H         1 UNK         0.1150 
    138 H138        2.1287  -15.6219  -50.1559 H         1 UNK         0.1150 
    139 H139        0.8066  -18.8976  -51.1953 H         1 UNK         0.0800 
    140 H140        2.1999  -18.0378  -50.6035 H         1 UNK         0.0800 
    141 H141       -1.2138  -19.3348  -50.0582 H         1 UNK         0.0800 
    142 H142       -1.6790  -18.7521  -48.4820 H         1 UNK         0.0800 
    143 H143       -0.1138  -21.3310  -48.9912 H         1 UNK         0.0600 
    144 H144       -0.5852  -19.9804  -46.5401 H         1 UNK         0.3000 
    145 H145       -0.3397  -22.8282  -44.3944 H         1 UNK         0.0600 
    146 H146        1.4172  -21.3500  -43.4292 H         1 UNK         0.0600 
    147 H147        1.9929  -22.1495  -44.8840 H         1 UNK         0.0600 
    148 H148        1.5251  -20.4565  -44.9453 H         1 UNK         0.0600 
    149 H149       -0.7720  -19.9575  -44.1242 H         1 UNK         0.3000 
    150 H150       -4.3223  -20.1920  -43.8539 H         1 UNK         0.0600 
    151 H151       -3.4692  -20.8385  -41.5953 H         1 UNK         0.0600 
    152 H152       -3.8631  -19.1283  -41.6663 H         1 UNK         0.0600 
    153 H153       -2.1791  -19.6494  -41.7293 H         1 UNK         0.0600 
    154 H154       -2.5062  -18.0013  -43.5624 H         1 UNK         0.3000 
    155 H155       -2.4065  -17.0628  -47.0055 H         1 UNK         0.0600 
    156 H156       -3.3895  -14.9789  -46.1483 H         1 UNK         0.0600 
    157 H157       -3.8648  -15.7715  -44.6464 H         1 UNK         0.0600 
    158 H158       -4.6174  -16.2346  -46.1690 H         1 UNK         0.0600 
    159 H159       -1.2698  -15.5320  -45.1812 H         1 UNK         0.3000 
    160 H160        1.5313  -17.0474  -43.9971 H         1 UNK         0.0600 
    161 H161        1.6272  -15.8421  -46.8023 H         1 UNK         0.0600 
    162 H162        2.3930  -17.3268  -46.2646 H         1 UNK         0.0600 
    163 H163        2.9710  -15.7860  -45.6484 H         1 UNK         0.0600 
    164 H164        1.2888  -15.0409  -43.2303 H         1 UNK         0.3000 
    165 H165       -0.1659  -11.9697  -44.3622 H         1 UNK         0.0600 
    166 H166       -0.4130  -13.7760  -41.8972 H         1 UNK         0.0600 
    167 H167       -0.9234  -12.0951  -42.0173 H         1 UNK         0.0600 
    168 H168       -1.7432  -13.3288  -42.9621 H         1 UNK         0.0600 
    169 H169        2.1512  -13.1631  -42.9441 H         1 UNK         0.3000 
    170 H170        4.0207  -10.9132  -43.1400 H         1 UNK         0.0600 
    171 H171        3.2551   -8.7199  -42.3376 H         1 UNK         0.0600 
    172 H172        2.6522   -9.4223  -40.8429 H         1 UNK         0.0600 
    173 H173        4.3832   -9.4007  -41.1786 H         1 UNK         0.0600 
    174 H174        4.5208  -12.4916  -41.7075 H         1 UNK         0.3000 
    175 H175        4.2495  -13.3835  -38.8742 H         1 UNK         0.0600 
    176 H176        2.8720  -15.4689  -38.5807 H         1 UNK         0.0600 
    177 H177        1.9517  -14.0115  -38.2514 H         1 UNK         0.0600 
    178 H178        1.7187  -14.8653  -39.7699 H         1 UNK         0.0600 
    179 H179        5.3731  -14.6320  -40.3103 H         1 UNK         0.3000 
    180 H180        6.0244  -15.8182  -41.9776 H         1 UNK         0.0600 
    181 H181        3.8632  -17.1481  -43.6906 H         1 UNK         0.0600 
    182 H182        4.4342  -17.7591  -42.1441 H         1 UNK         0.0600 
    183 H183        5.5347  -17.6697  -43.5101 H         1 UNK         0.0600 
    184 H184        5.2928  -15.4038  -44.6653 H         1 UNK         0.3000 
    185 H185        6.3536  -12.0105  -45.0210 H         1 UNK         0.0600 
    186 H186        7.9203  -13.1172  -46.5904 H         1 UNK         0.0600 
    187 H187        8.4368  -13.3642  -44.9298 H         1 UNK         0.0600 
    188 H188        7.6529  -14.6734  -45.8062 H         1 UNK         0.0600 
    189 H189        5.4303  -14.1944  -46.7483 H         1 UNK         0.3000 
    190 H190       -3.1546  -20.8055  -47.1681 H         1 UNK         0.3000 
    191 H191       -4.8909  -22.0844  -49.0395 H         1 UNK         0.0600 
    192 H192       -5.7514  -20.6206  -47.2619 H         1 UNK         0.0600 
    193 H193       -6.4407  -22.2269  -47.0923 H         1 UNK         0.0600 
    194 H194       -5.1481  -21.7095  -46.0147 H         1 UNK         0.0600 
    195 H195       -3.1593  -23.3416  -46.1323 H         1 UNK         0.3000 
    196 H196       -4.0519  -26.0002  -46.2968 H         1 UNK         0.0600 
    197 H197       -2.1104  -26.4940  -44.8139 H         1 UNK         0.0600 
    198 H198       -2.9489  -25.0401  -44.2949 H         1 UNK         0.0600 
    199 H199       -1.4205  -24.9149  -45.1639 H         1 UNK         0.0600 
    200 H200       -1.2283  -24.4684  -47.8667 H         1 UNK         0.3000 
    201 H201       -0.1255  -26.7579  -49.1013 H         1 UNK         0.0600 
    202 H202        1.0687  -24.6029  -48.9075 H         1 UNK         0.0600 
    203 H203       -0.1009  -23.8179  -49.9648 H         1 UNK         0.0600 
    204 H204        0.9679  -25.0624  -50.6005 H         1 UNK         0.0600 
    205 H205       -3.0185  -24.9839  -49.9194 H         1 UNK         0.3000 
    206 H206       -3.3314  -26.3967  -52.5326 H         1 UNK         0.0600 
    207 H207       -3.4881  -23.9124  -52.6069 H         1 UNK         0.0600 
    208 H208       -5.0434  -24.6423  -52.9672 H         1 UNK         0.0600 
    209 H209       -4.7494  -23.9477  -51.3750 H         1 UNK         0.0600 
    210 H210       -3.7798  -27.2681  -49.5273 H         1 UNK         0.3000 
    211 H211       -5.0938  -28.5592  -48.3287 H         1 UNK         0.0600 
    212 H212       -6.3671  -29.4173  -50.9810 H         1 UNK         0.0600 
    213 H213       -6.3691  -30.3296  -49.4777 H         1 UNK         0.0600 
    214 H214       -4.8588  -30.0558  -50.3279 H         1 UNK         0.0600 
    215 H215       -6.0134  -25.8210  -48.8121 H         1 UNK         0.3000 
    216 H216       -7.5919  -24.3961  -48.3629 H         1 UNK         0.0600 
    217 H217       -7.8880  -25.7140  -46.2536 H         1 UNK         0.0600 
    218 H218       -9.1736  -26.6476  -47.0196 H         1 UNK         0.0600 
    219 H219       -9.3719  -24.9223  -46.7544 H         1 UNK         0.0600 
    220 H220       -7.8727  -26.3146  -50.8425 H         1 UNK         0.3000 
    221 H221      -10.6732  -25.9147  -51.6141 H         1 UNK         0.0600 
    222 H222       -8.2494  -26.8835  -53.2222 H         1 UNK         0.0600 
    223 H223       -9.3762  -27.9230  -52.3510 H         1 UNK         0.0600 
    224 H224       -9.9325  -26.9765  -53.7236 H         1 UNK         0.0600 
    225 H225       -7.7170  -24.1446  -51.7422 H         1 UNK         0.3000 
    226 H226       -8.8662  -21.7802  -52.7903 H         1 UNK         0.0600 
    227 H227       -8.4219  -22.9436  -55.0056 H         1 UNK         0.0600 
    228 H228       -7.4218  -21.5226  -54.8109 H         1 UNK         0.0600 
    229 H229       -6.7295  -23.1258  -54.5596 H         1 UNK         0.0600 
    230 H230       -5.9721  -20.9732  -53.5454 H         1 UNK         0.3000 
    231 H231       -4.4237  -21.5695  -51.1712 H         1 UNK         0.0600 
    232 H232       -3.8255  -19.1351  -50.8199 H         1 UNK         0.0600 
    233 H233       -5.5001  -19.4766  -50.4118 H         1 UNK         0.0600 
    234 H234       -5.1109  -18.6762  -51.9331 H         1 UNK         0.0600 
    235 H235       -2.2583  -21.5304  -51.6099 H         1 UNK         0.3000 
    236 H236       -1.5010  -21.9244  -54.3483 H         1 UNK         0.0600 
    237 H237        0.6557  -22.5966  -53.3110 H         1 UNK         0.0600 
    238 H238        0.1369  -21.9410  -51.7611 H         1 UNK         0.0600 
    239 H239       -0.6978  -23.3257  -52.4632 H         1 UNK         0.0600 
    240 H240       -2.2932  -19.4191  -54.5418 H         1 UNK         0.3000 
    241 H241       -0.2422  -17.4484  -54.0620 H         1 UNK         0.0600 
    242 H242       -0.3270  -19.7374  -56.6208 H         1 UNK         0.3800 
    243 H243        0.6734  -18.8255  -57.7209 H         1 UNK         0.3800 
    244 H244       -1.7561  -15.8391  -55.1007 H         1 UNK         0.0800 
    245 H245       -2.7067  -17.1088  -55.8221 H         1 UNK         0.0800 
    246 H246       -2.7459  -14.5501  -53.2252 H         1 UNK         0.0800 
    247 H247       -3.4464  -15.2338  -51.7798 H         1 UNK         0.0800 
@<TRIPOS>BOND
     1    1    2 1    
     2    1  127 1    
     3    1  128 1    
     4    1  129 1    
     5    2    3 2    
     6    2    4 am   BACKBONE|DICT|INTERRES
     7    4    5 1    
     8    4  130 1    
     9    5    6 1    
    10    5   65 1    
    11    5  131 1    
    12    6    7 1    
    13    6  132 1    
    14    6  133 1    
    15    7    8 1    
    16    8    9 1    
    17    8  134 1    
    18    8  135 1    
    19    9   10 ar   
    20    9   14 ar   
    21   10   11 ar   
    22   10  136 1    
    23   11   12 ar   
    24   11  126 1    
    25   12   13 ar   
    26   12  137 1    
    27   13   14 ar   
    28   13   15 1    
    29   14  138 1    
    30   15   16 1    
    31   15  139 1    
    32   15  140 1    
    33   16   17 1    
    34   17   18 1    
    35   17  141 1    
    36   17  142 1    
    37   18   19 1    
    38   18   67 1    
    39   18  143 1    
    40   19   20 am   BACKBONE|DICT|INTERRES
    41   19  144 1    
    42   20   21 2    
    43   20   22 1    
    44   22   23 1    
    45   22   24 1    
    46   22  145 1    
    47   23  146 1    
    48   23  147 1    
    49   23  148 1    
    50   24   25 am   BACKBONE|DICT|INTERRES
    51   24  149 1    
    52   25   26 2    
    53   25   27 1    
    54   27   28 1    
    55   27   29 1    
    56   27  150 1    
    57   28  151 1    
    58   28  152 1    
    59   28  153 1    
    60   29   30 am   BACKBONE|DICT|INTERRES
    61   29  154 1    
    62   30   31 2    
    63   30   32 1    
    64   32   33 1    
    65   32   34 1    
    66   32  155 1    
    67   33  156 1    
    68   33  157 1    
    69   33  158 1    
    70   34   35 am   BACKBONE|DICT|INTERRES
    71   34  159 1    
    72   35   36 2    
    73   35   37 1    
    74   37   38 1    
    75   37   39 1    
    76   37  160 1    
    77   38  161 1    
    78   38  162 1    
    79   38  163 1    
    80   39   40 am   BACKBONE|DICT|INTERRES
    81   39  164 1    
    82   40   41 2    
    83   40   42 1    
    84   42   43 1    
    85   42   44 1    
    86   42  165 1    
    87   43  166 1    
    88   43  167 1    
    89   43  168 1    
    90   44   45 am   BACKBONE|DICT|INTERRES
    91   44  169 1    
    92   45   46 2    
    93   45   47 1    
    94   47   48 1    
    95   47   49 1    
    96   47  170 1    
    97   48  171 1    
    98   48  172 1    
    99   48  173 1    
   100   49   50 am   BACKBONE|DICT|INTERRES
   101   49  174 1    
   102   50   51 2    
   103   50   52 1    
   104   52   53 1    
   105   52   54 1    
   106   52  175 1    
   107   53  176 1    
   108   53  177 1    
   109   53  178 1    
   110   54   55 am   BACKBONE|DICT|INTERRES
   111   54  179 1    
   112   55   56 2    
   113   55   57 1    
   114   57   58 1    
   115   57   59 1    
   116   57  180 1    
   117   58  181 1    
   118   58  182 1    
   119   58  183 1    
   120   59   60 am   BACKBONE|DICT|INTERRES
   121   59  184 1    
   122   60   61 2    
   123   60   62 1    
   124   62   63 1    
   125   62   64 1    
   126   62  185 1    
   127   63  186 1    
   128   63  187 1    
   129   63  188 1    
   130   64   65 am   BACKBONE|DICT|INTERRES
   131   64  189 1    
   132   65   66 2    
   133   67   68 2    
   134   67   69 am   BACKBONE|DICT|INTERRES
   135   69   70 1    
   136   69  190 1    
   137   70   71 1    
   138   70   72 1    
   139   70  191 1    
   140   71  192 1    
   141   71  193 1    
   142   71  194 1    
   143   72   73 2    
   144   72   74 am   BACKBONE|DICT|INTERRES
   145   74   75 1    
   146   74  195 1    
   147   75   76 1    
   148   75   77 1    
   149   75  196 1    
   150   76  197 1    
   151   76  198 1    
   152   76  199 1    
   153   77   78 2    
   154   77   79 am   BACKBONE|DICT|INTERRES
   155   79   80 1    
   156   79  200 1    
   157   80   81 1    
   158   80   82 1    
   159   80  201 1    
   160   81  202 1    
   161   81  203 1    
   162   81  204 1    
   163   82   83 2    
   164   82   84 am   BACKBONE|DICT|INTERRES
   165   84   85 1    
   166   84  205 1    
   167   85   86 1    
   168   85   87 1    
   169   85  206 1    
   170   86  207 1    
   171   86  208 1    
   172   86  209 1    
   173   87   88 2    
   174   87   89 am   BACKBONE|DICT|INTERRES
   175   89   90 1    
   176   89  210 1    
   177   90   91 1    
   178   90   92 1    
   179   90  211 1    
   180   91  212 1    
   181   91  213 1    
   182   91  214 1    
   183   92   93 2    
   184   92   94 am   BACKBONE|DICT|INTERRES
   185   94   95 1    
   186   94  215 1    
   187   95   96 1    
   188   95   97 1    
   189   95  216 1    
   190   96  217 1    
   191   96  218 1    
   192   96  219 1    
   193   97   98 2    
   194   97   99 am   BACKBONE|DICT|INTERRES
   195   99  100 1    
   196   99  220 1    
   197  100  101 1    
   198  100  102 1    
   199  100  221 1    
   200  101  222 1    
   201  101  223 1    
   202  101  224 1    
   203  102  103 2    
   204  102  104 am   BACKBONE|DICT|INTERRES
   205  104  105 1    
   206  104  225 1    
   207  105  106 1    
   208  105  107 1    
   209  105  226 1    
   210  106  227 1    
   211  106  228 1    
   212  106  229 1    
   213  107  108 2    
   214  107  109 am   BACKBONE|DICT|INTERRES
   215  109  110 1    
   216  109  230 1    
   217  110  111 1    
   218  110  112 1    
   219  110  231 1    
   220  111  232 1    
   221  111  233 1    
   222  111  234 1    
   223  112  113 2    
   224  112  114 am   BACKBONE|DICT|INTERRES
   225  114  115 1    
   226  114  235 1    
   227  115  116 1    
   228  115  117 1    
   229  115  236 1    
   230  116  237 1    
   231  116  238 1    
   232  116  239 1    
   233  117  118 2    
   234  117  119 am   BACKBONE|DICT|INTERRES
   235  119  120 1    
   236  119  240 1    
   237  120  121 1    
   238  120  124 1    
   239  120  241 1    
   240  121  122 am   BACKBONE|DICT|INTERRES
   241  121  123 2    
   242  122  242 1    
   243  122  243 1    
   244  124  125 1    
   245  124  244 1    
   246  124  245 1    
   247  125  126 1    
   248  126  246 1    
   249  126  247 1    
@<TRIPOS>SUBSTRUCTURE
     1 UNK         1 GROUP             0       ****    0 ROOT    
