@<TRIPOS>MOLECULE
3R540
247   249    1
SMALL
USER_CHARGES


@<TRIPOS>ATOM
      1 CA         -2.8006  -13.9244  -44.9122 C.3       0 UNK        -0.1800 
      2 C          -1.8004  -13.9900  -43.7592 C.2       0 UNK         0.5000 
      3 O          -2.1771  -13.7195  -42.6212 O.2       0 UNK        -0.5000 
      4 N          -0.5335  -14.3588  -43.9922 N.am      1 UNK        -0.5000 
      5 CA          0.0903  -14.6038  -45.2950 C.3       1 UNK         0.1400 
      6 C6          1.4043  -15.4006  -45.1245 C.3       23 UNK        -0.0398 
      7 S7          2.1831  -15.9416  -46.6846 S.3       23 UNK        -0.2404 
      8 C8          1.5408  -17.6307  -46.8927 C.3       23 UNK        -0.0205 
      9 C9          0.4076  -17.6798  -47.9043 C.ar      23 UNK        -0.0193 
     10 C10         0.6817  -17.9453  -49.2479 C.ar      23 UNK        -0.1150 
     11 C11        -0.3510  -18.0038  -50.1879 C.ar      23 UNK        -0.0193 
     12 C12        -1.6681  -17.7696  -49.7772 C.ar      23 UNK        -0.1150 
     13 C13        -1.9549  -17.4936  -48.4365 C.ar      23 UNK        -0.0193 
     14 C14        -0.9132  -17.4665  -47.5036 C.ar      23 UNK        -0.1150 
     15 C15        -3.3824  -17.1875  -47.9989 C.3       23 UNK        -0.0205 
     16 S16        -4.3950  -18.6825  -47.7623 S.3       23 UNK        -0.2404 
     17 C17        -3.4719  -19.5627  -46.4568 C.3       23 UNK        -0.0398 
     18 CA         -2.7259  -20.7861  -47.0405 C.3       11 UNK         0.1400 
     19 N          -1.4518  -21.0647  -46.3780 N.am      11 UNK        -0.5000 
     20 C          -0.5451  -21.9262  -46.8663 C.2       10 UNK         0.5000 
     21 O          -0.6835  -22.5076  -47.9424 O.2       10 UNK        -0.5000 
     22 CA          0.6873  -22.2502  -46.0022 C.3       10 UNK         0.1400 
     23 CB          1.9159  -21.4862  -46.5101 C.3       10 UNK        -0.1800 
     24 N           0.4842  -21.9756  -44.5796 N.am      10 UNK        -0.5000 
     25 C          -0.3895  -22.6266  -43.7956 C.2       9 UNK         0.5000 
     26 O          -1.0683  -23.5790  -44.1854 O.2       9 UNK        -0.5000 
     27 CA         -0.5939  -22.0819  -42.3653 C.3       9 UNK         0.1400 
     28 CB          0.3101  -22.8295  -41.3748 C.3       9 UNK        -0.1800 
     29 N          -0.3510  -20.6399  -42.2436 N.am      9 UNK        -0.5000 
     30 C          -0.9989  -19.6876  -42.9302 C.2       8 UNK         0.5000 
     31 O          -1.9483  -19.9228  -43.6770 O.2       8 UNK        -0.5000 
     32 CA         -0.4715  -18.2416  -42.8293 C.3       8 UNK         0.1400 
     33 CB         -1.3251  -17.4300  -41.8449 C.3       8 UNK        -0.1800 
     34 N           0.9413  -18.0912  -42.4592 N.am      8 UNK        -0.5000 
     35 C           2.0062  -18.6775  -43.0271 C.2       7 UNK         0.5000 
     36 O           1.9115  -19.5330  -43.9060 O.2       7 UNK        -0.5000 
     37 CA          3.4122  -18.2291  -42.5658 C.3       7 UNK         0.1400 
     38 CB          4.3342  -17.9929  -43.7749 C.3       7 UNK        -0.1800 
     39 N           3.4260  -17.0199  -41.7354 N.am      7 UNK        -0.5000 
     40 C           3.0478  -16.9339  -40.4538 C.2       6 UNK         0.5000 
     41 O           2.6134  -17.8911  -39.8134 O.2       6 UNK        -0.5000 
     42 CA          3.1508  -15.5531  -39.7730 C.3       6 UNK         0.1400 
     43 CB          4.2717  -15.5583  -38.7216 C.3       6 UNK        -0.1800 
     44 N           3.3707  -14.4211  -40.6823 N.am      6 UNK        -0.5000 
     45 C           2.4782  -13.9335  -41.5554 C.2       5 UNK         0.5000 
     46 O           1.4033  -14.4746  -41.8159 O.2       5 UNK        -0.5000 
     47 CA          2.8847  -12.6522  -42.2952 C.3       5 UNK         0.1400 
     48 CB          3.4335  -11.5656  -41.3477 C.3       5 UNK        -0.1800 
     49 N           3.8616  -12.9943  -43.3241 N.am      5 UNK        -0.5000 
     50 C           4.1239  -12.2627  -44.4131 C.2       4 UNK         0.5000 
     51 O           3.6448  -11.1474  -44.6216 O.2       4 UNK        -0.5000 
     52 CA          5.0583  -12.8783  -45.4672 C.3       4 UNK         0.1400 
     53 CB          5.6517  -14.2521  -45.0820 C.3       4 UNK        -0.1800 
     54 N           4.3066  -12.9974  -46.7110 N.am      4 UNK        -0.5000 
     55 C           4.8253  -12.9804  -47.9434 C.2       3 UNK         0.5000 
     56 O           6.0264  -12.8317  -48.1733 O.2       3 UNK        -0.5000 
     57 CA          3.8519  -13.1788  -49.1232 C.3       3 UNK         0.1400 
     58 CB          4.0992  -14.5366  -49.8015 C.3       3 UNK        -0.1800 
     59 N           2.4430  -13.1093  -48.7272 N.am      3 UNK        -0.5000 
     60 C           1.7193  -11.9835  -48.6592 C.2       2 UNK         0.5000 
     61 O           2.1686  -10.8655  -48.9118 O.2       2 UNK        -0.5000 
     62 CA          0.2432  -12.1324  -48.2414 C.3       2 UNK         0.1400 
     63 CB         -0.6517  -12.2890  -49.4804 C.3       2 UNK        -0.1800 
     64 N           0.0212  -13.2737  -47.3514 N.am      2 UNK        -0.5000 
     65 C           0.3201  -13.2782  -46.0464 C.2       1 UNK         0.5000 
     66 O           0.7761  -12.3071  -45.4436 O.2       1 UNK        -0.5000 
     67 C          -3.6303  -22.0333  -47.0705 C.2       11 UNK         0.5000 
     68 O          -4.2803  -22.2896  -48.0809 O.2       11 UNK        -0.5000 
     69 N          -3.6237  -22.8155  -45.9844 N.am      12 UNK        -0.5000 
     70 CA         -4.3130  -24.0994  -45.9167 C.3       12 UNK         0.1400 
     71 CB         -4.5501  -24.4795  -44.4469 C.3       12 UNK        -0.1800 
     72 C          -3.5235  -25.1942  -46.6534 C.2       12 UNK         0.5000 
     73 O          -4.1027  -25.9167  -47.4646 O.2       12 UNK        -0.5000 
     74 N          -2.2222  -25.2994  -46.3488 N.am      13 UNK        -0.5000 
     75 CA         -1.3683  -26.4014  -46.7920 C.3       13 UNK         0.1400 
     76 CB         -0.0984  -26.4414  -45.9286 C.3       13 UNK        -0.1800 
     77 C          -1.0061  -26.3756  -48.2886 C.2       13 UNK         0.5000 
     78 O          -0.9791  -27.4402  -48.9080 O.2       13 UNK        -0.5000 
     79 N          -0.7115  -25.1891  -48.8369 N.am      14 UNK        -0.5000 
     80 CA         -0.2268  -25.0155  -50.2081 C.3       14 UNK         0.1400 
     81 CB          1.1081  -24.2512  -50.1920 C.3       14 UNK        -0.1800 
     82 C          -1.2512  -24.2894  -51.0901 C.2       14 UNK         0.5000 
     83 O          -1.4650  -24.7105  -52.2275 O.2       14 UNK        -0.5000 
     84 N          -1.8705  -23.2190  -50.5702 N.am      15 UNK        -0.5000 
     85 CA         -2.8152  -22.3953  -51.3336 C.3       15 UNK         0.1400 
     86 CB         -2.8426  -20.9603  -50.7853 C.3       15 UNK        -0.1800 
     87 C          -4.2362  -22.9819  -51.4040 C.2       15 UNK         0.5000 
     88 O          -5.0511  -22.4482  -52.1584 O.2       15 UNK        -0.5000 
     89 N          -4.5123  -24.0423  -50.6306 N.am      16 UNK        -0.5000 
     90 CA         -5.7780  -24.7798  -50.5505 C.3       16 UNK         0.1400 
     91 CB         -6.0468  -25.5267  -51.8744 C.3       16 UNK        -0.1800 
     92 C          -6.9594  -23.8890  -50.1125 C.2       16 UNK         0.5000 
     93 O          -8.0145  -23.9026  -50.7455 O.2       16 UNK        -0.5000 
     94 N          -6.7352  -23.0869  -49.0624 N.am      17 UNK        -0.5000 
     95 CA         -7.6216  -22.0406  -48.5371 C.3       17 UNK         0.1400 
     96 CB         -8.9360  -22.6354  -47.9904 C.3       17 UNK        -0.1800 
     97 C          -7.8354  -20.9056  -49.5606 C.2       17 UNK         0.5000 
     98 O          -8.9387  -20.3725  -49.6857 O.2       17 UNK        -0.5000 
     99 N          -6.7555  -20.5896  -50.2896 N.am      18 UNK        -0.5000 
    100 CA        -6.6449  -19.6250  -51.3871 C.3       18 UNK         0.1400 
    101 CB        -6.9708  -18.1939  -50.9130 C.3       18 UNK        -0.1800 
    102 C         -7.4157  -20.0196  -52.6670 C.2       18 UNK         0.5000 
    103 O         -7.5605  -19.1819  -53.5580 O.2       18 UNK        -0.5000 
    104 N         -7.8632  -21.2804  -52.7729 N.am      19 UNK        -0.5000 
    105 CA        -8.5104  -21.8224  -53.9701 C.3       19 UNK         0.1400 
    106 CB        -9.2894  -23.0960  -53.6120 C.3       19 UNK        -0.1800 
    107 C         -7.5007  -22.1075  -55.0966 C.2       19 UNK         0.5000 
    108 O         -7.8127  -21.8671  -56.2635 O.2       19 UNK        -0.5000 
    109 N         -6.3075  -22.5946  -54.7280 N.am      20 UNK        -0.5000 
    110 CA        -5.1773  -22.7911  -55.6383 C.3       20 UNK         0.1400 
    111 CB        -4.3600  -24.0106  -55.1830 C.3       20 UNK        -0.1800 
    112 C         -4.2866  -21.5375  -55.7042 C.2       20 UNK         0.5000 
    113 O         -3.5751  -21.3530  -56.6926 O.2       20 UNK        -0.5000 
    114 N         -4.3319  -20.7080  -54.6479 N.am      21 UNK        -0.5000 
    115 CA        -3.6768  -19.3986  -54.5098 C.3       21 UNK         0.1400 
    116 CB        -4.3330  -18.3761  -55.4593 C.3       21 UNK        -0.1800 
    117 C         -2.1395  -19.4453  -54.6596 C.2       21 UNK         0.5000 
    118 O         -1.5305  -18.4604  -55.0791 O.2       21 UNK        -0.5000 
    119 N         -1.5509  -20.5995  -54.3194 N.am      22 UNK        -0.5000 
    120 CA        -0.1299  -20.9494  -54.4890 C.3       22 UNK         0.1400 
    121 C          0.3104  -21.1267  -55.9765 C.2       22 UNK         0.5000 
    122 N         -0.6016  -21.2553  -56.9346 N.am      22 UNK        -0.7600 
    123 O          1.5013  -21.1836  -56.2711 O.2       22 UNK        -0.5000 
    124 C124        0.8416  -20.0399  -53.6818 C.3       23 UNK        -0.0398 
    125 S125        0.4882  -20.0248  -51.8905 S.3       23 UNK        -0.2404 
    126 C126       -0.0309  -18.2959  -51.6467 C.3       23 UNK        -0.0205 
    127 H127       -2.5542  -13.1150  -45.5988 H         1 UNK         0.0600 
    128 H128       -3.8059  -13.7406  -44.5325 H         1 UNK         0.0600 
    129 H129       -2.8274  -14.8632  -45.4637 H         1 UNK         0.0600 
    130 H130        0.1037  -14.3801  -43.2003 H         1 UNK         0.3000 
    131 H131       -0.5937  -15.2126  -45.8819 H         1 UNK         0.0600 
    132 H132        2.1365  -14.8058  -44.5794 H         1 UNK         0.0800 
    133 H133        1.2252  -16.2732  -44.5014 H         1 UNK         0.0800 
    134 H134        1.2080  -18.0433  -45.9414 H         1 UNK         0.0800 
    135 H135        2.3620  -18.2661  -47.2269 H         1 UNK         0.0800 
    136 H136        1.7012  -18.1147  -49.5650 H         1 UNK         0.1150 
    137 H137       -2.4718  -17.7976  -50.4993 H         1 UNK         0.1150 
    138 H138       -1.1297  -17.2751  -46.4637 H         1 UNK         0.1150 
    139 H139       -3.3832  -16.6085  -47.0749 H         1 UNK         0.0800 
    140 H140       -3.8622  -16.5570  -48.7488 H         1 UNK         0.0800 
    141 H141       -4.1587  -19.8456  -45.6567 H         1 UNK         0.0800 
    142 H142       -2.7729  -18.8686  -45.9937 H         1 UNK         0.0800 
    143 H143       -2.4574  -20.5518  -48.0699 H         1 UNK         0.0600 
    144 H144       -1.3175  -20.6555  -45.4607 H         1 UNK         0.3000 
    145 H145        0.8909  -23.3152  -46.1113 H         1 UNK         0.0600 
    146 H146        2.8069  -21.7410  -45.9362 H         1 UNK         0.0600 
    147 H147        2.1199  -21.7223  -47.5555 H         1 UNK         0.0600 
    148 H148        1.7687  -20.4106  -46.4403 H         1 UNK         0.0600 
    149 H149        0.9892  -21.1769  -44.2028 H         1 UNK         0.3000 
    150 H150       -1.6342  -22.2678  -42.0911 H         1 UNK         0.0600 
    151 H151        0.1378  -23.9056  -41.4243 H         1 UNK         0.0600 
    152 H152        0.1148  -22.5173  -40.3487 H         1 UNK         0.0600 
    153 H153        1.3663  -22.6555  -41.5847 H         1 UNK         0.0600 
    154 H154        0.4268  -20.3585  -41.6651 H         1 UNK         0.3000 
    155 H155       -0.5875  -17.7984  -43.8198 H         1 UNK         0.0600 
    156 H156       -1.2418  -17.8177  -40.8289 H         1 UNK         0.0600 
    157 H157       -2.3795  -17.4575  -42.1236 H         1 UNK         0.0600 
    158 H158       -1.0228  -16.3827  -41.8281 H         1 UNK         0.0600 
    159 H159        1.1302  -17.4212  -41.7278 H         1 UNK         0.3000 
    160 H160        3.8280  -19.0502  -41.9787 H         1 UNK         0.0600 
    161 H161        3.9430  -17.2156  -44.4313 H         1 UNK         0.0600 
    162 H162        4.4423  -18.8990  -44.3726 H         1 UNK         0.0600 
    163 H163        5.3349  -17.6965  -43.4600 H         1 UNK         0.0600 
    164 H164        3.7616  -16.1791  -42.1764 H         1 UNK         0.3000 
    165 H165        2.2032  -15.3845  -39.2571 H         1 UNK         0.0600 
    166 H166        4.2950  -14.6216  -38.1643 H         1 UNK         0.0600 
    167 H167        4.1274  -16.3603  -37.9962 H         1 UNK         0.0600 
    168 H168        5.2512  -15.7025  -39.1794 H         1 UNK         0.0600 
    169 H169        4.2359  -13.9165  -40.5526 H         1 UNK         0.3000 
    170 H170        1.9846  -12.2647  -42.7785 H         1 UNK         0.0600 
    171 H171        2.7532  -11.3938  -40.5125 H         1 UNK         0.0600 
    172 H172        4.4064  -11.8334  -40.9348 H         1 UNK         0.0600 
    173 H173        3.5485  -10.6145  -41.8675 H         1 UNK         0.0600 
    174 H174        4.3087  -13.8944  -43.2316 H         1 UNK         0.3000 
    175 H175        5.8785  -12.1709  -45.6061 H         1 UNK         0.0600 
    176 H176        4.8784  -15.0132  -44.9754 H         1 UNK         0.0600 
    177 H177        6.3476  -14.6024  -45.8444 H         1 UNK         0.0600 
    178 H178        6.2108  -14.1978  -44.1471 H         1 UNK         0.0600 
    179 H179        3.3026  -13.0502  -46.6141 H         1 UNK         0.3000 
    180 H180        4.0606  -12.3944  -49.8538 H         1 UNK         0.0600 
    181 H181        3.9340  -15.3678  -49.1153 H         1 UNK         0.0600 
    182 H182        5.1249  -14.6118  -50.1646 H         1 UNK         0.0600 
    183 H183        3.4416  -14.6748  -50.6599 H         1 UNK         0.0600 
    184 H184        2.0014  -13.9866  -48.4914 H         1 UNK         0.3000 
    185 H185       -0.0510  -11.2170  -47.7229 H         1 UNK         0.0600 
    186 H186       -0.5300  -11.4437  -50.1591 H         1 UNK         0.0600 
    187 H187       -0.4136  -13.1953  -50.0389 H         1 UNK         0.0600 
    188 H188       -1.7051  -12.3324  -49.2030 H         1 UNK         0.0600 
    189 H189       -0.3482  -14.1100  -47.7812 H         1 UNK         0.3000 
    190 H190       -3.0262  -22.5740  -45.2061 H         1 UNK         0.3000 
    191 H191       -5.2900  -24.0061  -46.3966 H         1 UNK         0.0600 
    192 H192       -3.6154  -24.5747  -43.8934 H         1 UNK         0.0600 
    193 H193       -5.0743  -25.4330  -44.3714 H         1 UNK         0.0600 
    194 H194       -5.1621  -23.7319  -43.9421 H         1 UNK         0.0600 
    195 H195       -1.8295  -24.6693  -45.6557 H         1 UNK         0.3000 
    196 H196       -1.9138  -27.3300  -46.6095 H         1 UNK         0.0600 
    197 H197        0.5185  -27.3040  -46.1833 H         1 UNK         0.0600 
    198 H198       -0.3425  -26.5179  -44.8688 H         1 UNK         0.0600 
    199 H199        0.5134  -25.5516  -46.0677 H         1 UNK         0.0600 
    200 H200       -0.7789  -24.3426  -48.2795 H         1 UNK         0.3000 
    201 H201       -0.0357  -25.9854  -50.6717 H         1 UNK         0.0600 
    202 H202        1.8511  -24.7699  -49.5862 H         1 UNK         0.0600 
    203 H203        1.0000  -23.2413  -49.7961 H         1 UNK         0.0600 
    204 H204        1.5153  -24.1611  -51.1997 H         1 UNK         0.0600 
    205 H205       -1.6175  -22.9029  -49.6389 H         1 UNK         0.3000 
    206 H206       -2.4478  -22.3382  -52.3586 H         1 UNK         0.0600 
    207 H207       -1.8866  -20.6757  -50.3483 H         1 UNK         0.0600 
    208 H208       -3.0546  -20.2499  -51.5824 H         1 UNK         0.0600 
    209 H209       -3.6124  -20.8164  -50.0300 H         1 UNK         0.0600 
    210 H210       -3.7796  -24.3639  -50.0143 H         1 UNK         0.3000 
    211 H211       -5.6523  -25.5289  -49.7677 H         1 UNK         0.0600 
    212 H212       -6.2313  -24.8396  -52.7001 H         1 UNK         0.0600 
    213 H213       -6.9206  -26.1732  -51.7873 H         1 UNK         0.0600 
    214 H214       -5.2018  -26.1582  -52.1485 H         1 UNK         0.0600 
    215 H215       -5.7941  -23.0724  -48.6720 H         1 UNK         0.3000 
    216 H216       -7.0920  -21.5909  -47.6958 H         1 UNK         0.0600 
    217 H217       -9.5190  -21.8751  -47.4695 H         1 UNK         0.0600 
    218 H218       -8.7393  -23.4372  -47.2788 H         1 UNK         0.0600 
    219 H219       -9.5644  -23.0376  -48.7853 H         1 UNK         0.0600 
    220 H220       -5.9190  -21.1269  -50.1102 H         1 UNK         0.3000 
    221 H221       -5.5921  -19.6335  -51.6701 H         1 UNK         0.0600 
    222 H222       -8.0297  -18.0728  -50.6846 H         1 UNK         0.0600 
    223 H223       -6.4021  -17.9345  -50.0203 H         1 UNK         0.0600 
    224 H224       -6.7180  -17.4605  -51.6794 H         1 UNK         0.0600 
    225 H225       -7.7031  -21.9240  -52.0086 H         1 UNK         0.3000 
    226 H226       -9.2270  -21.0847  -54.3377 H         1 UNK         0.0600 
    227 H227       -9.9870  -22.9178  -52.7934 H         1 UNK         0.0600 
    228 H228       -9.8700  -23.4480  -54.4655 H         1 UNK         0.0600 
    229 H229       -8.6234  -23.9070  -53.3161 H         1 UNK         0.0600 
    230 H230       -6.1149  -22.7258  -53.7392 H         1 UNK         0.3000 
    231 H231       -5.5454  -22.9915  -56.6466 H         1 UNK         0.0600 
    232 H232       -4.9813  -24.9050  -55.1341 H         1 UNK         0.0600 
    233 H233       -3.9113  -23.8618  -54.2015 H         1 UNK         0.0600 
    234 H234       -3.5489  -24.2169  -55.8824 H         1 UNK         0.0600 
    235 H235       -4.9089  -20.9975  -53.8696 H         1 UNK         0.3000 
    236 H236       -3.8697  -19.0633  -53.4905 H         1 UNK         0.0600 
    237 H237       -4.1334  -18.6111  -56.5053 H         1 UNK         0.0600 
    238 H238       -5.4142  -18.3497  -55.3222 H         1 UNK         0.0600 
    239 H239       -3.9600  -17.3686  -55.2722 H         1 UNK         0.0600 
    240 H240       -2.1481  -21.3544  -54.0228 H         1 UNK         0.3000 
    241 H241       -0.0388  -21.9514  -54.0679 H         1 UNK         0.0600 
    242 H242       -0.2972  -21.3802  -57.8869 H         1 UNK         0.3800 
    243 H243       -1.5956  -21.2229  -56.7317 H         1 UNK         0.3800 
    244 H244        0.8367  -19.0229  -54.0752 H         1 UNK         0.0800 
    245 H245        1.8678  -20.3934  -53.7928 H         1 UNK         0.0800 
    246 H246       -0.8957  -18.0864  -52.2769 H         1 UNK         0.0800 
    247 H247        0.7650  -17.6279  -51.9789 H         1 UNK         0.0800 
@<TRIPOS>BOND
     1    1    2 1    
     2    1  127 1    
     3    1  128 1    
     4    1  129 1    
     5    2    3 2    
     6    2    4 am   BACKBONE|DICT|INTERRES
     7    4    5 1    
     8    4  130 1    
     9    5    6 1    
    10    5   65 1    
    11    5  131 1    
    12    6    7 1    
    13    6  132 1    
    14    6  133 1    
    15    7    8 1    
    16    8    9 1    
    17    8  134 1    
    18    8  135 1    
    19    9   10 ar   
    20    9   14 ar   
    21   10   11 ar   
    22   10  136 1    
    23   11   12 ar   
    24   11  126 1    
    25   12   13 ar   
    26   12  137 1    
    27   13   14 ar   
    28   13   15 1    
    29   14  138 1    
    30   15   16 1    
    31   15  139 1    
    32   15  140 1    
    33   16   17 1    
    34   17   18 1    
    35   17  141 1    
    36   17  142 1    
    37   18   19 1    
    38   18   67 1    
    39   18  143 1    
    40   19   20 am   BACKBONE|DICT|INTERRES
    41   19  144 1    
    42   20   21 2    
    43   20   22 1    
    44   22   23 1    
    45   22   24 1    
    46   22  145 1    
    47   23  146 1    
    48   23  147 1    
    49   23  148 1    
    50   24   25 am   BACKBONE|DICT|INTERRES
    51   24  149 1    
    52   25   26 2    
    53   25   27 1    
    54   27   28 1    
    55   27   29 1    
    56   27  150 1    
    57   28  151 1    
    58   28  152 1    
    59   28  153 1    
    60   29   30 am   BACKBONE|DICT|INTERRES
    61   29  154 1    
    62   30   31 2    
    63   30   32 1    
    64   32   33 1    
    65   32   34 1    
    66   32  155 1    
    67   33  156 1    
    68   33  157 1    
    69   33  158 1    
    70   34   35 am   BACKBONE|DICT|INTERRES
    71   34  159 1    
    72   35   36 2    
    73   35   37 1    
    74   37   38 1    
    75   37   39 1    
    76   37  160 1    
    77   38  161 1    
    78   38  162 1    
    79   38  163 1    
    80   39   40 am   BACKBONE|DICT|INTERRES
    81   39  164 1    
    82   40   41 2    
    83   40   42 1    
    84   42   43 1    
    85   42   44 1    
    86   42  165 1    
    87   43  166 1    
    88   43  167 1    
    89   43  168 1    
    90   44   45 am   BACKBONE|DICT|INTERRES
    91   44  169 1    
    92   45   46 2    
    93   45   47 1    
    94   47   48 1    
    95   47   49 1    
    96   47  170 1    
    97   48  171 1    
    98   48  172 1    
    99   48  173 1    
   100   49   50 am   BACKBONE|DICT|INTERRES
   101   49  174 1    
   102   50   51 2    
   103   50   52 1    
   104   52   53 1    
   105   52   54 1    
   106   52  175 1    
   107   53  176 1    
   108   53  177 1    
   109   53  178 1    
   110   54   55 am   BACKBONE|DICT|INTERRES
   111   54  179 1    
   112   55   56 2    
   113   55   57 1    
   114   57   58 1    
   115   57   59 1    
   116   57  180 1    
   117   58  181 1    
   118   58  182 1    
   119   58  183 1    
   120   59   60 am   BACKBONE|DICT|INTERRES
   121   59  184 1    
   122   60   61 2    
   123   60   62 1    
   124   62   63 1    
   125   62   64 1    
   126   62  185 1    
   127   63  186 1    
   128   63  187 1    
   129   63  188 1    
   130   64   65 am   BACKBONE|DICT|INTERRES
   131   64  189 1    
   132   65   66 2    
   133   67   68 2    
   134   67   69 am   BACKBONE|DICT|INTERRES
   135   69   70 1    
   136   69  190 1    
   137   70   71 1    
   138   70   72 1    
   139   70  191 1    
   140   71  192 1    
   141   71  193 1    
   142   71  194 1    
   143   72   73 2    
   144   72   74 am   BACKBONE|DICT|INTERRES
   145   74   75 1    
   146   74  195 1    
   147   75   76 1    
   148   75   77 1    
   149   75  196 1    
   150   76  197 1    
   151   76  198 1    
   152   76  199 1    
   153   77   78 2    
   154   77   79 am   BACKBONE|DICT|INTERRES
   155   79   80 1    
   156   79  200 1    
   157   80   81 1    
   158   80   82 1    
   159   80  201 1    
   160   81  202 1    
   161   81  203 1    
   162   81  204 1    
   163   82   83 2    
   164   82   84 am   BACKBONE|DICT|INTERRES
   165   84   85 1    
   166   84  205 1    
   167   85   86 1    
   168   85   87 1    
   169   85  206 1    
   170   86  207 1    
   171   86  208 1    
   172   86  209 1    
   173   87   88 2    
   174   87   89 am   BACKBONE|DICT|INTERRES
   175   89   90 1    
   176   89  210 1    
   177   90   91 1    
   178   90   92 1    
   179   90  211 1    
   180   91  212 1    
   181   91  213 1    
   182   91  214 1    
   183   92   93 2    
   184   92   94 am   BACKBONE|DICT|INTERRES
   185   94   95 1    
   186   94  215 1    
   187   95   96 1    
   188   95   97 1    
   189   95  216 1    
   190   96  217 1    
   191   96  218 1    
   192   96  219 1    
   193   97   98 2    
   194   97   99 am   BACKBONE|DICT|INTERRES
   195   99  100 1    
   196   99  220 1    
   197  100  101 1    
   198  100  102 1    
   199  100  221 1    
   200  101  222 1    
   201  101  223 1    
   202  101  224 1    
   203  102  103 2    
   204  102  104 am   BACKBONE|DICT|INTERRES
   205  104  105 1    
   206  104  225 1    
   207  105  106 1    
   208  105  107 1    
   209  105  226 1    
   210  106  227 1    
   211  106  228 1    
   212  106  229 1    
   213  107  108 2    
   214  107  109 am   BACKBONE|DICT|INTERRES
   215  109  110 1    
   216  109  230 1    
   217  110  111 1    
   218  110  112 1    
   219  110  231 1    
   220  111  232 1    
   221  111  233 1    
   222  111  234 1    
   223  112  113 2    
   224  112  114 am   BACKBONE|DICT|INTERRES
   225  114  115 1    
   226  114  235 1    
   227  115  116 1    
   228  115  117 1    
   229  115  236 1    
   230  116  237 1    
   231  116  238 1    
   232  116  239 1    
   233  117  118 2    
   234  117  119 am   BACKBONE|DICT|INTERRES
   235  119  120 1    
   236  119  240 1    
   237  120  121 1    
   238  120  124 1    
   239  120  241 1    
   240  121  122 am   BACKBONE|DICT|INTERRES
   241  121  123 2    
   242  122  242 1    
   243  122  243 1    
   244  124  125 1    
   245  124  244 1    
   246  124  245 1    
   247  125  126 1    
   248  126  246 1    
   249  126  247 1    
@<TRIPOS>SUBSTRUCTURE
     1 UNK         1 GROUP             0       ****    0 ROOT    
