@<TRIPOS>MOLECULE
3R540
247   249    1
SMALL
USER_CHARGES


@<TRIPOS>ATOM
      1 CA          4.6889  -19.6201  -49.0234 C.3       0 UNK        -0.1800 
      2 C           4.0783  -18.6395  -48.0335 C.2       0 UNK         0.5000 
      3 O           4.3920  -18.6957  -46.8449 O.2       0 UNK        -0.5000 
      4 N           3.2145  -17.7361  -48.5184 N.am      1 UNK        -0.5000 
      5 CA          2.4401  -16.7879  -47.7064 C.3       1 UNK         0.1400 
      6 C6          1.4088  -15.9934  -48.5499 C.3       23 UNK        -0.0398 
      7 S7          0.1395  -17.0626  -49.3107 S.3       23 UNK        -0.2404 
      8 C8         -1.3922  -16.1503  -48.9412 C.3       23 UNK        -0.0205 
      9 C9         -2.6135  -16.8366  -49.5378 C.ar      23 UNK        -0.0193 
     10 C10        -2.8190  -16.8199  -50.9213 C.ar      23 UNK        -0.1150 
     11 C11        -3.9466  -17.4281  -51.4795 C.ar      23 UNK        -0.0193 
     12 C12        -4.8671  -18.0665  -50.6444 C.ar      23 UNK        -0.1150 
     13 C13        -4.6841  -18.0783  -49.2592 C.ar      23 UNK        -0.0193 
     14 C14        -3.5551  -17.4596  -48.7109 C.ar      23 UNK        -0.1150 
     15 C15        -5.7350  -18.7223  -48.3649 C.3       23 UNK        -0.0205 
     16 S16        -5.2842  -20.4167  -47.8711 S.3       23 UNK        -0.2404 
     17 C17        -4.2291  -20.1072  -46.4170 C.3       23 UNK        -0.0398 
     18 CA         -2.7206  -20.2566  -46.7274 C.3       11 UNK         0.1400 
     19 N          -1.9081  -19.4012  -45.8643 N.am      11 UNK        -0.5000 
     20 C          -0.5856  -19.2250  -45.9825 C.2       10 UNK         0.5000 
     21 O           0.1101  -19.7470  -46.8536 O.2       10 UNK        -0.5000 
     22 CA          0.0737  -18.3682  -44.8926 C.3       10 UNK         0.1400 
     23 CB         -0.2486  -16.8780  -45.0966 C.3       10 UNK        -0.1800 
     24 N          -0.3396  -18.7719  -43.5483 N.am      10 UNK        -0.5000 
     25 C          -0.1494  -19.9835  -43.0072 C.2       9 UNK         0.5000 
     26 O           0.4519  -20.8970  -43.5669 O.2       9 UNK        -0.5000 
     27 CA         -0.7837  -20.2376  -41.6293 C.3       9 UNK         0.1400 
     28 CB          0.1156  -19.7280  -40.4931 C.3       9 UNK        -0.1800 
     29 N          -2.1093  -19.6340  -41.5136 N.am      9 UNK        -0.5000 
     30 C          -3.1851  -20.0196  -42.2139 C.2       8 UNK         0.5000 
     31 O          -3.1884  -20.9554  -43.0151 O.2       8 UNK        -0.5000 
     32 CA         -4.4540  -19.1715  -42.0189 C.3       8 UNK         0.1400 
     33 CB         -5.1773  -19.5585  -40.7203 C.3       8 UNK        -0.1800 
     34 N          -4.1566  -17.7372  -42.0062 N.am      8 UNK        -0.5000 
     35 C          -3.7208  -17.0566  -43.0752 C.2       7 UNK         0.5000 
     36 O          -3.5594  -17.5646  -44.1849 O.2       7 UNK        -0.5000 
     37 CA         -3.3764  -15.5709  -42.8630 C.3       7 UNK         0.1400 
     38 CB         -4.6355  -14.7029  -43.0042 C.3       7 UNK        -0.1800 
     39 N          -2.7294  -15.2852  -41.5780 N.am      7 UNK        -0.5000 
     40 C          -1.5346  -15.7585  -41.2000 C.2       6 UNK         0.5000 
     41 O          -0.8769  -16.5690  -41.8553 O.2       6 UNK        -0.5000 
     42 CA         -0.9935  -15.2680  -39.8524 C.3       6 UNK         0.1400 
     43 CB         -1.5166  -16.1465  -38.7033 C.3       6 UNK        -0.1800 
     44 N           0.4671  -15.3143  -39.8795 N.am      6 UNK        -0.5000 
     45 C           1.2798  -14.4741  -39.2257 C.2       5 UNK         0.5000 
     46 O           0.8658  -13.5566  -38.5149 O.2       5 UNK        -0.5000 
     47 CA          2.8036  -14.6815  -39.3643 C.3       5 UNK         0.1400 
     48 CB          3.4512  -14.8818  -37.9828 C.3       5 UNK        -0.1800 
     49 N           3.1488  -15.8329  -40.2033 N.am      5 UNK        -0.5000 
     50 C           3.6936  -15.7660  -41.4243 C.2       4 UNK         0.5000 
     51 O           3.9589  -14.7119  -42.0071 O.2       4 UNK        -0.5000 
     52 CA          3.9464  -17.1204  -42.1079 C.3       4 UNK         0.1400 
     53 CB          2.6314  -17.6924  -42.6405 C.3       4 UNK        -0.1800 
     54 N           4.8694  -17.0076  -43.2332 N.am      4 UNK        -0.5000 
     55 C           6.1913  -17.1991  -43.1629 C.2       3 UNK         0.5000 
     56 O           6.7881  -17.4578  -42.1165 O.2       3 UNK        -0.5000 
     57 CA          6.9846  -17.1197  -44.4819 C.3       3 UNK         0.1400 
     58 CB          7.3467  -18.5303  -44.9737 C.3       3 UNK        -0.1800 
     59 N           6.2630  -16.4194  -45.5469 N.am      3 UNK        -0.5000 
     60 C           6.2184  -15.0851  -45.6702 C.2       2 UNK         0.5000 
     61 O           6.7848  -14.3140  -44.8946 O.2       2 UNK        -0.5000 
     62 CA          5.4328  -14.5013  -46.8621 C.3       2 UNK         0.1400 
     63 CB          6.3993  -14.0219  -47.9565 C.3       2 UNK        -0.1800 
     64 N           4.4732  -15.4304  -47.4613 N.am      2 UNK        -0.5000 
     65 C           3.3229  -15.8171  -46.8935 C.2       1 UNK         0.5000 
     66 O           2.9588  -15.4569  -45.7745 O.2       1 UNK        -0.5000 
     67 C          -2.2673  -21.7287  -46.6742 C.2       11 UNK         0.5000 
     68 O          -2.1199  -22.3512  -47.7255 O.2       11 UNK        -0.5000 
     69 N          -2.0105  -22.2430  -45.4627 N.am      12 UNK        -0.5000 
     70 CA         -1.5039  -23.5958  -45.2326 C.3       12 UNK         0.1400 
     71 CB         -1.5429  -23.9127  -43.7300 C.3       12 UNK        -0.1800 
     72 C          -0.0914  -23.8154  -45.8071 C.2       12 UNK         0.5000 
     73 O           0.1397  -24.8309  -46.4637 O.2       12 UNK        -0.5000 
     74 N           0.8151  -22.8553  -45.5746 N.am      13 UNK        -0.5000 
     75 CA          2.2016  -22.8736  -46.0460 C.3       13 UNK         0.1400 
     76 CB          2.9770  -21.7050  -45.4158 C.3       13 UNK        -0.1800 
     77 C           2.3192  -22.8290  -47.5786 C.2       13 UNK         0.5000 
     78 O           3.1295  -23.5608  -48.1483 O.2       13 UNK        -0.5000 
     79 N           1.5027  -21.9822  -48.2169 N.am      14 UNK        -0.5000 
     80 CA          1.4691  -21.8148  -49.6689 C.3       14 UNK         0.1400 
     81 CB          0.9178  -20.4181  -49.9793 C.3       14 UNK        -0.1800 
     82 C           0.6279  -22.8794  -50.3956 C.2       14 UNK         0.5000 
     83 O           0.6922  -22.9421  -51.6231 O.2       14 UNK        -0.5000 
     84 N          -0.1877  -23.6414  -49.6501 N.am      15 UNK        -0.5000 
     85 CA         -1.2359  -24.5511  -50.1322 C.3       15 UNK         0.1400 
     86 CB         -0.6243  -25.7652  -50.8612 C.3       15 UNK        -0.1800 
     87 C          -2.2819  -23.7943  -50.9790 C.2       15 UNK         0.5000 
     88 O          -2.5890  -24.1915  -52.1048 O.2       15 UNK        -0.5000 
     89 N          -2.7400  -22.6556  -50.4365 N.am      16 UNK        -0.5000 
     90 CA         -3.6017  -21.6437  -51.0595 C.3       16 UNK         0.1400 
     91 CB         -5.0411  -22.1742  -51.1993 C.3       16 UNK        -0.1800 
     92 C          -3.0285  -21.1090  -52.3895 C.2       16 UNK         0.5000 
     93 O          -3.7752  -20.8933  -53.3460 O.2       16 UNK        -0.5000 
     94 N          -1.6930  -20.9821  -52.4372 N.am      17 UNK        -0.5000 
     95 CA         -0.8530  -20.6197  -53.5865 C.3       17 UNK         0.1400 
     96 CB         -1.1068  -19.1546  -53.9902 C.3       17 UNK        -0.1800 
     97 C          -0.9801  -21.5833  -54.7880 C.2       17 UNK         0.5000 
     98 O          -0.6452  -21.1987  -55.9093 O.2       17 UNK        -0.5000 
     99 N          -1.4996  -22.7979  -54.5435 N.am      18 UNK        -0.5000 
    100 CA        -1.9339  -23.8009  -55.5223 C.3       18 UNK         0.1400 
    101 CB        -0.7379  -24.3421  -56.3322 C.3       18 UNK        -0.1800 
    102 C         -3.0985  -23.3225  -56.4223 C.2       18 UNK         0.5000 
    103 O         -3.3600  -23.9382  -57.4569 O.2       18 UNK        -0.5000 
    104 N         -3.7891  -22.2469  -56.0151 N.am      19 UNK        -0.5000 
    105 CA        -4.8957  -21.6302  -56.7465 C.3       19 UNK         0.1400 
    106 CB        -4.8705  -20.1152  -56.4824 C.3       19 UNK        -0.1800 
    107 C         -6.2633  -22.2139  -56.3492 C.2       19 UNK         0.5000 
    108 O         -7.2514  -21.9214  -57.0229 O.2       19 UNK        -0.5000 
    109 N         -6.2987  -23.0008  -55.2603 N.am      20 UNK        -0.5000 
    110 CA        -7.4898  -23.5612  -54.6100 C.3       20 UNK         0.1400 
    111 CB        -8.1874  -24.5938  -55.5208 C.3       20 UNK        -0.1800 
    112 C         -8.4309  -22.4474  -54.1036 C.2       20 UNK         0.5000 
    113 O         -9.6312  -22.4724  -54.3801 O.2       20 UNK        -0.5000 
    114 N         -7.8256  -21.4918  -53.3816 N.am      21 UNK        -0.5000 
    115 CA        -8.3643  -20.2187  -52.8973 C.3       21 UNK         0.1400 
    116 CB        -9.6879  -20.3771  -52.1219 C.3       21 UNK        -0.1800 
    117 C         -8.4594  -19.2005  -54.0474 C.2       21 UNK         0.5000 
    118 O         -9.3663  -19.2727  -54.8778 O.2       21 UNK        -0.5000 
    119 N         -7.4944  -18.2751  -54.0723 N.am      22 UNK        -0.5000 
    120 CA        -7.3614  -17.1908  -55.0598 C.3       22 UNK         0.1400 
    121 C         -8.4328  -16.0613  -54.9683 C.2       22 UNK         0.5000 
    122 N         -9.2446  -15.9899  -53.9202 N.am      22 UNK        -0.7600 
    123 O         -8.5364  -15.2399  -55.8753 O.2       22 UNK        -0.5000 
    124 C124       -5.9185  -16.6141  -55.0685 C.3       23 UNK        -0.0398 
    125 S125       -5.3465  -16.0570  -53.4218 S.3       23 UNK        -0.2404 
    126 C126       -4.1862  -17.3869  -52.9797 C.3       23 UNK        -0.0205 
    127 H127        4.2871  -19.4859  -50.0280 H         1 UNK         0.0600 
    128 H128        4.4822  -20.6432  -48.7092 H         1 UNK         0.0600 
    129 H129        5.7698  -19.4867  -49.0654 H         1 UNK         0.0600 
    130 H130        2.9963  -17.7388  -49.5044 H         1 UNK         0.3000 
    131 H131        1.8990  -17.3953  -46.9822 H         1 UNK         0.0600 
    132 H132        1.9104  -15.4392  -49.3450 H         1 UNK         0.0800 
    133 H133        0.9081  -15.2442  -47.9336 H         1 UNK         0.0800 
    134 H134       -1.3168  -15.1391  -49.3436 H         1 UNK         0.0800 
    135 H135       -1.5032  -16.0482  -47.8611 H         1 UNK         0.0800 
    136 H136       -2.1017  -16.3258  -51.5615 H         1 UNK         0.1150 
    137 H137       -5.7414  -18.5345  -51.0725 H         1 UNK         0.1150 
    138 H138       -3.4135  -17.4561  -47.6393 H         1 UNK         0.1150 
    139 H139       -5.9148  -18.1005  -47.4868 H         1 UNK         0.0800 
    140 H140       -6.6895  -18.7662  -48.8916 H         1 UNK         0.0800 
    141 H141       -4.5387  -20.7673  -45.6044 H         1 UNK         0.0800 
    142 H142       -4.4425  -19.1016  -46.0575 H         1 UNK         0.0800 
    143 H143       -2.5388  -19.9082  -47.7463 H         1 UNK         0.0600 
    144 H144       -2.3968  -18.9110  -45.1216 H         1 UNK         0.3000 
    145 H145        1.1524  -18.5100  -44.9730 H         1 UNK         0.0600 
    146 H146        0.2707  -16.2499  -44.3738 H         1 UNK         0.0600 
    147 H147        0.0425  -16.5380  -46.0862 H         1 UNK         0.0600 
    148 H148       -1.3127  -16.6769  -45.0026 H         1 UNK         0.0600 
    149 H149       -0.7779  -18.0525  -42.9792 H         1 UNK         0.3000 
    150 H150       -0.8931  -21.3178  -41.5131 H         1 UNK         0.0600 
    151 H151        1.1284  -20.1217  -40.5881 H         1 UNK         0.0600 
    152 H152       -0.2654  -20.0437  -39.5219 H         1 UNK         0.0600 
    153 H153        0.1824  -18.6408  -40.4842 H         1 UNK         0.0600 
    154 H154       -2.1887  -18.8259  -40.9156 H         1 UNK         0.3000 
    155 H155       -5.1240  -19.3758  -42.8570 H         1 UNK         0.0600 
    156 H156       -4.5683  -19.3516  -39.8394 H         1 UNK         0.0600 
    157 H157       -5.4182  -20.6223  -40.7108 H         1 UNK         0.0600 
    158 H158       -6.1154  -19.0132  -40.6151 H         1 UNK         0.0600 
    159 H159       -4.2664  -17.2483  -41.1302 H         1 UNK         0.3000 
    160 H160       -2.6802  -15.2805  -43.6519 H         1 UNK         0.0600 
    161 H161       -5.3620  -14.9144  -42.2186 H         1 UNK         0.0600 
    162 H162       -5.1266  -14.8801  -43.9621 H         1 UNK         0.0600 
    163 H163       -4.3904  -13.6417  -42.9587 H         1 UNK         0.0600 
    164 H164       -3.2107  -14.6370  -40.9713 H         1 UNK         0.3000 
    165 H165       -1.3287  -14.2389  -39.7068 H         1 UNK         0.0600 
    166 H166       -1.1568  -15.7876  -37.7388 H         1 UNK         0.0600 
    167 H167       -2.6066  -16.1379  -38.6654 H         1 UNK         0.0600 
    168 H168       -1.1981  -17.1839  -38.8127 H         1 UNK         0.0600 
    169 H169        0.8557  -15.9946  -40.5181 H         1 UNK         0.3000 
    170 H170        3.2075  -13.7627  -39.7940 H         1 UNK         0.0600 
    171 H171        3.2674  -14.0258  -37.3323 H         1 UNK         0.0600 
    172 H172        3.0605  -15.7671  -37.4794 H         1 UNK         0.0600 
    173 H173        4.5323  -14.9940  -38.0680 H         1 UNK         0.0600 
    174 H174        2.9627  -16.7405  -39.8003 H         1 UNK         0.3000 
    175 H175        4.3494  -17.8133  -41.3660 H         1 UNK         0.0600 
    176 H176        2.2039  -17.0363  -43.3973 H         1 UNK         0.0600 
    177 H177        2.7797  -18.6760  -43.0872 H         1 UNK         0.0600 
    178 H178        1.8941  -17.8014  -41.8470 H         1 UNK         0.0600 
    179 H179        4.4685  -16.7231  -44.1162 H         1 UNK         0.3000 
    180 H180        7.9159  -16.5884  -44.2742 H         1 UNK         0.0600 
    181 H181        6.4571  -19.1319  -45.1630 H         1 UNK         0.0600 
    182 H182        7.9469  -19.0597  -44.2326 H         1 UNK         0.0600 
    183 H183        7.9285  -18.4914  -45.8947 H         1 UNK         0.0600 
    184 H184        5.7451  -16.9960  -46.1988 H         1 UNK         0.3000 
    185 H185        4.8808  -13.6347  -46.4920 H         1 UNK         0.0600 
    186 H186        7.1124  -13.2978  -47.5600 H         1 UNK         0.0600 
    187 H187        6.9719  -14.8492  -48.3778 H         1 UNK         0.0600 
    188 H188        5.8635  -13.5338  -48.7709 H         1 UNK         0.0600 
    189 H189        4.7054  -15.7971  -48.3731 H         1 UNK         0.3000 
    190 H190       -2.1833  -21.6752  -44.6395 H         1 UNK         0.3000 
    191 H191       -2.1774  -24.2903  -45.7391 H         1 UNK         0.0600 
    192 H192       -0.9017  -23.2419  -43.1585 H         1 UNK         0.0600 
    193 H193       -1.2060  -24.9320  -43.5375 H         1 UNK         0.0600 
    194 H194       -2.5550  -23.8239  -43.3348 H         1 UNK         0.0600 
    195 H195        0.5544  -22.0677  -44.9845 H         1 UNK         0.3000 
    196 H196        2.6562  -23.8061  -45.7056 H         1 UNK         0.0600 
    197 H197        4.0121  -21.6875  -45.7595 H         1 UNK         0.0600 
    198 H198        2.9967  -21.7848  -44.3290 H         1 UNK         0.0600 
    199 H199        2.5325  -20.7421  -45.6713 H         1 UNK         0.0600 
    200 H200        0.8985  -21.3717  -47.6722 H         1 UNK         0.3000 
    201 H201        2.4873  -21.8728  -50.0591 H         1 UNK         0.0600 
    202 H202        1.4969  -19.6556  -49.4636 H         1 UNK         0.0600 
    203 H203       -0.1214  -20.3120  -49.6638 H         1 UNK         0.0600 
    204 H204        0.9703  -20.1947  -51.0445 H         1 UNK         0.0600 
    205 H205       -0.1845  -23.4821  -48.6510 H         1 UNK         0.3000 
    206 H206       -1.7576  -24.9204  -49.2481 H         1 UNK         0.0600 
    207 H207       -1.3958  -26.4910  -51.1206 H         1 UNK         0.0600 
    208 H208        0.1038  -26.2757  -50.2309 H         1 UNK         0.0600 
    209 H209       -0.1242  -25.4780  -51.7866 H         1 UNK         0.0600 
    210 H210       -2.4453  -22.4522  -49.4815 H         1 UNK         0.3000 
    211 H211       -3.6204  -20.7954  -50.3748 H         1 UNK         0.0600 
    212 H212       -5.1125  -22.9640  -51.9478 H         1 UNK         0.0600 
    213 H213       -5.7175  -21.3713  -51.4897 H         1 UNK         0.0600 
    214 H214       -5.4066  -22.5741  -50.2536 H         1 UNK         0.0600 
    215 H215       -1.1805  -21.2580  -51.6129 H         1 UNK         0.3000 
    216 H216        0.1807  -20.6975  -53.2490 H         1 UNK         0.0600 
    217 H217       -0.3573  -18.8089  -54.7028 H         1 UNK         0.0600 
    218 H218       -1.0617  -18.4918  -53.1258 H         1 UNK         0.0600 
    219 H219       -2.0824  -19.0362  -54.4619 H         1 UNK         0.0600 
    220 H220       -1.7335  -23.0269  -53.5829 H         1 UNK         0.3000 
    221 H221       -2.3331  -24.6301  -54.9366 H         1 UNK         0.0600 
    222 H222       -0.3350  -23.5929  -57.0140 H         1 UNK         0.0600 
    223 H223        0.0684  -24.6669  -55.6745 H         1 UNK         0.0600 
    224 H224       -1.0308  -25.2036  -56.9333 H         1 UNK         0.0600 
    225 H225       -3.5362  -21.8024  -55.1380 H         1 UNK         0.3000 
    226 H226       -4.7622  -21.7915  -57.8182 H         1 UNK         0.0600 
    227 H227       -5.0709  -19.8860  -55.4356 H         1 UNK         0.0600 
    228 H228       -3.9033  -19.6837  -56.7412 H         1 UNK         0.0600 
    229 H229       -5.6264  -19.6018  -57.0780 H         1 UNK         0.0600 
    230 H230       -5.4192  -23.1744  -54.7954 H         1 UNK         0.3000 
    231 H231       -7.1384  -24.0932  -53.7245 H         1 UNK         0.0600 
    232 H232       -7.4899  -25.3647  -55.8479 H         1 UNK         0.0600 
    233 H233       -8.6172  -24.1316  -56.4098 H         1 UNK         0.0600 
    234 H234       -8.9984  -25.0939  -54.9902 H         1 UNK         0.0600 
    235 H235       -6.8270  -21.5893  -53.2686 H         1 UNK         0.3000 
    236 H236       -7.6315  -19.8476  -52.1792 H         1 UNK         0.0600 
    237 H237       -9.9640  -19.4388  -51.6398 H         1 UNK         0.0600 
    238 H238      -10.5179  -20.6587  -52.7700 H         1 UNK         0.0600 
    239 H239       -9.5998  -21.1312  -51.3398 H         1 UNK         0.0600 
    240 H240       -6.8031  -18.2635  -53.3385 H         1 UNK         0.3000 
    241 H241       -7.5202  -17.6462  -56.0393 H         1 UNK         0.0600 
    242 H242       -9.9360  -15.2576  -53.8777 H         1 UNK         0.3800 
    243 H243       -9.1707  -16.6533  -53.1667 H         1 UNK         0.3800 
    244 H244       -5.2272  -17.3647  -55.4519 H         1 UNK         0.0800 
    245 H245       -5.8390  -15.7767  -55.7639 H         1 UNK         0.0800 
    246 H246       -3.2497  -17.2235  -53.5129 H         1 UNK         0.0800 
    247 H247       -4.5708  -18.3511  -53.3128 H         1 UNK         0.0800 
@<TRIPOS>BOND
     1    1    2 1    
     2    1  127 1    
     3    1  128 1    
     4    1  129 1    
     5    2    3 2    
     6    2    4 am   BACKBONE|DICT|INTERRES
     7    4    5 1    
     8    4  130 1    
     9    5    6 1    
    10    5   65 1    
    11    5  131 1    
    12    6    7 1    
    13    6  132 1    
    14    6  133 1    
    15    7    8 1    
    16    8    9 1    
    17    8  134 1    
    18    8  135 1    
    19    9   10 ar   
    20    9   14 ar   
    21   10   11 ar   
    22   10  136 1    
    23   11   12 ar   
    24   11  126 1    
    25   12   13 ar   
    26   12  137 1    
    27   13   14 ar   
    28   13   15 1    
    29   14  138 1    
    30   15   16 1    
    31   15  139 1    
    32   15  140 1    
    33   16   17 1    
    34   17   18 1    
    35   17  141 1    
    36   17  142 1    
    37   18   19 1    
    38   18   67 1    
    39   18  143 1    
    40   19   20 am   BACKBONE|DICT|INTERRES
    41   19  144 1    
    42   20   21 2    
    43   20   22 1    
    44   22   23 1    
    45   22   24 1    
    46   22  145 1    
    47   23  146 1    
    48   23  147 1    
    49   23  148 1    
    50   24   25 am   BACKBONE|DICT|INTERRES
    51   24  149 1    
    52   25   26 2    
    53   25   27 1    
    54   27   28 1    
    55   27   29 1    
    56   27  150 1    
    57   28  151 1    
    58   28  152 1    
    59   28  153 1    
    60   29   30 am   BACKBONE|DICT|INTERRES
    61   29  154 1    
    62   30   31 2    
    63   30   32 1    
    64   32   33 1    
    65   32   34 1    
    66   32  155 1    
    67   33  156 1    
    68   33  157 1    
    69   33  158 1    
    70   34   35 am   BACKBONE|DICT|INTERRES
    71   34  159 1    
    72   35   36 2    
    73   35   37 1    
    74   37   38 1    
    75   37   39 1    
    76   37  160 1    
    77   38  161 1    
    78   38  162 1    
    79   38  163 1    
    80   39   40 am   BACKBONE|DICT|INTERRES
    81   39  164 1    
    82   40   41 2    
    83   40   42 1    
    84   42   43 1    
    85   42   44 1    
    86   42  165 1    
    87   43  166 1    
    88   43  167 1    
    89   43  168 1    
    90   44   45 am   BACKBONE|DICT|INTERRES
    91   44  169 1    
    92   45   46 2    
    93   45   47 1    
    94   47   48 1    
    95   47   49 1    
    96   47  170 1    
    97   48  171 1    
    98   48  172 1    
    99   48  173 1    
   100   49   50 am   BACKBONE|DICT|INTERRES
   101   49  174 1    
   102   50   51 2    
   103   50   52 1    
   104   52   53 1    
   105   52   54 1    
   106   52  175 1    
   107   53  176 1    
   108   53  177 1    
   109   53  178 1    
   110   54   55 am   BACKBONE|DICT|INTERRES
   111   54  179 1    
   112   55   56 2    
   113   55   57 1    
   114   57   58 1    
   115   57   59 1    
   116   57  180 1    
   117   58  181 1    
   118   58  182 1    
   119   58  183 1    
   120   59   60 am   BACKBONE|DICT|INTERRES
   121   59  184 1    
   122   60   61 2    
   123   60   62 1    
   124   62   63 1    
   125   62   64 1    
   126   62  185 1    
   127   63  186 1    
   128   63  187 1    
   129   63  188 1    
   130   64   65 am   BACKBONE|DICT|INTERRES
   131   64  189 1    
   132   65   66 2    
   133   67   68 2    
   134   67   69 am   BACKBONE|DICT|INTERRES
   135   69   70 1    
   136   69  190 1    
   137   70   71 1    
   138   70   72 1    
   139   70  191 1    
   140   71  192 1    
   141   71  193 1    
   142   71  194 1    
   143   72   73 2    
   144   72   74 am   BACKBONE|DICT|INTERRES
   145   74   75 1    
   146   74  195 1    
   147   75   76 1    
   148   75   77 1    
   149   75  196 1    
   150   76  197 1    
   151   76  198 1    
   152   76  199 1    
   153   77   78 2    
   154   77   79 am   BACKBONE|DICT|INTERRES
   155   79   80 1    
   156   79  200 1    
   157   80   81 1    
   158   80   82 1    
   159   80  201 1    
   160   81  202 1    
   161   81  203 1    
   162   81  204 1    
   163   82   83 2    
   164   82   84 am   BACKBONE|DICT|INTERRES
   165   84   85 1    
   166   84  205 1    
   167   85   86 1    
   168   85   87 1    
   169   85  206 1    
   170   86  207 1    
   171   86  208 1    
   172   86  209 1    
   173   87   88 2    
   174   87   89 am   BACKBONE|DICT|INTERRES
   175   89   90 1    
   176   89  210 1    
   177   90   91 1    
   178   90   92 1    
   179   90  211 1    
   180   91  212 1    
   181   91  213 1    
   182   91  214 1    
   183   92   93 2    
   184   92   94 am   BACKBONE|DICT|INTERRES
   185   94   95 1    
   186   94  215 1    
   187   95   96 1    
   188   95   97 1    
   189   95  216 1    
   190   96  217 1    
   191   96  218 1    
   192   96  219 1    
   193   97   98 2    
   194   97   99 am   BACKBONE|DICT|INTERRES
   195   99  100 1    
   196   99  220 1    
   197  100  101 1    
   198  100  102 1    
   199  100  221 1    
   200  101  222 1    
   201  101  223 1    
   202  101  224 1    
   203  102  103 2    
   204  102  104 am   BACKBONE|DICT|INTERRES
   205  104  105 1    
   206  104  225 1    
   207  105  106 1    
   208  105  107 1    
   209  105  226 1    
   210  106  227 1    
   211  106  228 1    
   212  106  229 1    
   213  107  108 2    
   214  107  109 am   BACKBONE|DICT|INTERRES
   215  109  110 1    
   216  109  230 1    
   217  110  111 1    
   218  110  112 1    
   219  110  231 1    
   220  111  232 1    
   221  111  233 1    
   222  111  234 1    
   223  112  113 2    
   224  112  114 am   BACKBONE|DICT|INTERRES
   225  114  115 1    
   226  114  235 1    
   227  115  116 1    
   228  115  117 1    
   229  115  236 1    
   230  116  237 1    
   231  116  238 1    
   232  116  239 1    
   233  117  118 2    
   234  117  119 am   BACKBONE|DICT|INTERRES
   235  119  120 1    
   236  119  240 1    
   237  120  121 1    
   238  120  124 1    
   239  120  241 1    
   240  121  122 am   BACKBONE|DICT|INTERRES
   241  121  123 2    
   242  122  242 1    
   243  122  243 1    
   244  124  125 1    
   245  124  244 1    
   246  124  245 1    
   247  125  126 1    
   248  126  246 1    
   249  126  247 1    
@<TRIPOS>SUBSTRUCTURE
     1 UNK         1 GROUP             0       ****    0 ROOT    
