@<TRIPOS>MOLECULE
3R540
247   249    1
SMALL
USER_CHARGES


@<TRIPOS>ATOM
      1 CA          3.6310  -15.6574  -46.3324 C.3       0 UNK        -0.1800 
      2 C           2.4398  -15.1004  -47.1002 C.2       0 UNK         0.5000 
      3 O           2.6294  -14.3037  -48.0189 O.2       0 UNK        -0.5000 
      4 N           1.2306  -15.5388  -46.7272 N.am      1 UNK        -0.5000 
      5 CA         -0.0773  -15.1806  -47.2952 C.3       1 UNK         0.1400 
      6 C6         -0.1852  -15.3729  -48.8339 C.3       23 UNK        -0.0398 
      7 S7         -0.0034  -17.1213  -49.3085 S.3       23 UNK        -0.2404 
      8 C8          1.6114  -17.1320  -50.1429 C.3       23 UNK        -0.0205 
      9 C9          1.9602  -18.5335  -50.6162 C.ar      23 UNK        -0.0193 
     10 C10         1.2410  -19.1054  -51.6685 C.ar      23 UNK        -0.1150 
     11 C11         1.5171  -20.4059  -52.0948 C.ar      23 UNK        -0.0193 
     12 C12         2.5427  -21.1270  -51.4767 C.ar      23 UNK        -0.1150 
     13 C13         3.2827  -20.5617  -50.4323 C.ar      23 UNK        -0.0193 
     14 C14         2.9827  -19.2648  -50.0023 C.ar      23 UNK        -0.1150 
     15 C15         4.4105  -21.3514  -49.7774 C.3       23 UNK        -0.0205 
     16 S16         3.9407  -22.0384  -48.1550 S.3       23 UNK        -0.2404 
     17 C17         2.4840  -23.0413  -48.5979 C.3       23 UNK        -0.0398 
     18 CA          2.3310  -24.3615  -47.7989 C.3       11 UNK         0.1400 
     19 N           2.4090  -24.1561  -46.3483 N.am      11 UNK        -0.5000 
     20 C           2.7222  -25.1042  -45.4536 C.2       10 UNK         0.5000 
     21 O           3.0653  -26.2455  -45.7624 O.2       10 UNK        -0.5000 
     22 CA          2.5974  -24.7280  -43.9628 C.3       10 UNK         0.1400 
     23 CB          3.9631  -24.3089  -43.3994 C.3       10 UNK        -0.1800 
     24 N           1.6254  -23.6580  -43.7201 N.am      10 UNK        -0.5000 
     25 C           0.2979  -23.7790  -43.8858 C.2       9 UNK         0.5000 
     26 O          -0.2533  -24.8292  -44.2122 O.2       9 UNK        -0.5000 
     27 CA         -0.5483  -22.4979  -43.7465 C.3       9 UNK         0.1400 
     28 CB         -1.0521  -22.3338  -42.3061 C.3       9 UNK        -0.1800 
     29 N           0.1915  -21.3014  -44.1513 N.am      9 UNK        -0.5000 
     30 C           0.6562  -21.0783  -45.3873 C.2       8 UNK         0.5000 
     31 O           0.3341  -21.7789  -46.3506 O.2       8 UNK        -0.5000 
     32 CA          1.6890  -19.9467  -45.5711 C.3       8 UNK         0.1400 
     33 CB          1.2220  -18.8903  -46.5708 C.3       8 UNK        -0.1800 
     34 N           2.0851  -19.2821  -44.3269 N.am      8 UNK        -0.5000 
     35 C           2.9385  -19.7966  -43.4322 C.2       7 UNK         0.5000 
     36 O           3.4455  -20.9132  -43.5363 O.2       7 UNK        -0.5000 
     37 CA          3.2213  -18.9354  -42.1916 C.3       7 UNK         0.1400 
     38 CB          4.1194  -17.7372  -42.5377 C.3       7 UNK        -0.1800 
     39 N           1.9756  -18.4601  -41.5912 N.am      7 UNK        -0.5000 
     40 C           1.1772  -19.2183  -40.8264 C.2       6 UNK         0.5000 
     41 O           1.4384  -20.3790  -40.5117 O.2       6 UNK        -0.5000 
     42 CA         -0.1379  -18.5842  -40.3351 C.3       6 UNK         0.1400 
     43 CB          0.0496  -17.9734  -38.9383 C.3       6 UNK        -0.1800 
     44 N          -0.6603  -17.5578  -41.2378 N.am      6 UNK        -0.5000 
     45 C          -1.1669  -17.7992  -42.4548 C.2       5 UNK         0.5000 
     46 O          -1.2550  -18.9206  -42.9487 O.2       5 UNK        -0.5000 
     47 CA         -1.6340  -16.5773  -43.2639 C.3       5 UNK         0.1400 
     48 CB         -3.1116  -16.2857  -42.9668 C.3       5 UNK        -0.1800 
     49 N          -0.8450  -15.3718  -43.0114 N.am      5 UNK        -0.5000 
     50 C           0.4645  -15.2392  -43.2605 C.2       4 UNK         0.5000 
     51 O           1.1534  -16.1410  -43.7474 O.2       4 UNK        -0.5000 
     52 CA          1.0858  -13.8748  -42.9017 C.3       4 UNK         0.1400 
     53 CB          2.4734  -13.6611  -43.5283 C.3       4 UNK        -0.1800 
     54 N           0.2054  -12.7786  -43.3104 N.am      4 UNK        -0.5000 
     55 C          -0.6379  -12.1159  -42.5067 C.2       3 UNK         0.5000 
     56 O          -0.7627  -12.3615  -41.3068 O.2       3 UNK        -0.5000 
     57 CA         -1.5064  -11.0102  -43.1422 C.3       3 UNK         0.1400 
     58 CB         -0.8625   -9.6326  -42.9242 C.3       3 UNK        -0.1800 
     59 N          -1.7417  -11.2021  -44.5743 N.am      3 UNK        -0.5000 
     60 C          -2.5111  -12.1631  -45.1023 C.2       2 UNK         0.5000 
     61 O          -3.1534  -12.9684  -44.4282 O.2       2 UNK        -0.5000 
     62 CA         -2.5440  -12.2801  -46.6407 C.3       2 UNK         0.1400 
     63 CB         -2.0382  -11.0245  -47.3859 C.3       2 UNK        -0.1800 
     64 N          -1.8248  -13.4752  -47.0910 N.am      2 UNK        -0.5000 
     65 C          -0.5425  -13.7821  -46.8381 C.2       1 UNK         0.5000 
     66 O           0.2256  -13.0316  -46.2295 O.2       1 UNK        -0.5000 
     67 C           0.9982  -25.0250  -48.2121 C.2       11 UNK         0.5000 
     68 O           0.8721  -25.4364  -49.3643 O.2       11 UNK        -0.5000 
     69 N           0.0163  -25.0502  -47.2950 N.am      12 UNK        -0.5000 
     70 CA         -1.4030  -25.3542  -47.5071 C.3       12 UNK         0.1400 
     71 CB         -1.6097  -26.7931  -48.0248 C.3       12 UNK        -0.1800 
     72 C          -2.1210  -24.2867  -48.3639 C.2       12 UNK         0.5000 
     73 O          -3.1489  -24.5800  -48.9762 O.2       12 UNK        -0.5000 
     74 N          -1.5771  -23.0614  -48.3840 N.am      13 UNK        -0.5000 
     75 CA         -2.1564  -21.9044  -49.0655 C.3       13 UNK         0.1400 
     76 CB         -1.0245  -21.0817  -49.6952 C.3       13 UNK        -0.1800 
     77 C          -2.9839  -21.0382  -48.1028 C.2       13 UNK         0.5000 
     78 O          -3.9728  -20.4403  -48.5298 O.2       13 UNK        -0.5000 
     79 N          -2.5707  -20.9985  -46.8257 N.am      14 UNK        -0.5000 
     80 CA         -3.1265  -20.1769  -45.7470 C.3       14 UNK         0.1400 
     81 CB         -4.5375  -20.6655  -45.3528 C.3       14 UNK        -0.1800 
     82 C          -3.0402  -18.6799  -46.1049 C.2       14 UNK         0.5000 
     83 O          -1.9602  -18.2184  -46.4641 O.2       14 UNK        -0.5000 
     84 N          -4.1534  -17.9402  -46.0271 N.am      15 UNK        -0.5000 
     85 CA         -4.2197  -16.5332  -46.4331 C.3       15 UNK         0.1400 
     86 CB         -5.5199  -15.9181  -45.8940 C.3       15 UNK        -0.1800 
     87 C          -4.1228  -16.3248  -47.9590 C.2       15 UNK         0.5000 
     88 O          -3.7808  -15.2202  -48.3849 O.2       15 UNK        -0.5000 
     89 N          -4.4274  -17.3768  -48.7340 N.am      16 UNK        -0.5000 
     90 CA         -4.5854  -17.4052  -50.1887 C.3       16 UNK         0.1400 
     91 CB         -3.2412  -17.1754  -50.9101 C.3       16 UNK        -0.1800 
     92 C          -5.7401  -16.4978  -50.6648 C.2       16 UNK         0.5000 
     93 O          -6.7556  -16.4093  -49.9705 O.2       16 UNK        -0.5000 
     94 N          -5.5959  -15.8956  -51.8566 N.am      17 UNK        -0.5000 
     95 CA         -6.6167  -15.1262  -52.5867 C.3       17 UNK         0.1400 
     96 CB         -6.9581  -13.8167  -51.8447 C.3       17 UNK        -0.1800 
     97 C          -7.8640  -15.9747  -52.9287 C.2       17 UNK         0.5000 
     98 O          -8.9895  -15.4724  -52.9179 O.2       17 UNK        -0.5000 
     99 N          -7.6261  -17.2594  -53.2123 N.am      18 UNK        -0.5000 
    100 CA        -8.6027  -18.3094  -53.4741 C.3       18 UNK         0.1400 
    101 CB        -9.3273  -18.6983  -52.1665 C.3       18 UNK        -0.1800 
    102 C         -7.8526  -19.4946  -54.1106 C.2       18 UNK         0.5000 
    103 O         -6.7273  -19.3194  -54.5902 O.2       18 UNK        -0.5000 
    104 N         -8.4649  -20.6853  -54.0936 N.am      19 UNK        -0.5000 
    105 CA        -7.9055  -21.9461  -54.5893 C.3       19 UNK         0.1400 
    106 CB        -9.0595  -22.9400  -54.8146 C.3       19 UNK        -0.1800 
    107 C         -6.8073  -22.5116  -53.6590 C.2       19 UNK         0.5000 
    108 O         -6.9832  -23.5716  -53.0546 O.2       19 UNK        -0.5000 
    109 N         -5.6973  -21.7738  -53.5479 N.am      20 UNK        -0.5000 
    110 CA        -4.4834  -22.1509  -52.8263 C.3       20 UNK         0.1400 
    111 CB        -3.5917  -20.9036  -52.6957 C.3       20 UNK        -0.1800 
    112 C         -3.7180  -23.2894  -53.5299 C.2       20 UNK         0.5000 
    113 O         -3.9446  -23.5571  -54.7134 O.2       20 UNK        -0.5000 
    114 N         -2.7762  -23.9007  -52.7981 N.am      21 UNK        -0.5000 
    115 CA        -1.9273  -25.0187  -53.2324 C.3       21 UNK         0.1400 
    116 CB        -1.0252  -25.4229  -52.0578 C.3       21 UNK        -0.1800 
    117 C         -1.0745  -24.7582  -54.4940 C.2       21 UNK         0.5000 
    118 O         -0.6558  -25.7144  -55.1478 O.2       21 UNK        -0.5000 
    119 N         -0.8487  -23.4803  -54.8205 N.am      22 UNK        -0.5000 
    120 CA        -0.2135  -23.0215  -56.0651 C.3       22 UNK         0.1400 
    121 C         -1.1160  -23.1690  -57.3281 C.2       22 UNK         0.5000 
    122 N         -2.4162  -23.4143  -57.2053 N.am      22 UNK        -0.7600 
    123 O         -0.6217  -23.0638  -58.4472 O.2       22 UNK        -0.5000 
    124 C124        0.2996  -21.5636  -55.9367 C.3       23 UNK        -0.0398 
    125 S125        1.6287  -21.3574  -54.7011 S.3       23 UNK        -0.2404 
    126 C126        0.6716  -21.0426  -53.1861 C.3       23 UNK        -0.0205 
    127 H127        4.2830  -16.2132  -47.0061 H         1 UNK         0.0600 
    128 H128        3.3186  -16.3300  -45.5337 H         1 UNK         0.0600 
    129 H129        4.2084  -14.8465  -45.8888 H         1 UNK         0.0600 
    130 H130        1.1779  -16.1235  -45.9028 H         1 UNK         0.3000 
    131 H131       -0.7793  -15.8743  -46.8314 H         1 UNK         0.0600 
    132 H132       -1.1650  -15.0602  -49.1958 H         1 UNK         0.0800 
    133 H133        0.5332  -14.7553  -49.3726 H         1 UNK         0.0800 
    134 H134        1.5868  -16.4536  -50.9966 H         1 UNK         0.0800 
    135 H135        2.3775  -16.7572  -49.4647 H         1 UNK         0.0800 
    136 H136        0.4432  -18.5426  -52.1325 H         1 UNK         0.1150 
    137 H137        2.7594  -22.1319  -51.8107 H         1 UNK         0.1150 
    138 H138        3.5423  -18.8300  -49.1861 H         1 UNK         0.1150 
    139 H139        4.7374  -22.1636  -50.4287 H         1 UNK         0.0800 
    140 H140        5.2769  -20.7018  -49.6466 H         1 UNK         0.0800 
    141 H141        1.6067  -22.4032  -48.4876 H         1 UNK         0.0800 
    142 H142        2.5430  -23.2813  -49.6603 H         1 UNK         0.0800 
    143 H143        3.1388  -25.0326  -48.0986 H         1 UNK         0.0600 
    144 H144        2.1374  -23.2414  -46.0181 H         1 UNK         0.3000 
    145 H145        2.2631  -25.6168  -43.4235 H         1 UNK         0.0600 
    146 H146        3.8957  -24.0604  -42.3401 H         1 UNK         0.0600 
    147 H147        4.3651  -23.4411  -43.9235 H         1 UNK         0.0600 
    148 H148        4.6898  -25.1162  -43.4988 H         1 UNK         0.0600 
    149 H149        2.0075  -22.7541  -43.4710 H         1 UNK         0.3000 
    150 H150       -1.4154  -22.6003  -44.4019 H         1 UNK         0.0600 
    151 H151       -1.6269  -23.2062  -41.9928 H         1 UNK         0.0600 
    152 H152       -1.7049  -21.4664  -42.2111 H         1 UNK         0.0600 
    153 H153       -0.2280  -22.2148  -41.6025 H         1 UNK         0.0600 
    154 H154        0.4265  -20.6418  -43.4232 H         1 UNK         0.3000 
    155 H155        2.5727  -20.4225  -45.9998 H         1 UNK         0.0600 
    156 H156        0.7536  -19.3415  -47.4446 H         1 UNK         0.0600 
    157 H157        2.0631  -18.2990  -46.9310 H         1 UNK         0.0600 
    158 H158        0.5035  -18.2093  -46.1198 H         1 UNK         0.0600 
    159 H159        1.6878  -18.3681  -44.1501 H         1 UNK         0.3000 
    160 H160        3.7536  -19.5541  -41.4657 H         1 UNK         0.0600 
    161 H161        3.6405  -17.0573  -43.2417 H         1 UNK         0.0600 
    162 H162        5.0556  -18.0693  -42.9881 H         1 UNK         0.0600 
    163 H163        4.3733  -17.1663  -41.6446 H         1 UNK         0.0600 
    164 H164        1.6740  -17.5287  -41.8401 H         1 UNK         0.3000 
    165 H165       -0.8801  -19.3824  -40.2628 H         1 UNK         0.0600 
    166 H166       -0.8923  -17.5897  -38.5456 H         1 UNK         0.0600 
    167 H167        0.4145  -18.7197  -38.2313 H         1 UNK         0.0600 
    168 H168        0.7686  -17.1532  -38.9501 H         1 UNK         0.0600 
    169 H169       -0.6336  -16.6041  -40.9085 H         1 UNK         0.3000 
    170 H170       -1.5280  -16.8176  -44.3215 H         1 UNK         0.0600 
    171 H171       -3.7334  -17.1556  -43.1816 H         1 UNK         0.0600 
    172 H172       -3.2677  -16.0211  -41.9203 H         1 UNK         0.0600 
    173 H173       -3.4829  -15.4629  -43.5757 H         1 UNK         0.0600 
    174 H174       -1.3405  -14.5787  -42.6288 H         1 UNK         0.3000 
    175 H175        1.2159  -13.8705  -41.8179 H         1 UNK         0.0600 
    176 H176        2.4139  -13.5913  -44.6132 H         1 UNK         0.0600 
    177 H177        2.9267  -12.7393  -43.1640 H         1 UNK         0.0600 
    178 H178        3.1550  -14.4756  -43.2806 H         1 UNK         0.0600 
    179 H179        0.1972  -12.5751  -44.3064 H         1 UNK         0.3000 
    180 H180       -2.4730  -11.0193  -42.6341 H         1 UNK         0.0600 
    181 H181       -1.5013   -8.8340  -43.3019 H         1 UNK         0.0600 
    182 H182        0.1037   -9.5564  -43.4246 H         1 UNK         0.0600 
    183 H183       -0.6986   -9.4412  -41.8628 H         1 UNK         0.0600 
    184 H184       -1.2227  -10.6055  -45.2023 H         1 UNK         0.3000 
    185 H185       -3.5901  -12.4267  -46.9142 H         1 UNK         0.0600 
    186 H186       -2.1783  -11.1325  -48.4615 H         1 UNK         0.0600 
    187 H187       -2.5925  -10.1365  -47.0793 H         1 UNK         0.0600 
    188 H188       -0.9789  -10.8323  -47.2133 H         1 UNK         0.0600 
    189 H189       -2.4062  -14.1476  -47.5854 H         1 UNK         0.3000 
    190 H190        0.2420  -24.7341  -46.3606 H         1 UNK         0.3000 
    191 H191       -1.8665  -25.2982  -46.5213 H         1 UNK         0.0600 
    192 H192       -2.6663  -27.0629  -48.0136 H         1 UNK         0.0600 
    193 H193       -1.0854  -27.5152  -47.3991 H         1 UNK         0.0600 
    194 H194       -1.2560  -26.9161  -49.0482 H         1 UNK         0.0600 
    195 H195       -0.7466  -22.8884  -47.8310 H         1 UNK         0.3000 
    196 H196       -2.8201  -22.2329  -49.8673 H         1 UNK         0.0600 
    197 H197       -1.4129  -20.2042  -50.2136 H         1 UNK         0.0600 
    198 H198       -0.4713  -21.6760  -50.4211 H         1 UNK         0.0600 
    199 H199       -0.3149  -20.7285  -48.9478 H         1 UNK         0.0600 
    200 H200       -1.6954  -21.4586  -46.6098 H         1 UNK         0.3000 
    201 H201       -2.4767  -20.3186  -44.8837 H         1 UNK         0.0600 
    202 H202       -5.2621  -20.5338  -46.1570 H         1 UNK         0.0600 
    203 H203       -4.9079  -20.1329  -44.4760 H         1 UNK         0.0600 
    204 H204       -4.5213  -21.7249  -45.0964 H         1 UNK         0.0600 
    205 H205       -5.0163  -18.3763  -45.7367 H         1 UNK         0.3000 
    206 H206       -3.3799  -16.0029  -45.9795 H         1 UNK         0.0600 
    207 H207       -5.5910  -16.0205  -44.8113 H         1 UNK         0.0600 
    208 H208       -5.5685  -14.8521  -46.1211 H         1 UNK         0.0600 
    209 H209       -6.3997  -16.3883  -46.3350 H         1 UNK         0.0600 
    210 H210       -4.6436  -18.2510  -48.2731 H         1 UNK         0.3000 
    211 H211       -4.9030  -18.4217  -50.4241 H         1 UNK         0.0600 
    212 H212       -2.8565  -16.1676  -50.7525 H         1 UNK         0.0600 
    213 H213       -3.3265  -17.3393  -51.9845 H         1 UNK         0.0600 
    214 H214       -2.4944  -17.8816  -50.5498 H         1 UNK         0.0600 
    215 H215       -4.7197  -16.0230  -52.3433 H         1 UNK         0.3000 
    216 H216       -6.1681  -14.8523  -53.5425 H         1 UNK         0.0600 
    217 H217       -6.0575  -13.2454  -51.6194 H         1 UNK         0.0600 
    218 H218       -7.4793  -14.0048  -50.9058 H         1 UNK         0.0600 
    219 H219       -7.6018  -13.1801  -52.4527 H         1 UNK         0.0600 
    220 H220       -6.6673  -17.5742  -53.2868 H         1 UNK         0.3000 
    221 H221       -9.3294  -17.9439  -54.2019 H         1 UNK         0.0600 
    222 H222      -10.1196  -19.4251  -52.3470 H         1 UNK         0.0600 
    223 H223       -8.6369  -19.1298  -51.4404 H         1 UNK         0.0600 
    224 H224       -9.7988  -17.8341  -51.6986 H         1 UNK         0.0600 
    225 H225       -9.3719  -20.7502  -53.6551 H         1 UNK         0.3000 
    226 H226       -7.4391  -21.7603  -55.5592 H         1 UNK         0.0600 
    227 H227       -9.7808  -22.5502  -55.5332 H         1 UNK         0.0600 
    228 H228       -8.6887  -23.8863  -55.2108 H         1 UNK         0.0600 
    229 H229       -9.5926  -23.1571  -53.8881 H         1 UNK         0.0600 
    230 H230       -5.6710  -20.8989  -54.0611 H         1 UNK         0.3000 
    231 H231       -4.7654  -22.4919  -51.8279 H         1 UNK         0.0600 
    232 H232       -2.6630  -21.1279  -52.1717 H         1 UNK         0.0600 
    233 H233       -4.0961  -20.1178  -52.1335 H         1 UNK         0.0600 
    234 H234       -3.3243  -20.4969  -53.6720 H         1 UNK         0.0600 
    235 H235       -2.6648  -23.6267  -51.8333 H         1 UNK         0.3000 
    236 H236       -2.5875  -25.8574  -53.4621 H         1 UNK         0.0600 
    237 H237       -0.3748  -24.6028  -51.7503 H         1 UNK         0.0600 
    238 H238       -1.6152  -25.7245  -51.1927 H         1 UNK         0.0600 
    239 H239       -0.3861  -26.2668  -52.3208 H         1 UNK         0.0600 
    240 H240       -1.2552  -22.7667  -54.2379 H         1 UNK         0.3000 
    241 H241        0.6537  -23.6600  -56.2446 H         1 UNK         0.0600 
    242 H242       -2.9782  -23.5106  -58.0359 H         1 UNK         0.3800 
    243 H243       -2.8581  -23.4990  -56.2939 H         1 UNK         0.3800 
    244 H244       -0.5228  -20.8819  -55.7144 H         1 UNK         0.0800 
    245 H245        0.7130  -21.2255  -56.8887 H         1 UNK         0.0800 
    246 H246       -0.1849  -20.4074  -53.4170 H         1 UNK         0.0800 
    247 H247        0.2699  -21.9838  -52.8106 H         1 UNK         0.0800 
@<TRIPOS>BOND
     1    1    2 1    
     2    1  127 1    
     3    1  128 1    
     4    1  129 1    
     5    2    3 2    
     6    2    4 am   BACKBONE|DICT|INTERRES
     7    4    5 1    
     8    4  130 1    
     9    5    6 1    
    10    5   65 1    
    11    5  131 1    
    12    6    7 1    
    13    6  132 1    
    14    6  133 1    
    15    7    8 1    
    16    8    9 1    
    17    8  134 1    
    18    8  135 1    
    19    9   10 ar   
    20    9   14 ar   
    21   10   11 ar   
    22   10  136 1    
    23   11   12 ar   
    24   11  126 1    
    25   12   13 ar   
    26   12  137 1    
    27   13   14 ar   
    28   13   15 1    
    29   14  138 1    
    30   15   16 1    
    31   15  139 1    
    32   15  140 1    
    33   16   17 1    
    34   17   18 1    
    35   17  141 1    
    36   17  142 1    
    37   18   19 1    
    38   18   67 1    
    39   18  143 1    
    40   19   20 am   BACKBONE|DICT|INTERRES
    41   19  144 1    
    42   20   21 2    
    43   20   22 1    
    44   22   23 1    
    45   22   24 1    
    46   22  145 1    
    47   23  146 1    
    48   23  147 1    
    49   23  148 1    
    50   24   25 am   BACKBONE|DICT|INTERRES
    51   24  149 1    
    52   25   26 2    
    53   25   27 1    
    54   27   28 1    
    55   27   29 1    
    56   27  150 1    
    57   28  151 1    
    58   28  152 1    
    59   28  153 1    
    60   29   30 am   BACKBONE|DICT|INTERRES
    61   29  154 1    
    62   30   31 2    
    63   30   32 1    
    64   32   33 1    
    65   32   34 1    
    66   32  155 1    
    67   33  156 1    
    68   33  157 1    
    69   33  158 1    
    70   34   35 am   BACKBONE|DICT|INTERRES
    71   34  159 1    
    72   35   36 2    
    73   35   37 1    
    74   37   38 1    
    75   37   39 1    
    76   37  160 1    
    77   38  161 1    
    78   38  162 1    
    79   38  163 1    
    80   39   40 am   BACKBONE|DICT|INTERRES
    81   39  164 1    
    82   40   41 2    
    83   40   42 1    
    84   42   43 1    
    85   42   44 1    
    86   42  165 1    
    87   43  166 1    
    88   43  167 1    
    89   43  168 1    
    90   44   45 am   BACKBONE|DICT|INTERRES
    91   44  169 1    
    92   45   46 2    
    93   45   47 1    
    94   47   48 1    
    95   47   49 1    
    96   47  170 1    
    97   48  171 1    
    98   48  172 1    
    99   48  173 1    
   100   49   50 am   BACKBONE|DICT|INTERRES
   101   49  174 1    
   102   50   51 2    
   103   50   52 1    
   104   52   53 1    
   105   52   54 1    
   106   52  175 1    
   107   53  176 1    
   108   53  177 1    
   109   53  178 1    
   110   54   55 am   BACKBONE|DICT|INTERRES
   111   54  179 1    
   112   55   56 2    
   113   55   57 1    
   114   57   58 1    
   115   57   59 1    
   116   57  180 1    
   117   58  181 1    
   118   58  182 1    
   119   58  183 1    
   120   59   60 am   BACKBONE|DICT|INTERRES
   121   59  184 1    
   122   60   61 2    
   123   60   62 1    
   124   62   63 1    
   125   62   64 1    
   126   62  185 1    
   127   63  186 1    
   128   63  187 1    
   129   63  188 1    
   130   64   65 am   BACKBONE|DICT|INTERRES
   131   64  189 1    
   132   65   66 2    
   133   67   68 2    
   134   67   69 am   BACKBONE|DICT|INTERRES
   135   69   70 1    
   136   69  190 1    
   137   70   71 1    
   138   70   72 1    
   139   70  191 1    
   140   71  192 1    
   141   71  193 1    
   142   71  194 1    
   143   72   73 2    
   144   72   74 am   BACKBONE|DICT|INTERRES
   145   74   75 1    
   146   74  195 1    
   147   75   76 1    
   148   75   77 1    
   149   75  196 1    
   150   76  197 1    
   151   76  198 1    
   152   76  199 1    
   153   77   78 2    
   154   77   79 am   BACKBONE|DICT|INTERRES
   155   79   80 1    
   156   79  200 1    
   157   80   81 1    
   158   80   82 1    
   159   80  201 1    
   160   81  202 1    
   161   81  203 1    
   162   81  204 1    
   163   82   83 2    
   164   82   84 am   BACKBONE|DICT|INTERRES
   165   84   85 1    
   166   84  205 1    
   167   85   86 1    
   168   85   87 1    
   169   85  206 1    
   170   86  207 1    
   171   86  208 1    
   172   86  209 1    
   173   87   88 2    
   174   87   89 am   BACKBONE|DICT|INTERRES
   175   89   90 1    
   176   89  210 1    
   177   90   91 1    
   178   90   92 1    
   179   90  211 1    
   180   91  212 1    
   181   91  213 1    
   182   91  214 1    
   183   92   93 2    
   184   92   94 am   BACKBONE|DICT|INTERRES
   185   94   95 1    
   186   94  215 1    
   187   95   96 1    
   188   95   97 1    
   189   95  216 1    
   190   96  217 1    
   191   96  218 1    
   192   96  219 1    
   193   97   98 2    
   194   97   99 am   BACKBONE|DICT|INTERRES
   195   99  100 1    
   196   99  220 1    
   197  100  101 1    
   198  100  102 1    
   199  100  221 1    
   200  101  222 1    
   201  101  223 1    
   202  101  224 1    
   203  102  103 2    
   204  102  104 am   BACKBONE|DICT|INTERRES
   205  104  105 1    
   206  104  225 1    
   207  105  106 1    
   208  105  107 1    
   209  105  226 1    
   210  106  227 1    
   211  106  228 1    
   212  106  229 1    
   213  107  108 2    
   214  107  109 am   BACKBONE|DICT|INTERRES
   215  109  110 1    
   216  109  230 1    
   217  110  111 1    
   218  110  112 1    
   219  110  231 1    
   220  111  232 1    
   221  111  233 1    
   222  111  234 1    
   223  112  113 2    
   224  112  114 am   BACKBONE|DICT|INTERRES
   225  114  115 1    
   226  114  235 1    
   227  115  116 1    
   228  115  117 1    
   229  115  236 1    
   230  116  237 1    
   231  116  238 1    
   232  116  239 1    
   233  117  118 2    
   234  117  119 am   BACKBONE|DICT|INTERRES
   235  119  120 1    
   236  119  240 1    
   237  120  121 1    
   238  120  124 1    
   239  120  241 1    
   240  121  122 am   BACKBONE|DICT|INTERRES
   241  121  123 2    
   242  122  242 1    
   243  122  243 1    
   244  124  125 1    
   245  124  244 1    
   246  124  245 1    
   247  125  126 1    
   248  126  246 1    
   249  126  247 1    
@<TRIPOS>SUBSTRUCTURE
     1 UNK         1 GROUP             0       ****    0 ROOT    
