@<TRIPOS>MOLECULE
3R540
247   249    1
SMALL
USER_CHARGES


@<TRIPOS>ATOM
      1 CA          2.7881  -19.7838  -48.3729 C.3       0 UNK        -0.1800 
      2 C           2.6811  -18.2655  -48.3637 C.2       0 UNK         0.5000 
      3 O           3.6945  -17.5768  -48.4858 O.2       0 UNK        -0.5000 
      4 N           1.4567  -17.7503  -48.2003 N.am      1 UNK        -0.5000 
      5 CA          1.0494  -16.3380  -48.1546 C.3       1 UNK         0.1400 
      6 C6          1.4811  -15.4873  -49.3807 C.3       23 UNK        -0.0398 
      7 S7          0.9724  -16.1848  -50.9891 S.3       23 UNK        -0.2404 
      8 C8         -0.2707  -14.9848  -51.5580 C.3       23 UNK        -0.0205 
      9 C9         -1.6624  -15.3138  -51.0407 C.ar      23 UNK        -0.0193 
     10 C10        -2.5159  -16.1137  -51.8067 C.ar      23 UNK        -0.1150 
     11 C11        -3.8192  -16.3904  -51.3754 C.ar      23 UNK        -0.0193 
     12 C12        -4.2567  -15.8489  -50.1643 C.ar      23 UNK        -0.1150 
     13 C13        -3.4116  -15.0586  -49.3807 C.ar      23 UNK        -0.0193 
     14 C14        -2.1130  -14.7932  -49.8241 C.ar      23 UNK        -0.1150 
     15 C15        -3.9201  -14.4654  -48.0744 C.3       23 UNK        -0.0205 
     16 S16        -3.3708  -15.4058  -46.6153 S.3       23 UNK        -0.2404 
     17 C17        -4.1281  -17.0468  -46.8936 C.3       23 UNK        -0.0398 
     18 CA         -3.0513  -18.1187  -47.1773 C.3       11 UNK         0.1400 
     19 N          -2.1504  -18.2705  -46.0341 N.am      11 UNK        -0.5000 
     20 C          -0.9762  -18.9034  -46.0282 C.2       10 UNK         0.5000 
     21 O          -0.5299  -19.4805  -47.0228 O.2       10 UNK        -0.5000 
     22 CA         -0.1798  -18.8772  -44.6994 C.3       10 UNK         0.1400 
     23 CB          1.2544  -19.4020  -44.8806 C.3       10 UNK        -0.1800 
     24 N          -0.1376  -17.5505  -44.0611 N.am      10 UNK        -0.5000 
     25 C          -1.1706  -16.9367  -43.4635 C.2       9 UNK         0.5000 
     26 O          -2.2671  -17.4807  -43.3152 O.2       9 UNK        -0.5000 
     27 CA         -0.9771  -15.4790  -43.0069 C.3       9 UNK         0.1400 
     28 CB         -2.1075  -14.9820  -42.0831 C.3       9 UNK        -0.1800 
     29 N           0.3106  -15.2810  -42.3507 N.am      9 UNK        -0.5000 
     30 C           1.0006  -14.1327  -42.3605 C.2       8 UNK         0.5000 
     31 O           0.6496  -13.1297  -42.9847 O.2       8 UNK        -0.5000 
     32 CA          2.2932  -14.0989  -41.5176 C.3       8 UNK         0.1400 
     33 CB          2.8381  -12.6754  -41.2770 C.3       8 UNK        -0.1800 
     34 N           2.1659  -14.8401  -40.2606 N.am      8 UNK        -0.5000 
     35 C           1.3451  -14.5659  -39.2343 C.2       7 UNK         0.5000 
     36 O           0.6080  -13.5796  -39.1882 O.2       7 UNK        -0.5000 
     37 CA          1.3587  -15.5717  -38.0629 C.3       7 UNK         0.1400 
     38 CB          0.0875  -15.5021  -37.1906 C.3       7 UNK        -0.1800 
     39 N           1.6249  -16.9495  -38.4911 N.am      7 UNK        -0.5000 
     40 C           0.8806  -17.7059  -39.3148 C.2       6 UNK         0.5000 
     41 O          -0.1794  -17.3269  -39.8134 O.2       6 UNK        -0.5000 
     42 CA          1.4262  -19.1024  -39.6769 C.3       6 UNK         0.1400 
     43 CB          1.2376  -19.3928  -41.1743 C.3       6 UNK        -0.1800 
     44 N           2.8500  -19.2173  -39.3613 N.am      6 UNK        -0.5000 
     45 C           3.3695  -19.8496  -38.3007 C.2       5 UNK         0.5000 
     46 O           2.6975  -20.4800  -37.4841 O.2       5 UNK        -0.5000 
     47 CA          4.8967  -19.7417  -38.1000 C.3       5 UNK         0.1400 
     48 CB          5.5949  -21.0058  -38.6243 C.3       5 UNK        -0.1800 
     49 N           5.4956  -18.5695  -38.7454 N.am      5 UNK        -0.5000 
     50 C           5.2555  -17.2933  -38.4113 C.2       4 UNK         0.5000 
     51 O           4.5298  -16.9586  -37.4750 O.2       4 UNK        -0.5000 
     52 CA          5.8697  -16.2102  -39.3219 C.3       4 UNK         0.1400 
     53 CB          7.2366  -15.7649  -38.7822 C.3       4 UNK        -0.1800 
     54 N           6.0135  -16.6239  -40.7242 N.am      4 UNK        -0.5000 
     55 C           5.0023  -16.9987  -41.5195 C.2       3 UNK         0.5000 
     56 O           3.8327  -17.0500  -41.1347 O.2       3 UNK        -0.5000 
     57 CA          5.3734  -17.4206  -42.9535 C.3       3 UNK         0.1400 
     58 CB          4.9107  -18.8598  -43.2500 C.3       3 UNK        -0.1800 
     59 N           4.8936  -16.4728  -43.9664 N.am      3 UNK        -0.5000 
     60 C           3.6323  -16.1946  -44.3296 C.2       2 UNK         0.5000 
     61 O           2.6372  -16.7463  -43.8638 O.2       2 UNK        -0.5000 
     62 CA          3.4299  -15.0945  -45.3885 C.3       2 UNK         0.1400 
     63 CB          4.7282  -14.3880  -45.8274 C.3       2 UNK        -0.1800 
     64 N           2.7911  -15.6707  -46.5657 N.am      2 UNK        -0.5000 
     65 C           1.4830  -15.6508  -46.8438 C.2       1 UNK         0.5000 
     66 O           0.6349  -15.1201  -46.1282 O.2       1 UNK        -0.5000 
     67 C          -3.6864  -19.4644  -47.5797 C.2       11 UNK         0.5000 
     68 O          -3.8875  -19.7129  -48.7676 O.2       11 UNK        -0.5000 
     69 N          -3.9381  -20.3349  -46.5907 N.am      12 UNK        -0.5000 
     70 CA         -4.4258  -21.6995  -46.7954 C.3       12 UNK         0.1400 
     71 CB         -4.8475  -22.2978  -45.4455 C.3       12 UNK        -0.1800 
     72 C          -3.3854  -22.5997  -47.4866 C.2       12 UNK         0.5000 
     73 O          -3.7560  -23.4192  -48.3268 O.2       12 UNK        -0.5000 
     74 N          -2.1014  -22.4081  -47.1498 N.am      13 UNK        -0.5000 
     75 CA         -0.9769  -23.1159  -47.7640 C.3       13 UNK         0.1400 
     76 CB          0.2817  -22.9369  -46.9035 C.3       13 UNK        -0.1800 
     77 C          -0.7194  -22.6500  -49.2072 C.2       13 UNK         0.5000 
     78 O          -0.3585  -23.4717  -50.0494 O.2       13 UNK        -0.5000 
     79 N          -0.9382  -21.3528  -49.4697 N.am      14 UNK        -0.5000 
     80 CA         -0.9009  -20.7666  -50.8092 C.3       14 UNK         0.1400 
     81 CB         -0.9412  -19.2359  -50.7099 C.3       14 UNK        -0.1800 
     82 C          -2.0438  -21.2857  -51.6981 C.2       14 UNK         0.5000 
     83 O          -1.7974  -21.6443  -52.8488 O.2       14 UNK        -0.5000 
     84 N          -3.2616  -21.3365  -51.1379 N.am      15 UNK        -0.5000 
     85 CA         -4.4603  -21.8373  -51.8079 C.3       15 UNK         0.1400 
     86 CB         -5.7017  -21.4666  -50.9834 C.3       15 UNK        -0.1800 
     87 C          -4.4179  -23.3497  -52.0690 C.2       15 UNK         0.5000 
     88 O          -4.9131  -23.7905  -53.1068 O.2       15 UNK        -0.5000 
     89 N          -3.8589  -24.1154  -51.1195 N.am      16 UNK        -0.5000 
     90 CA         -3.6236  -25.5651  -51.1658 C.3       16 UNK         0.1400 
     91 CB         -2.5245  -25.8813  -52.2011 C.3       16 UNK        -0.1800 
     92 C          -4.9032  -26.4031  -51.3927 C.2       16 UNK         0.5000 
     93 O          -4.8294  -27.4995  -51.9489 O.2       16 UNK        -0.5000 
     94 N          -6.0572  -25.8429  -50.9964 N.am      17 UNK        -0.5000 
     95 CA         -7.4291  -26.3097  -51.2436 C.3       17 UNK         0.1400 
     96 CB         -7.6755  -27.6865  -50.5926 C.3       17 UNK        -0.1800 
     97 C          -7.8609  -26.2813  -52.7304 C.2       17 UNK         0.5000 
     98 O          -8.9625  -26.7360  -53.0430 O.2       17 UNK        -0.5000 
     99 N          -7.0172  -25.7342  -53.6157 N.am      18 UNK        -0.5000 
    100 CA        -7.2718  -25.5791  -55.0474 C.3       18 UNK         0.1400 
    101 CB        -5.9833  -25.9130  -55.8167 C.3       18 UNK        -0.1800 
    102 C         -7.7304  -24.1523  -55.3907 C.2       18 UNK         0.5000 
    103 O         -8.4645  -23.9733  -56.3627 O.2       18 UNK        -0.5000 
    104 N         -7.2618  -23.1628  -54.6140 N.am      19 UNK        -0.5000 
    105 CA        -7.4768  -21.7111  -54.7149 C.3       19 UNK         0.1400 
    106 CB        -8.9704  -21.3451  -54.6414 C.3       19 UNK        -0.1800 
    107 C         -6.7934  -21.0584  -55.9319 C.2       19 UNK         0.5000 
    108 O         -6.1868  -19.9975  -55.7869 O.2       19 UNK        -0.5000 
    109 N         -6.8415  -21.7236  -57.0935 N.am      20 UNK        -0.5000 
    110 CA        -6.1683  -21.3368  -58.3376 C.3       20 UNK         0.1400 
    111 CB        -6.5877  -22.3078  -59.4510 C.3       20 UNK        -0.1800 
    112 C         -4.6313  -21.2861  -58.2170 C.2       20 UNK         0.5000 
    113 O         -3.9846  -20.5506  -58.9642 O.2       20 UNK        -0.5000 
    114 N         -4.0810  -22.0281  -57.2448 N.am      21 UNK        -0.5000 
    115 CA        -2.6682  -22.0416  -56.8610 C.3       21 UNK         0.1400 
    116 CB        -2.4659  -23.1177  -55.7840 C.3       21 UNK        -0.1800 
    117 C         -2.1262  -20.6742  -56.3872 C.2       21 UNK         0.5000 
    118 O         -0.9159  -20.4556  -56.4573 O.2       21 UNK        -0.5000 
    119 N         -3.0187  -19.7679  -55.9623 N.am      22 UNK        -0.5000 
    120 CA        -2.7063  -18.3589  -55.6709 C.3       22 UNK         0.1400 
    121 C         -2.4185  -17.4940  -56.9357 C.2       22 UNK         0.5000 
    122 N         -2.6890  -17.9585  -58.1513 N.am      22 UNK        -0.7600 
    123 O         -1.9309  -16.3740  -56.8109 O.2       22 UNK        -0.5000 
    124 C124       -3.8047  -17.6922  -54.8041 C.3       23 UNK        -0.0398 
    125 S125       -4.0421  -18.5386  -53.2075 S.3       23 UNK        -0.2404 
    126 C126       -4.8007  -17.2275  -52.1959 C.3       23 UNK        -0.0205 
    127 H127        1.8063  -20.2571  -48.4046 H         1 UNK         0.0600 
    128 H128        3.3053  -20.1292  -47.4779 H         1 UNK         0.0600 
    129 H129        3.3502  -20.1161  -49.2455 H         1 UNK         0.0600 
    130 H130        0.6976  -18.4027  -48.0255 H         1 UNK         0.3000 
    131 H131       -0.0421  -16.3590  -48.1459 H         1 UNK         0.0600 
    132 H132        1.0845  -14.4753  -49.2872 H         1 UNK         0.0800 
    133 H133        2.5654  -15.3715  -49.4087 H         1 UNK         0.0800 
    134 H134        0.0150  -13.9711  -51.2740 H         1 UNK         0.0800 
    135 H135       -0.2778  -14.9926  -52.6490 H         1 UNK         0.0800 
    136 H136       -2.1569  -16.5102  -52.7443 H         1 UNK         0.1150 
    137 H137       -5.2678  -16.0388  -49.8328 H         1 UNK         0.1150 
    138 H138       -1.4605  -14.1712  -49.2278 H         1 UNK         0.1150 
    139 H139       -3.5659  -13.4377  -47.9820 H         1 UNK         0.0800 
    140 H140       -5.0098  -14.4093  -48.0761 H         1 UNK         0.0800 
    141 H141       -4.7043  -17.3097  -46.0048 H         1 UNK         0.0800 
    142 H142       -4.8498  -16.9899  -47.7081 H         1 UNK         0.0800 
    143 H143       -2.4550  -17.7833  -48.0292 H         1 UNK         0.0600 
    144 H144       -2.4434  -17.8325  -45.1654 H         1 UNK         0.3000 
    145 H145       -0.6918  -19.5607  -44.0196 H         1 UNK         0.0600 
    146 H146        1.7682  -19.4792  -43.9267 H         1 UNK         0.0600 
    147 H147        1.2659  -20.3981  -45.3199 H         1 UNK         0.0600 
    148 H148        1.8442  -18.7487  -45.5221 H         1 UNK         0.0600 
    149 H149        0.7504  -17.0575  -44.1244 H         1 UNK         0.3000 
    150 H150       -1.0054  -14.8839  -43.9219 H         1 UNK         0.0600 
    151 H151       -3.0813  -15.0738  -42.5656 H         1 UNK         0.0600 
    152 H152       -1.9758  -13.9314  -41.8241 H         1 UNK         0.0600 
    153 H153       -2.1406  -15.5533  -41.1545 H         1 UNK         0.0600 
    154 H154        0.6642  -16.0662  -41.8200 H         1 UNK         0.3000 
    155 H155        3.0483  -14.6256  -42.0960 H         1 UNK         0.0600 
    156 H156        3.7518  -12.6987  -40.6832 H         1 UNK         0.0600 
    157 H157        2.1159  -12.0441  -40.7590 H         1 UNK         0.0600 
    158 H158        3.0787  -12.1865  -42.2216 H         1 UNK         0.0600 
    159 H159        2.6972  -15.7050  -40.2333 H         1 UNK         0.3000 
    160 H160        2.2020  -15.2843  -37.4336 H         1 UNK         0.0600 
    161 H161       -0.8142  -15.7026  -37.7700 H         1 UNK         0.0600 
    162 H162       -0.0260  -14.5140  -36.7433 H         1 UNK         0.0600 
    163 H163        0.1297  -16.2229  -36.3741 H         1 UNK         0.0600 
    164 H164        2.4965  -17.3376  -38.1515 H         1 UNK         0.3000 
    165 H165        0.8491  -19.8357  -39.1106 H         1 UNK         0.0600 
    166 H166        1.7042  -18.6198  -41.7857 H         1 UNK         0.0600 
    167 H167        1.6732  -20.3526  -41.4520 H         1 UNK         0.0600 
    168 H168        0.1806  -19.4265  -41.4409 H         1 UNK         0.0600 
    169 H169        3.4646  -18.6794  -39.9625 H         1 UNK         0.3000 
    170 H170        5.0816  -19.6664  -37.0264 H         1 UNK         0.0600 
    171 H171        5.1960  -21.9006  -38.1445 H         1 UNK         0.0600 
    172 H172        5.4600  -21.1225  -39.7004 H         1 UNK         0.0600 
    173 H173        6.6654  -20.9795  -38.4198 H         1 UNK         0.0600 
    174 H174        6.1019  -18.7489  -39.5320 H         1 UNK         0.3000 
    175 H175        5.1981  -15.3493  -39.3001 H         1 UNK         0.0600 
    176 H176        7.9644  -16.5768  -38.8093 H         1 UNK         0.0600 
    177 H177        7.6380  -14.9334  -39.3618 H         1 UNK         0.0600 
    178 H178        7.1576  -15.4289  -37.7473 H         1 UNK         0.0600 
    179 H179        6.9515  -16.6093  -41.0985 H         1 UNK         0.3000 
    180 H180        6.4612  -17.4129  -43.0366 H         1 UNK         0.0600 
    181 H181        3.8390  -18.9809  -43.1016 H         1 UNK         0.0600 
    182 H182        5.4075  -19.5704  -42.5886 H         1 UNK         0.0600 
    183 H183        5.1428  -19.1486  -44.2750 H         1 UNK         0.0600 
    184 H184        5.6224  -15.9369  -44.4159 H         1 UNK         0.3000 
    185 H185        2.7773  -14.3407  -44.9434 H         1 UNK         0.0600 
    186 H186        4.5116  -13.5955  -46.5441 H         1 UNK         0.0600 
    187 H187        5.2318  -13.9190  -44.9809 H         1 UNK         0.0600 
    188 H188        5.4289  -15.0751  -46.3038 H         1 UNK         0.0600 
    189 H189        3.3864  -16.2079  -47.1909 H         1 UNK         0.3000 
    190 H190       -3.7431  -20.0563  -45.6402 H         1 UNK         0.3000 
    191 H191       -5.3069  -21.6537  -47.4390 H         1 UNK         0.0600 
    192 H192       -5.6372  -21.7064  -44.9818 H         1 UNK         0.0600 
    193 H193       -5.2331  -23.3105  -45.5716 H         1 UNK         0.0600 
    194 H194       -4.0116  -22.3493  -44.7468 H         1 UNK         0.0600 
    195 H195       -1.8749  -21.6910  -46.4778 H         1 UNK         0.3000 
    196 H196       -1.2190  -24.1806  -47.7927 H         1 UNK         0.0600 
    197 H197        1.1025  -23.5437  -47.2877 H         1 UNK         0.0600 
    198 H198        0.1066  -23.2407  -45.8714 H         1 UNK         0.0600 
    199 H199        0.6193  -21.9020  -46.9005 H         1 UNK         0.0600 
    200 H200       -1.1841  -20.7378  -48.7045 H         1 UNK         0.3000 
    201 H201        0.0449  -21.0500  -51.2757 H         1 UNK         0.0600 
    202 H202       -0.1098  -18.8618  -50.1170 H         1 UNK         0.0600 
    203 H203       -1.8651  -18.8752  -50.2588 H         1 UNK         0.0600 
    204 H204       -0.8663  -18.7809  -51.6984 H         1 UNK         0.0600 
    205 H205       -3.3891  -20.9451  -50.2096 H         1 UNK         0.3000 
    206 H206       -4.5371  -21.3498  -52.7810 H         1 UNK         0.0600 
    207 H207       -5.7996  -20.3846  -50.8911 H         1 UNK         0.0600 
    208 H208       -6.6140  -21.8376  -51.4515 H         1 UNK         0.0600 
    209 H209       -5.6550  -21.8839  -49.9771 H         1 UNK         0.0600 
    210 H210       -3.5764  -23.6657  -50.2534 H         1 UNK         0.3000 
    211 H211       -3.2460  -25.8441  -50.1811 H         1 UNK         0.0600 
    212 H212       -2.8589  -25.6781  -53.2192 H         1 UNK         0.0600 
    213 H213       -2.2282  -26.9297  -52.1549 H         1 UNK         0.0600 
    214 H214       -1.6304  -25.2846  -52.0184 H         1 UNK         0.0600 
    215 H215       -5.9868  -24.9421  -50.5443 H         1 UNK         0.3000 
    216 H216       -8.0769  -25.5924  -50.7378 H         1 UNK         0.0600 
    217 H217       -7.3741  -27.6877  -49.5451 H         1 UNK         0.0600 
    218 H218       -7.1297  -28.4815  -51.1010 H         1 UNK         0.0600 
    219 H219       -8.7333  -27.9498  -50.6242 H         1 UNK         0.0600 
    220 H220       -6.1420  -25.3500  -53.2765 H         1 UNK         0.3000 
    221 H221       -8.0520  -26.2708  -55.3716 H         1 UNK         0.0600 
    222 H222       -5.1617  -25.2519  -55.5372 H         1 UNK         0.0600 
    223 H223       -5.6659  -26.9378  -55.6231 H         1 UNK         0.0600 
    224 H224       -6.1326  -25.8163  -56.8929 H         1 UNK         0.0600 
    225 H225       -6.5756  -23.4339  -53.9157 H         1 UNK         0.3000 
    226 H226       -6.9975  -21.2846  -53.8330 H         1 UNK         0.0600 
    227 H227       -9.4358  -21.7685  -53.7514 H         1 UNK         0.0600 
    228 H228       -9.1010  -20.2633  -54.5937 H         1 UNK         0.0600 
    229 H229       -9.5236  -21.6993  -55.5114 H         1 UNK         0.0600 
    230 H230       -7.3901  -22.5786  -57.1120 H         1 UNK         0.3000 
    231 H231       -6.5092  -20.3345  -58.6042 H         1 UNK         0.0600 
    232 H232       -6.1244  -22.0382  -60.4011 H         1 UNK         0.0600 
    233 H233       -7.6674  -22.2928  -59.6010 H         1 UNK         0.0600 
    234 H234       -6.2952  -23.3331  -59.2208 H         1 UNK         0.0600 
    235 H235       -4.7002  -22.5904  -56.6812 H         1 UNK         0.3000 
    236 H236       -2.0909  -22.3276  -57.7424 H         1 UNK         0.0600 
    237 H237       -2.7368  -24.1068  -56.1533 H         1 UNK         0.0600 
    238 H238       -1.4242  -23.1634  -55.4638 H         1 UNK         0.0600 
    239 H239       -3.0695  -22.9130  -54.9000 H         1 UNK         0.0600 
    240 H240       -3.9993  -20.0170  -55.9250 H         1 UNK         0.3000 
    241 H241       -1.7833  -18.3467  -55.0879 H         1 UNK         0.0600 
    242 H242       -2.4893  -17.3814  -58.9528 H         1 UNK         0.3800 
    243 H243       -3.0922  -18.8788  -58.2903 H         1 UNK         0.3800 
    244 H244       -4.7578  -17.6846  -55.3352 H         1 UNK         0.0800 
    245 H245       -3.5572  -16.6474  -54.6097 H         1 UNK         0.0800 
    246 H246       -5.3947  -16.5675  -52.8292 H         1 UNK         0.0800 
    247 H247       -5.5044  -17.7173  -51.5209 H         1 UNK         0.0800 
@<TRIPOS>BOND
     1    1    2 1    
     2    1  127 1    
     3    1  128 1    
     4    1  129 1    
     5    2    3 2    
     6    2    4 am   BACKBONE|DICT|INTERRES
     7    4    5 1    
     8    4  130 1    
     9    5    6 1    
    10    5   65 1    
    11    5  131 1    
    12    6    7 1    
    13    6  132 1    
    14    6  133 1    
    15    7    8 1    
    16    8    9 1    
    17    8  134 1    
    18    8  135 1    
    19    9   10 ar   
    20    9   14 ar   
    21   10   11 ar   
    22   10  136 1    
    23   11   12 ar   
    24   11  126 1    
    25   12   13 ar   
    26   12  137 1    
    27   13   14 ar   
    28   13   15 1    
    29   14  138 1    
    30   15   16 1    
    31   15  139 1    
    32   15  140 1    
    33   16   17 1    
    34   17   18 1    
    35   17  141 1    
    36   17  142 1    
    37   18   19 1    
    38   18   67 1    
    39   18  143 1    
    40   19   20 am   BACKBONE|DICT|INTERRES
    41   19  144 1    
    42   20   21 2    
    43   20   22 1    
    44   22   23 1    
    45   22   24 1    
    46   22  145 1    
    47   23  146 1    
    48   23  147 1    
    49   23  148 1    
    50   24   25 am   BACKBONE|DICT|INTERRES
    51   24  149 1    
    52   25   26 2    
    53   25   27 1    
    54   27   28 1    
    55   27   29 1    
    56   27  150 1    
    57   28  151 1    
    58   28  152 1    
    59   28  153 1    
    60   29   30 am   BACKBONE|DICT|INTERRES
    61   29  154 1    
    62   30   31 2    
    63   30   32 1    
    64   32   33 1    
    65   32   34 1    
    66   32  155 1    
    67   33  156 1    
    68   33  157 1    
    69   33  158 1    
    70   34   35 am   BACKBONE|DICT|INTERRES
    71   34  159 1    
    72   35   36 2    
    73   35   37 1    
    74   37   38 1    
    75   37   39 1    
    76   37  160 1    
    77   38  161 1    
    78   38  162 1    
    79   38  163 1    
    80   39   40 am   BACKBONE|DICT|INTERRES
    81   39  164 1    
    82   40   41 2    
    83   40   42 1    
    84   42   43 1    
    85   42   44 1    
    86   42  165 1    
    87   43  166 1    
    88   43  167 1    
    89   43  168 1    
    90   44   45 am   BACKBONE|DICT|INTERRES
    91   44  169 1    
    92   45   46 2    
    93   45   47 1    
    94   47   48 1    
    95   47   49 1    
    96   47  170 1    
    97   48  171 1    
    98   48  172 1    
    99   48  173 1    
   100   49   50 am   BACKBONE|DICT|INTERRES
   101   49  174 1    
   102   50   51 2    
   103   50   52 1    
   104   52   53 1    
   105   52   54 1    
   106   52  175 1    
   107   53  176 1    
   108   53  177 1    
   109   53  178 1    
   110   54   55 am   BACKBONE|DICT|INTERRES
   111   54  179 1    
   112   55   56 2    
   113   55   57 1    
   114   57   58 1    
   115   57   59 1    
   116   57  180 1    
   117   58  181 1    
   118   58  182 1    
   119   58  183 1    
   120   59   60 am   BACKBONE|DICT|INTERRES
   121   59  184 1    
   122   60   61 2    
   123   60   62 1    
   124   62   63 1    
   125   62   64 1    
   126   62  185 1    
   127   63  186 1    
   128   63  187 1    
   129   63  188 1    
   130   64   65 am   BACKBONE|DICT|INTERRES
   131   64  189 1    
   132   65   66 2    
   133   67   68 2    
   134   67   69 am   BACKBONE|DICT|INTERRES
   135   69   70 1    
   136   69  190 1    
   137   70   71 1    
   138   70   72 1    
   139   70  191 1    
   140   71  192 1    
   141   71  193 1    
   142   71  194 1    
   143   72   73 2    
   144   72   74 am   BACKBONE|DICT|INTERRES
   145   74   75 1    
   146   74  195 1    
   147   75   76 1    
   148   75   77 1    
   149   75  196 1    
   150   76  197 1    
   151   76  198 1    
   152   76  199 1    
   153   77   78 2    
   154   77   79 am   BACKBONE|DICT|INTERRES
   155   79   80 1    
   156   79  200 1    
   157   80   81 1    
   158   80   82 1    
   159   80  201 1    
   160   81  202 1    
   161   81  203 1    
   162   81  204 1    
   163   82   83 2    
   164   82   84 am   BACKBONE|DICT|INTERRES
   165   84   85 1    
   166   84  205 1    
   167   85   86 1    
   168   85   87 1    
   169   85  206 1    
   170   86  207 1    
   171   86  208 1    
   172   86  209 1    
   173   87   88 2    
   174   87   89 am   BACKBONE|DICT|INTERRES
   175   89   90 1    
   176   89  210 1    
   177   90   91 1    
   178   90   92 1    
   179   90  211 1    
   180   91  212 1    
   181   91  213 1    
   182   91  214 1    
   183   92   93 2    
   184   92   94 am   BACKBONE|DICT|INTERRES
   185   94   95 1    
   186   94  215 1    
   187   95   96 1    
   188   95   97 1    
   189   95  216 1    
   190   96  217 1    
   191   96  218 1    
   192   96  219 1    
   193   97   98 2    
   194   97   99 am   BACKBONE|DICT|INTERRES
   195   99  100 1    
   196   99  220 1    
   197  100  101 1    
   198  100  102 1    
   199  100  221 1    
   200  101  222 1    
   201  101  223 1    
   202  101  224 1    
   203  102  103 2    
   204  102  104 am   BACKBONE|DICT|INTERRES
   205  104  105 1    
   206  104  225 1    
   207  105  106 1    
   208  105  107 1    
   209  105  226 1    
   210  106  227 1    
   211  106  228 1    
   212  106  229 1    
   213  107  108 2    
   214  107  109 am   BACKBONE|DICT|INTERRES
   215  109  110 1    
   216  109  230 1    
   217  110  111 1    
   218  110  112 1    
   219  110  231 1    
   220  111  232 1    
   221  111  233 1    
   222  111  234 1    
   223  112  113 2    
   224  112  114 am   BACKBONE|DICT|INTERRES
   225  114  115 1    
   226  114  235 1    
   227  115  116 1    
   228  115  117 1    
   229  115  236 1    
   230  116  237 1    
   231  116  238 1    
   232  116  239 1    
   233  117  118 2    
   234  117  119 am   BACKBONE|DICT|INTERRES
   235  119  120 1    
   236  119  240 1    
   237  120  121 1    
   238  120  124 1    
   239  120  241 1    
   240  121  122 am   BACKBONE|DICT|INTERRES
   241  121  123 2    
   242  122  242 1    
   243  122  243 1    
   244  124  125 1    
   245  124  244 1    
   246  124  245 1    
   247  125  126 1    
   248  126  246 1    
   249  126  247 1    
@<TRIPOS>SUBSTRUCTURE
     1 UNK         1 GROUP             0       ****    0 ROOT    
