@<TRIPOS>MOLECULE
3R540
247   249    1
SMALL
USER_CHARGES


@<TRIPOS>ATOM
      1 CA         -1.2269  -16.3793  -47.1246 C.3       0 UNK        -0.1800 
      2 C          -1.0042  -14.9095  -47.4502 C.2       0 UNK         0.5000 
      3 O          -1.2884  -14.0416  -46.6289 O.2       0 UNK        -0.5000 
      4 N          -0.4896  -14.6192  -48.6492 N.am      1 UNK        -0.5000 
      5 CA         -0.2220  -13.2648  -49.1504 C.3       1 UNK         0.1400 
      6 C6          0.0837  -13.2645  -50.6728 C.3       23 UNK        -0.0398 
      7 S7          1.3349  -14.5023  -51.1836 S.3       23 UNK        -0.2404 
      8 C8          0.2712  -15.8326  -51.8433 C.3       23 UNK        -0.0205 
      9 C9          0.7390  -17.2347  -51.4615 C.ar      23 UNK        -0.0193 
     10 C10         0.7518  -18.2490  -52.4232 C.ar      23 UNK        -0.1150 
     11 C11         1.1029  -19.5571  -52.0772 C.ar      23 UNK        -0.0193 
     12 C12         1.4585  -19.8468  -50.7570 C.ar      23 UNK        -0.1150 
     13 C13         1.4817  -18.8393  -49.7846 C.ar      23 UNK        -0.0193 
     14 C14         1.1086  -17.5418  -50.1471 C.ar      23 UNK        -0.1150 
     15 C15         1.8779  -19.1127  -48.3339 C.3       23 UNK        -0.0205 
     16 S16         3.2320  -20.3224  -48.1279 S.3       23 UNK        -0.2404 
     17 C17         2.3026  -21.8699  -47.8603 C.3       23 UNK        -0.0398 
     18 CA          2.9846  -22.8206  -46.8456 C.3       11 UNK         0.1400 
     19 N           3.0945  -22.2268  -45.5062 N.am      11 UNK        -0.5000 
     20 C           3.9199  -22.6702  -44.5479 C.2       10 UNK         0.5000 
     21 O           4.7211  -23.5915  -44.7105 O.2       10 UNK        -0.5000 
     22 CA          3.8111  -21.9998  -43.1651 C.3       10 UNK         0.1400 
     23 CB          4.6268  -20.6989  -43.1199 C.3       10 UNK        -0.1800 
     24 N           2.4262  -21.7365  -42.7645 N.am      10 UNK        -0.5000 
     25 C           1.5226  -22.6903  -42.4935 C.2       9 UNK         0.5000 
     26 O           1.7707  -23.8955  -42.5305 O.2       9 UNK        -0.5000 
     27 CA          0.0914  -22.2328  -42.1535 C.3       9 UNK         0.1400 
     28 CB         -0.0204  -21.8735  -40.6645 C.3       9 UNK        -0.1800 
     29 N          -0.3673  -21.1060  -42.9662 N.am      9 UNK        -0.5000 
     30 C          -0.5118  -21.1358  -44.2990 C.2       8 UNK         0.5000 
     31 O          -0.2893  -22.1291  -44.9896 O.2       8 UNK        -0.5000 
     32 CA         -0.8712  -19.8068  -44.9878 C.3       8 UNK         0.1400 
     33 CB         -2.3607  -19.4716  -44.8254 C.3       8 UNK        -0.1800 
     34 N          -0.0483  -18.6976  -44.5033 N.am      8 UNK        -0.5000 
     35 C           1.2898  -18.6650  -44.5874 C.2       7 UNK         0.5000 
     36 O           1.9631  -19.5522  -45.1080 O.2       7 UNK        -0.5000 
     37 CA          2.0005  -17.4683  -43.9419 C.3       7 UNK         0.1400 
     38 CB          1.9912  -16.2528  -44.8763 C.3       7 UNK        -0.1800 
     39 N           1.4160  -17.1198  -42.6479 N.am      7 UNK        -0.5000 
     40 C           1.5436  -17.8751  -41.5479 C.2       6 UNK         0.5000 
     41 O           2.2128  -18.9074  -41.4994 O.2       6 UNK        -0.5000 
     42 CA          0.7507  -17.4256  -40.3090 C.3       6 UNK         0.1400 
     43 CB          1.4963  -16.3139  -39.5556 C.3       6 UNK        -0.1800 
     44 N          -0.5990  -16.9736  -40.6500 N.am      6 UNK        -0.5000 
     45 C          -1.5660  -17.7825  -41.1078 C.2       5 UNK         0.5000 
     46 O          -1.4214  -18.9933  -41.2710 O.2       5 UNK        -0.5000 
     47 CA         -2.9116  -17.1336  -41.4817 C.3       5 UNK         0.1400 
     48 CB         -3.8540  -17.1177  -40.2692 C.3       5 UNK        -0.1800 
     49 N          -2.7950  -15.7766  -42.0176 N.am      5 UNK        -0.5000 
     50 C          -2.0966  -15.4272  -43.1065 C.2       4 UNK         0.5000 
     51 O          -1.4312  -16.2263  -43.7690 O.2       4 UNK        -0.5000 
     52 CA         -2.1329  -13.9399  -43.5216 C.3       4 UNK         0.1400 
     53 CB         -2.8741  -13.0191  -42.5245 C.3       4 UNK        -0.1800 
     54 N          -0.7955  -13.4053  -43.8044 N.am      4 UNK        -0.5000 
     55 C           0.2427  -13.3746  -42.9574 C.2       3 UNK         0.5000 
     56 O           0.2035  -13.8621  -41.8259 O.2       3 UNK        -0.5000 
     57 CA          1.5344  -12.6931  -43.4487 C.3       3 UNK         0.1400 
     58 CB          2.7636  -13.1105  -42.6075 C.3       3 UNK        -0.1800 
     59 N           1.7826  -12.9167  -44.8792 N.am      3 UNK        -0.5000 
     60 C           2.6335  -12.1846  -45.6137 C.2       2 UNK         0.5000 
     61 O           3.1875  -11.1659  -45.1976 O.2       2 UNK        -0.5000 
     62 CA          2.9548  -12.6722  -47.0392 C.3       2 UNK         0.1400 
     63 CB          4.0950  -13.7023  -47.0178 C.3       2 UNK        -0.1800 
     64 N           1.8074  -13.2411  -47.7445 N.am      2 UNK        -0.5000 
     65 C           0.8644  -12.5071  -48.3517 C.2       1 UNK         0.5000 
     66 O           0.8297  -11.2763  -48.3108 O.2       1 UNK        -0.5000 
     67 C           2.2323  -24.1704  -46.8363 C.2       11 UNK         0.5000 
     68 O           2.3574  -24.9282  -47.7990 O.2       11 UNK        -0.5000 
     69 N           1.4354  -24.4183  -45.7850 N.am      12 UNK        -0.5000 
     70 CA          0.4131  -25.4647  -45.6677 C.3       12 UNK         0.1400 
     71 CB          1.0372  -26.8755  -45.6891 C.3       12 UNK        -0.1800 
     72 C          -0.7139  -25.2680  -46.7063 C.2       12 UNK         0.5000 
     73 O          -1.1998  -26.2321  -47.3008 O.2       12 UNK        -0.5000 
     74 N          -1.0871  -24.0002  -46.9103 N.am      13 UNK        -0.5000 
     75 CA         -2.1207  -23.5368  -47.8250 C.3       13 UNK         0.1400 
     76 CB         -1.6063  -22.2637  -48.5183 C.3       13 UNK        -0.1800 
     77 C          -3.4106  -23.2370  -47.0450 C.2       13 UNK         0.5000 
     78 O          -3.3584  -22.9207  -45.8545 O.2       13 UNK        -0.5000 
     79 N          -4.5516  -23.3142  -47.7399 N.am      14 UNK        -0.5000 
     80 CA         -5.8786  -23.0341  -47.1817 C.3       14 UNK         0.1400 
     81 CB         -6.9415  -23.5765  -48.1508 C.3       14 UNK        -0.1800 
     82 C          -6.1338  -21.5383  -46.9014 C.2       14 UNK         0.5000 
     83 O          -6.9752  -21.2147  -46.0628 O.2       14 UNK        -0.5000 
     84 N          -5.4202  -20.6651  -47.6198 N.am      15 UNK        -0.5000 
     85 CA         -5.5307  -19.2099  -47.6358 C.3       15 UNK         0.1400 
     86 CB         -6.9173  -18.7787  -48.1672 C.3       15 UNK        -0.1800 
     87 C          -4.4018  -18.6794  -48.5371 C.2       15 UNK         0.5000 
     88 O          -3.5542  -19.4621  -48.9797 O.2       15 UNK        -0.5000 
     89 N          -4.4282  -17.3761  -48.8480 N.am      16 UNK        -0.5000 
     90 CA         -3.5960  -16.7616  -49.8852 C.3       16 UNK         0.1400 
     91 CB         -3.8587  -15.2490  -49.9279 C.3       16 UNK        -0.1800 
     92 C          -3.8664  -17.4089  -51.2558 C.2       16 UNK         0.5000 
     93 O          -5.0298  -17.5381  -51.6448 O.2       16 UNK        -0.5000 
     94 N          -2.7925  -17.8721  -51.9114 N.am      17 UNK        -0.5000 
     95 CA         -2.7942  -18.6615  -53.1510 C.3       17 UNK         0.1400 
     96 CB         -3.3579  -17.8373  -54.3270 C.3       17 UNK        -0.1800 
     97 C          -3.4885  -20.0334  -53.0102 C.2       17 UNK         0.5000 
     98 O          -3.8425  -20.6346  -54.0245 O.2       17 UNK        -0.5000 
     99 N          -3.6802  -20.5032  -51.7635 N.am      18 UNK        -0.5000 
    100 CA        -4.4503  -21.6897  -51.3776 C.3       18 UNK         0.1400 
    101 CB        -3.6882  -22.9755  -51.7506 C.3       18 UNK        -0.1800 
    102 C         -5.8865  -21.6375  -51.9353 C.2       18 UNK         0.5000 
    103 O         -6.3706  -22.6177  -52.5046 O.2       18 UNK        -0.5000 
    104 N         -6.4905  -20.4407  -51.8553 N.am      19 UNK        -0.5000 
    105 CA        -7.7413  -19.9879  -52.4796 C.3       19 UNK         0.1400 
    106 CB        -8.9440  -20.8437  -52.0394 C.3       19 UNK        -0.1800 
    107 C         -7.6546  -19.8721  -54.0169 C.2       19 UNK         0.5000 
    108 O         -8.1445  -18.8920  -54.5786 O.2       19 UNK        -0.5000 
    109 N         -7.0066  -20.8499  -54.6558 N.am      20 UNK        -0.5000 
    110 CA        -6.6664  -20.9000  -56.0749 C.3       20 UNK         0.1400 
    111 CB        -7.9259  -21.1609  -56.9229 C.3       20 UNK        -0.1800 
    112 C         -5.5924  -21.9635  -56.3745 C.2       20 UNK         0.5000 
    113 O         -4.9153  -21.8470  -57.3972 O.2       20 UNK        -0.5000 
    114 N         -5.4502  -22.9813  -55.5076 N.am      21 UNK        -0.5000 
    115 CA        -4.6354  -24.1799  -55.7359 C.3       21 UNK         0.1400 
    116 CB        -4.9503  -25.2183  -54.6470 C.3       21 UNK        -0.1800 
    117 C         -3.1127  -23.9655  -55.8875 C.2       21 UNK         0.5000 
    118 O         -2.4463  -24.8654  -56.4024 O.2       21 UNK        -0.5000 
    119 N         -2.5846  -22.8026  -55.4867 N.am      22 UNK        -0.5000 
    120 CA        -1.2068  -22.3709  -55.7810 C.3       22 UNK         0.1400 
    121 C         -1.1346  -20.9434  -56.3965 C.2       22 UNK         0.5000 
    122 N         -2.2205  -20.4110  -56.9462 N.am      22 UNK        -0.7600 
    123 O         -0.0763  -20.3220  -56.4214 O.2       22 UNK        -0.5000 
    124 C124       -0.2099  -22.6497  -54.6191 C.3       23 UNK        -0.0398 
    125 S125       -0.4222  -21.6260  -53.1205 S.3       23 UNK        -0.2404 
    126 C126        1.1164  -20.6525  -53.1335 C.3       23 UNK        -0.0205 
    127 H127       -2.2788  -16.5580  -46.9034 H         1 UNK         0.0600 
    128 H128       -0.6466  -16.6595  -46.2503 H         1 UNK         0.0600 
    129 H129       -0.9305  -17.0355  -47.9418 H         1 UNK         0.0600 
    130 H130       -0.2460  -15.3613  -49.2858 H         1 UNK         0.3000 
    131 H131       -1.1423  -12.6929  -49.0111 H         1 UNK         0.0600 
    132 H132        0.4214  -12.2792  -51.0002 H         1 UNK         0.0800 
    133 H133       -0.8396  -13.4372  -51.2266 H         1 UNK         0.0800 
    134 H134       -0.7512  -15.7128  -51.4861 H         1 UNK         0.0800 
    135 H135        0.2275  -15.7235  -52.9282 H         1 UNK         0.0800 
    136 H136        0.4758  -18.0251  -53.4444 H         1 UNK         0.1150 
    137 H137        1.7256  -20.8597  -50.4986 H         1 UNK         0.1150 
    138 H138        1.1166  -16.7665  -49.3967 H         1 UNK         0.1150 
    139 H139        2.2131  -18.1856  -47.8673 H         1 UNK         0.0800 
    140 H140        0.9947  -19.4219  -47.7758 H         1 UNK         0.0800 
    141 H141        1.2898  -21.6405  -47.5257 H         1 UNK         0.0800 
    142 H142        2.2005  -22.3593  -48.8303 H         1 UNK         0.0800 
    143 H143        3.9946  -23.0252  -47.2075 H         1 UNK         0.0600 
    144 H144        2.5211  -21.4075  -45.3207 H         1 UNK         0.3000 
    145 H145        4.2407  -22.6865  -42.4327 H         1 UNK         0.0600 
    146 H146        4.6030  -20.2522  -42.1259 H         1 UNK         0.0600 
    147 H147        4.2528  -19.9606  -43.8285 H         1 UNK         0.0600 
    148 H148        5.6724  -20.8870  -43.3666 H         1 UNK         0.0600 
    149 H149        2.1533  -20.7644  -42.6831 H         1 UNK         0.3000 
    150 H150       -0.5776  -23.0730  -42.3507 H         1 UNK         0.0600 
    151 H151        0.5884  -21.0039  -40.4143 H         1 UNK         0.0600 
    152 H152       -1.0514  -21.6496  -40.3903 H         1 UNK         0.0600 
    153 H153        0.3109  -22.7005  -40.0353 H         1 UNK         0.0600 
    154 H154       -0.5940  -20.2514  -42.4644 H         1 UNK         0.3000 
    155 H155       -0.6692  -19.9195  -46.0541 H         1 UNK         0.0600 
    156 H156       -2.9833  -20.2424  -45.2809 H         1 UNK         0.0600 
    157 H157       -2.6101  -18.5262  -45.3070 H         1 UNK         0.0600 
    158 H158       -2.6446  -19.4003  -43.7762 H         1 UNK         0.0600 
    159 H159       -0.5337  -17.9071  -44.0877 H         1 UNK         0.3000 
    160 H160        3.0420  -17.7562  -43.7837 H         1 UNK         0.0600 
    161 H161        1.0131  -15.7754  -44.9103 H         1 UNK         0.0600 
    162 H162        2.2612  -16.5342  -45.8949 H         1 UNK         0.0600 
    163 H163        2.7199  -15.5160  -44.5444 H         1 UNK         0.0600 
    164 H164        0.7972  -16.3212  -42.6169 H         1 UNK         0.3000 
    165 H165        0.6609  -18.2854  -39.6415 H         1 UNK         0.0600 
    166 H166        0.9619  -16.0229  -38.6512 H         1 UNK         0.0600 
    167 H167        2.4893  -16.6487  -39.2529 H         1 UNK         0.0600 
    168 H168        1.6257  -15.4229  -40.1705 H         1 UNK         0.0600 
    169 H169       -0.7792  -15.9807  -40.5912 H         1 UNK         0.3000 
    170 H170       -3.3692  -17.7504  -42.2567 H         1 UNK         0.0600 
    171 H171       -3.9813  -18.1211  -39.8604 H         1 UNK         0.0600 
    172 H172       -3.4699  -16.4834  -39.4693 H         1 UNK         0.0600 
    173 H173       -4.8440  -16.7524  -40.5427 H         1 UNK         0.0600 
    174 H174       -3.2960  -15.0544  -41.5214 H         1 UNK         0.3000 
    175 H175       -2.6878  -13.9088  -44.4592 H         1 UNK         0.0600 
    176 H176       -2.4096  -13.0217  -41.5377 H         1 UNK         0.0600 
    177 H177       -2.8799  -11.9888  -42.8807 H         1 UNK         0.0600 
    178 H178       -3.9168  -13.3167  -42.4069 H         1 UNK         0.0600 
    179 H179       -0.6758  -13.0605  -44.7487 H         1 UNK         0.3000 
    180 H180        1.3736  -11.6236  -43.2988 H         1 UNK         0.0600 
    181 H181        2.6208  -12.8595  -41.5557 H         1 UNK         0.0600 
    182 H182        3.6713  -12.6011  -42.9295 H         1 UNK         0.0600 
    183 H183        2.9451  -14.1837  -42.6616 H         1 UNK         0.0600 
    184 H184        1.3335  -13.7174  -45.2992 H         1 UNK         0.3000 
    185 H185        3.3114  -11.8072  -47.6033 H         1 UNK         0.0600 
    186 H186        4.9709  -13.3052  -46.5030 H         1 UNK         0.0600 
    187 H187        3.8058  -14.6213  -46.5099 H         1 UNK         0.0600 
    188 H188        4.4061  -13.9641  -48.0294 H         1 UNK         0.0600 
    189 H189        1.7734  -14.2444  -47.8397 H         1 UNK         0.3000 
    190 H190        1.3946  -23.7050  -45.0683 H         1 UNK         0.3000 
    191 H191       -0.0481  -25.3251  -44.6888 H         1 UNK         0.0600 
    192 H192        0.2904  -27.6330  -45.4491 H         1 UNK         0.0600 
    193 H193        1.8364  -26.9628  -44.9530 H         1 UNK         0.0600 
    194 H194        1.4505  -27.1262  -46.6661 H         1 UNK         0.0600 
    195 H195       -0.7185  -23.2916  -46.2773 H         1 UNK         0.3000 
    196 H196       -2.3257  -24.2963  -48.5824 H         1 UNK         0.0600 
    197 H197       -1.3863  -21.4732  -47.8003 H         1 UNK         0.0600 
    198 H198       -0.6971  -22.4628  -49.0860 H         1 UNK         0.0600 
    199 H199       -2.3406  -21.8678  -49.2175 H         1 UNK         0.0600 
    200 H200       -4.5228  -23.6167  -48.7018 H         1 UNK         0.3000 
    201 H201       -5.9741  -23.5683  -46.2339 H         1 UNK         0.0600 
    202 H202       -7.9465  -23.4165  -47.7578 H         1 UNK         0.0600 
    203 H203       -6.8237  -24.6490  -48.3073 H         1 UNK         0.0600 
    204 H204       -6.8894  -23.0864  -49.1241 H         1 UNK         0.0600 
    205 H205       -4.6823  -21.0081  -48.2206 H         1 UNK         0.3000 
    206 H206       -5.3770  -18.8285  -46.6248 H         1 UNK         0.0600 
    207 H207       -7.7269  -19.1660  -47.5494 H         1 UNK         0.0600 
    208 H208       -7.0271  -17.6941  -48.1716 H         1 UNK         0.0600 
    209 H209       -7.0826  -19.1305  -49.1863 H         1 UNK         0.0600 
    210 H210       -5.1692  -16.8015  -48.4747 H         1 UNK         0.3000 
    211 H211       -2.5511  -16.9241  -49.6203 H         1 UNK         0.0600 
    212 H212       -4.8913  -15.0279  -50.2012 H         1 UNK         0.0600 
    213 H213       -3.2137  -14.7614  -50.6599 H         1 UNK         0.0600 
    214 H214       -3.6626  -14.7840  -48.9618 H         1 UNK         0.0600 
    215 H215       -1.8859  -17.7741  -51.4778 H         1 UNK         0.3000 
    216 H216       -1.7542  -18.8842  -53.3827 H         1 UNK         0.0600 
    217 H217       -2.8621  -16.8698  -54.4047 H         1 UNK         0.0600 
    218 H218       -4.4291  -17.6613  -54.2250 H         1 UNK         0.0600 
    219 H219       -3.2061  -18.3541  -55.2743 H         1 UNK         0.0600 
    220 H220       -3.3431  -19.9449  -50.9871 H         1 UNK         0.3000 
    221 H221       -4.5491  -21.6655  -50.2933 H         1 UNK         0.0600 
    222 H222       -4.2266  -23.8648  -51.4217 H         1 UNK         0.0600 
    223 H223       -3.5401  -23.0533  -52.8262 H         1 UNK         0.0600 
    224 H224       -2.7029  -23.0014  -51.2868 H         1 UNK         0.0600 
    225 H225       -5.9428  -19.6856  -51.4619 H         1 UNK         0.3000 
    226 H226       -7.9036  -18.9776  -52.1004 H         1 UNK         0.0600 
    227 H227       -9.0136  -20.8959  -50.9529 H         1 UNK         0.0600 
    228 H228       -9.8772  -20.4143  -52.4057 H         1 UNK         0.0600 
    229 H229       -8.8860  -21.8628  -52.4222 H         1 UNK         0.0600 
    230 H230       -6.6191  -21.5796  -54.0686 H         1 UNK         0.3000 
    231 H231       -6.2436  -19.9331  -56.3555 H         1 UNK         0.0600 
    232 H232       -7.6763  -21.2370  -57.9821 H         1 UNK         0.0600 
    233 H233       -8.6520  -20.3544  -56.8233 H         1 UNK         0.0600 
    234 H234       -8.4161  -22.0909  -56.6328 H         1 UNK         0.0600 
    235 H235       -6.0120  -23.0037  -54.6687 H         1 UNK         0.3000 
    236 H236       -4.9689  -24.6021  -56.6861 H         1 UNK         0.0600 
    237 H237       -6.0048  -25.4942  -54.6613 H         1 UNK         0.0600 
    238 H238       -4.3764  -26.1337  -54.7971 H         1 UNK         0.0600 
    239 H239       -4.7192  -24.8477  -53.6504 H         1 UNK         0.0600 
    240 H240       -3.1769  -22.1009  -55.0474 H         1 UNK         0.3000 
    241 H241       -0.8457  -22.9789  -56.6123 H         1 UNK         0.0600 
    242 H242       -3.0872  -20.9330  -56.9992 H         1 UNK         0.3800 
    243 H243       -2.1612  -19.4976  -57.3657 H         1 UNK         0.3800 
    244 H244        0.8129  -22.5428  -54.9833 H         1 UNK         0.0800 
    245 H245       -0.2959  -23.6943  -54.3177 H         1 UNK         0.0800 
    246 H246        1.2631  -20.2121  -54.1205 H         1 UNK         0.0800 
    247 H247        1.9647  -21.3176  -52.9654 H         1 UNK         0.0800 
@<TRIPOS>BOND
     1    1    2 1    
     2    1  127 1    
     3    1  128 1    
     4    1  129 1    
     5    2    3 2    
     6    2    4 am   BACKBONE|DICT|INTERRES
     7    4    5 1    
     8    4  130 1    
     9    5    6 1    
    10    5   65 1    
    11    5  131 1    
    12    6    7 1    
    13    6  132 1    
    14    6  133 1    
    15    7    8 1    
    16    8    9 1    
    17    8  134 1    
    18    8  135 1    
    19    9   10 ar   
    20    9   14 ar   
    21   10   11 ar   
    22   10  136 1    
    23   11   12 ar   
    24   11  126 1    
    25   12   13 ar   
    26   12  137 1    
    27   13   14 ar   
    28   13   15 1    
    29   14  138 1    
    30   15   16 1    
    31   15  139 1    
    32   15  140 1    
    33   16   17 1    
    34   17   18 1    
    35   17  141 1    
    36   17  142 1    
    37   18   19 1    
    38   18   67 1    
    39   18  143 1    
    40   19   20 am   BACKBONE|DICT|INTERRES
    41   19  144 1    
    42   20   21 2    
    43   20   22 1    
    44   22   23 1    
    45   22   24 1    
    46   22  145 1    
    47   23  146 1    
    48   23  147 1    
    49   23  148 1    
    50   24   25 am   BACKBONE|DICT|INTERRES
    51   24  149 1    
    52   25   26 2    
    53   25   27 1    
    54   27   28 1    
    55   27   29 1    
    56   27  150 1    
    57   28  151 1    
    58   28  152 1    
    59   28  153 1    
    60   29   30 am   BACKBONE|DICT|INTERRES
    61   29  154 1    
    62   30   31 2    
    63   30   32 1    
    64   32   33 1    
    65   32   34 1    
    66   32  155 1    
    67   33  156 1    
    68   33  157 1    
    69   33  158 1    
    70   34   35 am   BACKBONE|DICT|INTERRES
    71   34  159 1    
    72   35   36 2    
    73   35   37 1    
    74   37   38 1    
    75   37   39 1    
    76   37  160 1    
    77   38  161 1    
    78   38  162 1    
    79   38  163 1    
    80   39   40 am   BACKBONE|DICT|INTERRES
    81   39  164 1    
    82   40   41 2    
    83   40   42 1    
    84   42   43 1    
    85   42   44 1    
    86   42  165 1    
    87   43  166 1    
    88   43  167 1    
    89   43  168 1    
    90   44   45 am   BACKBONE|DICT|INTERRES
    91   44  169 1    
    92   45   46 2    
    93   45   47 1    
    94   47   48 1    
    95   47   49 1    
    96   47  170 1    
    97   48  171 1    
    98   48  172 1    
    99   48  173 1    
   100   49   50 am   BACKBONE|DICT|INTERRES
   101   49  174 1    
   102   50   51 2    
   103   50   52 1    
   104   52   53 1    
   105   52   54 1    
   106   52  175 1    
   107   53  176 1    
   108   53  177 1    
   109   53  178 1    
   110   54   55 am   BACKBONE|DICT|INTERRES
   111   54  179 1    
   112   55   56 2    
   113   55   57 1    
   114   57   58 1    
   115   57   59 1    
   116   57  180 1    
   117   58  181 1    
   118   58  182 1    
   119   58  183 1    
   120   59   60 am   BACKBONE|DICT|INTERRES
   121   59  184 1    
   122   60   61 2    
   123   60   62 1    
   124   62   63 1    
   125   62   64 1    
   126   62  185 1    
   127   63  186 1    
   128   63  187 1    
   129   63  188 1    
   130   64   65 am   BACKBONE|DICT|INTERRES
   131   64  189 1    
   132   65   66 2    
   133   67   68 2    
   134   67   69 am   BACKBONE|DICT|INTERRES
   135   69   70 1    
   136   69  190 1    
   137   70   71 1    
   138   70   72 1    
   139   70  191 1    
   140   71  192 1    
   141   71  193 1    
   142   71  194 1    
   143   72   73 2    
   144   72   74 am   BACKBONE|DICT|INTERRES
   145   74   75 1    
   146   74  195 1    
   147   75   76 1    
   148   75   77 1    
   149   75  196 1    
   150   76  197 1    
   151   76  198 1    
   152   76  199 1    
   153   77   78 2    
   154   77   79 am   BACKBONE|DICT|INTERRES
   155   79   80 1    
   156   79  200 1    
   157   80   81 1    
   158   80   82 1    
   159   80  201 1    
   160   81  202 1    
   161   81  203 1    
   162   81  204 1    
   163   82   83 2    
   164   82   84 am   BACKBONE|DICT|INTERRES
   165   84   85 1    
   166   84  205 1    
   167   85   86 1    
   168   85   87 1    
   169   85  206 1    
   170   86  207 1    
   171   86  208 1    
   172   86  209 1    
   173   87   88 2    
   174   87   89 am   BACKBONE|DICT|INTERRES
   175   89   90 1    
   176   89  210 1    
   177   90   91 1    
   178   90   92 1    
   179   90  211 1    
   180   91  212 1    
   181   91  213 1    
   182   91  214 1    
   183   92   93 2    
   184   92   94 am   BACKBONE|DICT|INTERRES
   185   94   95 1    
   186   94  215 1    
   187   95   96 1    
   188   95   97 1    
   189   95  216 1    
   190   96  217 1    
   191   96  218 1    
   192   96  219 1    
   193   97   98 2    
   194   97   99 am   BACKBONE|DICT|INTERRES
   195   99  100 1    
   196   99  220 1    
   197  100  101 1    
   198  100  102 1    
   199  100  221 1    
   200  101  222 1    
   201  101  223 1    
   202  101  224 1    
   203  102  103 2    
   204  102  104 am   BACKBONE|DICT|INTERRES
   205  104  105 1    
   206  104  225 1    
   207  105  106 1    
   208  105  107 1    
   209  105  226 1    
   210  106  227 1    
   211  106  228 1    
   212  106  229 1    
   213  107  108 2    
   214  107  109 am   BACKBONE|DICT|INTERRES
   215  109  110 1    
   216  109  230 1    
   217  110  111 1    
   218  110  112 1    
   219  110  231 1    
   220  111  232 1    
   221  111  233 1    
   222  111  234 1    
   223  112  113 2    
   224  112  114 am   BACKBONE|DICT|INTERRES
   225  114  115 1    
   226  114  235 1    
   227  115  116 1    
   228  115  117 1    
   229  115  236 1    
   230  116  237 1    
   231  116  238 1    
   232  116  239 1    
   233  117  118 2    
   234  117  119 am   BACKBONE|DICT|INTERRES
   235  119  120 1    
   236  119  240 1    
   237  120  121 1    
   238  120  124 1    
   239  120  241 1    
   240  121  122 am   BACKBONE|DICT|INTERRES
   241  121  123 2    
   242  122  242 1    
   243  122  243 1    
   244  124  125 1    
   245  124  244 1    
   246  124  245 1    
   247  125  126 1    
   248  126  246 1    
   249  126  247 1    
@<TRIPOS>SUBSTRUCTURE
     1 UNK         1 GROUP             0       ****    0 ROOT    
