@<TRIPOS>MOLECULE
3R540
247   249    1
SMALL
USER_CHARGES


@<TRIPOS>ATOM
      1 CA         -5.0422  -16.6686  -44.7771 C.3       0 UNK        -0.1800 
      2 C          -4.7125  -15.2608  -45.2547 C.2       0 UNK         0.5000 
      3 O          -5.4624  -14.3252  -44.9736 O.2       0 UNK        -0.5000 
      4 N          -3.5957  -15.1087  -45.9779 N.am      1 UNK        -0.5000 
      5 CA         -3.0519  -13.8227  -46.4195 C.3       1 UNK         0.1400 
      6 C6         -2.1245  -13.9793  -47.6557 C.3       23 UNK        -0.0398 
      7 S7         -0.5971  -14.9461  -47.3843 S.3       23 UNK        -0.2404 
      8 C8          0.0647  -15.0698  -49.0822 C.3       23 UNK        -0.0205 
      9 C9         -0.2558  -16.4050  -49.7468 C.ar      23 UNK        -0.0193 
     10 C10        -1.4859  -16.5996  -50.3831 C.ar      23 UNK        -0.1150 
     11 C11        -1.7842  -17.8217  -50.9932 C.ar      23 UNK        -0.0193 
     12 C12        -0.8302  -18.8411  -50.9898 C.ar      23 UNK        -0.1150 
     13 C13         0.4160  -18.6583  -50.3853 C.ar      23 UNK        -0.0193 
     14 C14         0.6910  -17.4376  -49.7576 C.ar      23 UNK        -0.1150 
     15 C15         1.4930  -19.7384  -50.4866 C.3       23 UNK        -0.0205 
     16 S16         0.9695  -21.3942  -49.9138 S.3       23 UNK        -0.2404 
     17 C17         1.0225  -21.1935  -48.1024 C.3       23 UNK        -0.0398 
     18 CA         -0.1799  -21.7768  -47.3160 C.3       11 UNK         0.1400 
     19 N          -0.0278  -21.5070  -45.8816 N.am      11 UNK        -0.5000 
     20 C          -0.8515  -21.9124  -44.9049 C.2       10 UNK         0.5000 
     21 O          -1.8151  -22.6547  -45.0839 O.2       10 UNK        -0.5000 
     22 CA         -0.5876  -21.3434  -43.4985 C.3       10 UNK         0.1400 
     23 CB          0.4959  -22.1487  -42.7656 C.3       10 UNK        -0.1800 
     24 N          -0.2171  -19.9272  -43.5388 N.am      10 UNK        -0.5000 
     25 C          -1.0572  -18.9379  -43.8779 C.2       9 UNK         0.5000 
     26 O          -2.2464  -19.1148  -44.1378 O.2       9 UNK        -0.5000 
     27 CA         -0.4580  -17.5242  -43.9998 C.3       9 UNK         0.1400 
     28 CB         -0.4444  -16.8132  -42.6409 C.3       9 UNK        -0.1800 
     29 N           0.8918  -17.5450  -44.5665 N.am      9 UNK        -0.5000 
     30 C           1.1399  -17.8696  -45.8443 C.2       8 UNK         0.5000 
     31 O           0.2534  -18.1658  -46.6432 O.2       8 UNK        -0.5000 
     32 CA          2.6152  -17.9577  -46.2892 C.3       8 UNK         0.1400 
     33 CB          3.1444  -16.5963  -46.7584 C.3       8 UNK        -0.1800 
     34 N           3.5000  -18.4813  -45.2505 N.am      8 UNK        -0.5000 
     35 C           3.3772  -19.6832  -44.6733 C.2       7 UNK         0.5000 
     36 O           2.5666  -20.5312  -45.0457 O.2       7 UNK        -0.5000 
     37 CA          4.2685  -19.9728  -43.4488 C.3       7 UNK         0.1400 
     38 CB          5.4279  -20.9004  -43.8408 C.3       7 UNK        -0.1800 
     39 N           4.8131  -18.7811  -42.7840 N.am      7 UNK        -0.5000 
     40 C           4.0965  -17.7942  -42.2267 C.2       6 UNK         0.5000 
     41 O           2.8659  -17.7268  -42.2801 O.2       6 UNK        -0.5000 
     42 CA          4.9086  -16.6696  -41.5571 C.3       6 UNK         0.1400 
     43 CB          5.3582  -15.6370  -42.5997 C.3       6 UNK        -0.1800 
     44 N           4.1571  -15.9881  -40.5023 N.am      6 UNK        -0.5000 
     45 C           3.8716  -16.5363  -39.3126 C.2       5 UNK         0.5000 
     46 O           4.2301  -17.6696  -38.9869 O.2       5 UNK        -0.5000 
     47 CA          3.0928  -15.6834  -38.2916 C.3       5 UNK         0.1400 
     48 CB          4.0249  -15.2180  -37.1610 C.3       5 UNK        -0.1800 
     49 N           2.4426  -14.5067  -38.8687 N.am      5 UNK        -0.5000 
     50 C           1.2899  -14.5250  -39.5488 C.2       4 UNK         0.5000 
     51 O           0.6599  -15.5534  -39.7930 O.2       4 UNK        -0.5000 
     52 CA          0.7212  -13.1674  -40.0115 C.3       4 UNK         0.1400 
     53 CB          1.3343  -11.9467  -39.2877 C.3       4 UNK        -0.1800 
     54 N           0.8017  -12.9904  -41.4629 N.am      4 UNK        -0.5000 
     55 C           1.9032  -13.0000  -42.2296 C.2       3 UNK         0.5000 
     56 O           3.0340  -13.2320  -41.7985 O.2       3 UNK        -0.5000 
     57 CA          1.7173  -12.6830  -43.7289 C.3       3 UNK         0.1400 
     58 CB          2.0720  -13.8950  -44.5980 C.3       3 UNK        -0.1800 
     59 N           0.3496  -12.2785  -44.0510 N.am      3 UNK        -0.5000 
     60 C          -0.1140  -11.0254  -44.0840 C.2       2 UNK         0.5000 
     61 O           0.5959  -10.0400  -43.8764 O.2       2 UNK        -0.5000 
     62 CA         -1.6230  -10.8476  -44.3886 C.3       2 UNK         0.1400 
     63 CB         -1.9705   -9.4077  -44.8088 C.3       2 UNK        -0.1800 
     64 N          -2.1631  -11.7691  -45.3987 N.am      2 UNK        -0.5000 
     65 C          -2.3796  -13.0820  -45.2407 C.2       1 UNK         0.5000 
     66 O          -2.0554  -13.6996  -44.2213 O.2       1 UNK        -0.5000 
     67 C          -1.5445  -21.2746  -47.8380 C.2       11 UNK         0.5000 
     68 O          -2.2888  -22.0435  -48.4502 O.2       11 UNK        -0.5000 
     69 N          -1.8671  -20.0131  -47.5269 N.am      12 UNK        -0.5000 
     70 CA         -3.1326  -19.3704  -47.8676 C.3       12 UNK         0.1400 
     71 CB         -3.0489  -17.8937  -47.4795 C.3       12 UNK        -0.1800 
     72 C          -4.3528  -20.0248  -47.1970 C.2       12 UNK         0.5000 
     73 O          -5.3860  -20.1790  -47.8475 O.2       12 UNK        -0.5000 
     74 N          -4.2127  -20.3994  -45.9171 N.am      13 UNK        -0.5000 
     75 CA         -5.2435  -21.0885  -45.1404 C.3       13 UNK         0.1400 
     76 CB         -4.8473  -21.1064  -43.6567 C.3       13 UNK        -0.1800 
     77 C          -5.5219  -22.5143  -45.6510 C.2       13 UNK         0.5000 
     78 O          -6.6824  -22.9257  -45.6869 O.2       13 UNK        -0.5000 
     79 N          -4.4627  -23.2343  -46.0484 N.am      14 UNK        -0.5000 
     80 CA         -4.5437  -24.5567  -46.6681 C.3       14 UNK         0.1400 
     81 CB         -3.1447  -25.1892  -46.7257 C.3       14 UNK        -0.1800 
     82 C          -5.1758  -24.5046  -48.0695 C.2       14 UNK         0.5000 
     83 O          -6.0089  -25.3549  -48.3860 O.2       14 UNK        -0.5000 
     84 N          -4.7717  -23.5060  -48.8702 N.am      15 UNK        -0.5000 
     85 CA         -5.2414  -23.1399  -50.2138 C.3       15 UNK         0.1400 
     86 CB         -6.7410  -22.7893  -50.2063 C.3       15 UNK        -0.1800 
     87 C          -4.9168  -24.1740  -51.3089 C.2       15 UNK         0.5000 
     88 O          -4.3680  -23.8068  -52.3471 O.2       15 UNK        -0.5000 
     89 N          -5.2259  -25.4507  -51.0565 N.am      16 UNK        -0.5000 
     90 CA         -4.9453  -26.5871  -51.9370 C.3       16 UNK         0.1400 
     91 CB         -5.7628  -27.7961  -51.4577 C.3       16 UNK        -0.1800 
     92 C          -3.4468  -26.9420  -52.0092 C.2       16 UNK         0.5000 
     93 O          -3.0193  -27.5803  -52.9712 O.2       16 UNK        -0.5000 
     94 N          -2.6782  -26.5198  -50.9958 N.am      17 UNK        -0.5000 
     95 CA         -1.2224  -26.6557  -50.9304 C.3       17 UNK         0.1400 
     96 CB         -0.7826  -26.4894  -49.4669 C.3       17 UNK        -0.1800 
     97 C          -0.4816  -25.6413  -51.8257 C.2       17 UNK         0.5000 
     98 O           0.6965  -25.8463  -52.1220 O.2       17 UNK        -0.5000 
     99 N          -1.1691  -24.5620  -52.2171 N.am      18 UNK        -0.5000 
    100 CA        -0.6448  -23.4853  -53.0495 C.3       18 UNK         0.1400 
    101 CB        -1.3538  -22.1864  -52.6400 C.3       18 UNK        -0.1800 
    102 C         -0.8597  -23.7688  -54.5476 C.2       18 UNK         0.5000 
    103 O         -1.4525  -24.7844  -54.9222 O.2       18 UNK        -0.5000 
    104 N         -0.3870  -22.8357  -55.3831 N.am      19 UNK        -0.5000 
    105 CA        -0.6678  -22.7806  -56.8172 C.3       19 UNK         0.1400 
    106 CB         0.2465  -21.7222  -57.4544 C.3       19 UNK        -0.1800 
    107 C         -2.1465  -22.4450  -57.0943 C.2       19 UNK         0.5000 
    108 O         -2.8216  -21.8632  -56.2403 O.2       19 UNK        -0.5000 
    109 N         -2.6095  -22.7658  -58.3094 N.am      20 UNK        -0.5000 
    110 CA        -3.9947  -22.6128  -58.7781 C.3       20 UNK         0.1400 
    111 CB        -4.0931  -23.1797  -60.2035 C.3       20 UNK        -0.1800 
    112 C         -4.5704  -21.1794  -58.7277 C.2       20 UNK         0.5000 
    113 O         -5.7860  -21.0155  -58.8413 O.2       20 UNK        -0.5000 
    114 N         -3.7027  -20.1744  -58.5491 N.am      21 UNK        -0.5000 
    115 CA        -4.0581  -18.7737  -58.3325 C.3       21 UNK         0.1400 
    116 CB        -2.7765  -17.9263  -58.3550 C.3       21 UNK        -0.1800 
    117 C         -4.8421  -18.5256  -57.0270 C.2       21 UNK         0.5000 
    118 O         -5.6812  -17.6235  -57.0059 O.2       21 UNK        -0.5000 
    119 N         -4.5744  -19.3129  -55.9743 N.am      22 UNK        -0.5000 
    120 CA        -5.2466  -19.1884  -54.6676 C.3       22 UNK         0.1400 
    121 C         -5.2458  -20.4678  -53.7817 C.2       22 UNK         0.5000 
    122 N         -4.6513  -21.5816  -54.1862 N.am      22 UNK        -0.7600 
    123 O         -5.8280  -20.4580  -52.7012 O.2       22 UNK        -0.5000 
    124 C124       -4.8324  -17.9101  -53.8825 C.3       23 UNK        -0.0398 
    125 S125       -3.0584  -17.8187  -53.4508 S.3       23 UNK        -0.2404 
    126 C126       -3.1379  -18.0493  -51.6474 C.3       23 UNK        -0.0205 
    127 H127       -5.4784  -17.2544  -45.5862 H         1 UNK         0.0600 
    128 H128       -4.1481  -17.1789  -44.4195 H         1 UNK         0.0600 
    129 H129       -5.7575  -16.6380  -43.9551 H         1 UNK         0.0600 
    130 H130       -2.9987  -15.9035  -46.1514 H         1 UNK         0.3000 
    131 H131       -3.8949  -13.2042  -46.7355 H         1 UNK         0.0600 
    132 H132       -1.8396  -12.9970  -48.0356 H         1 UNK         0.0800 
    133 H133       -2.6873  -14.4513  -48.4616 H         1 UNK         0.0800 
    134 H134       -0.3164  -14.2506  -49.6935 H         1 UNK         0.0800 
    135 H135        1.1451  -14.9278  -49.0438 H         1 UNK         0.0800 
    136 H136       -2.2175  -15.8048  -50.3906 H         1 UNK         0.1150 
    137 H137       -1.0566  -19.7743  -51.4758 H         1 UNK         0.1150 
    138 H138        1.6527  -17.2830  -49.2919 H         1 UNK         0.1150 
    139 H139        1.7881  -19.8199  -51.5333 H         1 UNK         0.0800 
    140 H140        2.3918  -19.4431  -49.9431 H         1 UNK         0.0800 
    141 H141        1.9475  -21.6477  -47.7448 H         1 UNK         0.0800 
    142 H142        1.1152  -20.1328  -47.8912 H         1 UNK         0.0800 
    143 H143       -0.1678  -22.8614  -47.4416 H         1 UNK         0.0600 
    144 H144        0.7776  -20.9482  -45.6153 H         1 UNK         0.3000 
    145 H145       -1.5129  -21.4317  -42.9256 H         1 UNK         0.0600 
    146 H146        0.6563  -21.7674  -41.7570 H         1 UNK         0.0600 
    147 H147        0.2035  -23.1955  -42.6742 H         1 UNK         0.0600 
    148 H148        1.4508  -22.1232  -43.2897 H         1 UNK         0.0600 
    149 H149        0.7529  -19.7011  -43.3756 H         1 UNK         0.3000 
    150 H150       -1.0990  -16.9472  -44.6703 H         1 UNK         0.0600 
    151 H151       -1.4490  -16.7572  -42.2203 H         1 UNK         0.0600 
    152 H152       -0.0761  -15.7914  -42.7308 H         1 UNK         0.0600 
    153 H153        0.1853  -17.3340  -41.9189 H         1 UNK         0.0600 
    154 H154        1.6619  -17.3932  -43.9238 H         1 UNK         0.3000 
    155 H155        2.6599  -18.6398  -47.1389 H         1 UNK         0.0600 
    156 H156        4.0609  -16.7120  -47.3369 H         1 UNK         0.0600 
    157 H157        3.3664  -15.9435  -45.9171 H         1 UNK         0.0600 
    158 H158        2.4219  -16.0821  -47.3911 H         1 UNK         0.0600 
    159 H159        4.1962  -17.8499  -44.8846 H         1 UNK         0.3000 
    160 H160        3.6450  -20.4955  -42.7206 H         1 UNK         0.0600 
    161 H161        6.1066  -20.4194  -44.5462 H         1 UNK         0.0600 
    162 H162        5.0579  -21.8126  -44.3113 H         1 UNK         0.0600 
    163 H163        6.0068  -21.2008  -42.9673 H         1 UNK         0.0600 
    164 H164        5.8200  -18.7414  -42.7143 H         1 UNK         0.3000 
    165 H165        5.8004  -17.1105  -41.1064 H         1 UNK         0.0600 
    166 H166        4.5045  -15.1731  -43.0892 H         1 UNK         0.0600 
    167 H167        5.9516  -14.8452  -42.1421 H         1 UNK         0.0600 
    168 H168        5.9724  -16.0972  -43.3745 H         1 UNK         0.0600 
    169 H169        3.7898  -15.0701  -40.7221 H         1 UNK         0.3000 
    170 H170        2.3254  -16.3250  -37.8533 H         1 UNK         0.0600 
    171 H171        4.5040  -16.0676  -36.6725 H         1 UNK         0.0600 
    172 H172        4.8155  -14.5659  -37.5346 H         1 UNK         0.0600 
    173 H173        3.4740  -14.6737  -36.3937 H         1 UNK         0.0600 
    174 H174        2.9074  -13.6205  -38.7346 H         1 UNK         0.3000 
    175 H175       -0.3414  -13.1888  -39.7648 H         1 UNK         0.0600 
    176 H176        0.8172  -11.0299  -39.5711 H         1 UNK         0.0600 
    177 H177        1.2413  -12.0432  -38.2051 H         1 UNK         0.0600 
    178 H178        2.3906  -11.8107  -39.5216 H         1 UNK         0.0600 
    179 H179       -0.0801  -12.8350  -41.9293 H         1 UNK         0.3000 
    180 H180        2.4056  -11.8737  -43.9806 H         1 UNK         0.0600 
    181 H181        1.8798  -13.6971  -45.6528 H         1 UNK         0.0600 
    182 H182        3.1302  -14.1307  -44.5057 H         1 UNK         0.0600 
    183 H183        1.5016  -14.7791  -44.3145 H         1 UNK         0.0600 
    184 H184       -0.3265  -13.0239  -44.1973 H         1 UNK         0.3000 
    185 H185       -2.1453  -11.0461  -43.4505 H         1 UNK         0.0600 
    186 H186       -3.0435   -9.2881  -44.9604 H         1 UNK         0.0600 
    187 H187       -1.6754   -8.6895  -44.0426 H         1 UNK         0.0600 
    188 H188       -1.4666   -9.1278  -45.7347 H         1 UNK         0.0600 
    189 H189       -2.4228  -11.3410  -46.2755 H         1 UNK         0.3000 
    190 H190       -1.1763  -19.4305  -47.0616 H         1 UNK         0.3000 
    191 H191       -3.2620  -19.4415  -48.9486 H         1 UNK         0.0600 
    192 H192       -3.9425  -17.3524  -47.7920 H         1 UNK         0.0600 
    193 H193       -2.1903  -17.4153  -47.9424 H         1 UNK         0.0600 
    194 H194       -2.9345  -17.7817  -46.4030 H         1 UNK         0.0600 
    195 H195       -3.3511  -20.1735  -45.4301 H         1 UNK         0.3000 
    196 H196       -6.1691  -20.5166  -45.2340 H         1 UNK         0.0600 
    197 H197       -5.6138  -21.5944  -43.0536 H         1 UNK         0.0600 
    198 H198       -4.7242  -20.0947  -43.2698 H         1 UNK         0.0600 
    199 H199       -3.9121  -21.6429  -43.4968 H         1 UNK         0.0600 
    200 H200       -3.5308  -22.8498  -45.9170 H         1 UNK         0.3000 
    201 H201       -5.1754  -25.1881  -46.0399 H         1 UNK         0.0600 
    202 H202       -2.7326  -25.3207  -45.7251 H         1 UNK         0.0600 
    203 H203       -2.4468  -24.5726  -47.2926 H         1 UNK         0.0600 
    204 H204       -3.1768  -26.1726  -47.1963 H         1 UNK         0.0600 
    205 H205       -4.0203  -22.9141  -48.5238 H         1 UNK         0.3000 
    206 H206       -4.6972  -22.2299  -50.4736 H         1 UNK         0.0600 
    207 H207       -6.9528  -21.9948  -49.4906 H         1 UNK         0.0600 
    208 H208       -7.0613  -22.4363  -51.1872 H         1 UNK         0.0600 
    209 H209       -7.3639  -23.6466  -49.9508 H         1 UNK         0.0600 
    210 H210       -5.6611  -25.6534  -50.1590 H         1 UNK         0.3000 
    211 H211       -5.2713  -26.3273  -52.9462 H         1 UNK         0.0600 
    212 H212       -5.4910  -28.0874  -50.4422 H         1 UNK         0.0600 
    213 H213       -5.6002  -28.6601  -52.1032 H         1 UNK         0.0600 
    214 H214       -6.8311  -27.5789  -51.4696 H         1 UNK         0.0600 
    215 H215       -3.1219  -26.0131  -50.2448 H         1 UNK         0.3000 
    216 H216       -0.9471  -27.6589  -51.2626 H         1 UNK         0.0600 
    217 H217        0.2929  -26.6388  -49.3635 H         1 UNK         0.0600 
    218 H218       -1.2740  -27.2161  -48.8196 H         1 UNK         0.0600 
    219 H219       -1.0111  -25.4916  -49.0902 H         1 UNK         0.0600 
    220 H220       -2.1565  -24.5124  -52.0077 H         1 UNK         0.3000 
    221 H221        0.4256  -23.3701  -52.8663 H         1 UNK         0.0600 
    222 H222       -2.3937  -22.1790  -52.9573 H         1 UNK         0.0600 
    223 H223       -1.3451  -22.0529  -51.5588 H         1 UNK         0.0600 
    224 H224       -0.8711  -21.3191  -53.0900 H         1 UNK         0.0600 
    225 H225        0.0607  -22.0209  -54.9912 H         1 UNK         0.3000 
    226 H226       -0.4424  -23.7561  -57.2532 H         1 UNK         0.0600 
    227 H227        0.1023  -21.6744  -58.5345 H         1 UNK         0.0600 
    228 H228        0.0510  -20.7267  -57.0531 H         1 UNK         0.0600 
    229 H229        1.2977  -21.9531  -57.2805 H         1 UNK         0.0600 
    230 H230       -1.9769  -23.2089  -58.9601 H         1 UNK         0.3000 
    231 H231       -4.6228  -23.2229  -58.1260 H         1 UNK         0.0600 
    232 H232       -5.1157  -23.1246  -60.5796 H         1 UNK         0.0600 
    233 H233       -3.7960  -24.2282  -60.2339 H         1 UNK         0.0600 
    234 H234       -3.4580  -22.6288  -60.8983 H         1 UNK         0.0600 
    235 H235       -2.7260  -20.4104  -58.4625 H         1 UNK         0.3000 
    236 H236       -4.6920  -18.4581  -59.1637 H         1 UNK         0.0600 
    237 H237       -2.0898  -18.2153  -57.5582 H         1 UNK         0.0600 
    238 H238       -2.2520  -18.0275  -59.3053 H         1 UNK         0.0600 
    239 H239       -3.0059  -16.8682  -58.2224 H         1 UNK         0.0600 
    240 H240       -3.8796  -20.0446  -56.0602 H         1 UNK         0.3000 
    241 H241       -6.3070  -19.0689  -54.8983 H         1 UNK         0.0600 
    242 H242       -4.6598  -22.3854  -53.5660 H         1 UNK         0.3800 
    243 H243       -4.0919  -21.6347  -55.0336 H         1 UNK         0.3800 
    244 H244       -5.0665  -17.0243  -54.4731 H         1 UNK         0.0800 
    245 H245       -5.4391  -17.8085  -52.9814 H         1 UNK         0.0800 
    246 H246       -3.8741  -17.3659  -51.2215 H         1 UNK         0.0800 
    247 H247       -3.4903  -19.0591  -51.4300 H         1 UNK         0.0800 
@<TRIPOS>BOND
     1    1    2 1    
     2    1  127 1    
     3    1  128 1    
     4    1  129 1    
     5    2    3 2    
     6    2    4 am   BACKBONE|DICT|INTERRES
     7    4    5 1    
     8    4  130 1    
     9    5    6 1    
    10    5   65 1    
    11    5  131 1    
    12    6    7 1    
    13    6  132 1    
    14    6  133 1    
    15    7    8 1    
    16    8    9 1    
    17    8  134 1    
    18    8  135 1    
    19    9   10 ar   
    20    9   14 ar   
    21   10   11 ar   
    22   10  136 1    
    23   11   12 ar   
    24   11  126 1    
    25   12   13 ar   
    26   12  137 1    
    27   13   14 ar   
    28   13   15 1    
    29   14  138 1    
    30   15   16 1    
    31   15  139 1    
    32   15  140 1    
    33   16   17 1    
    34   17   18 1    
    35   17  141 1    
    36   17  142 1    
    37   18   19 1    
    38   18   67 1    
    39   18  143 1    
    40   19   20 am   BACKBONE|DICT|INTERRES
    41   19  144 1    
    42   20   21 2    
    43   20   22 1    
    44   22   23 1    
    45   22   24 1    
    46   22  145 1    
    47   23  146 1    
    48   23  147 1    
    49   23  148 1    
    50   24   25 am   BACKBONE|DICT|INTERRES
    51   24  149 1    
    52   25   26 2    
    53   25   27 1    
    54   27   28 1    
    55   27   29 1    
    56   27  150 1    
    57   28  151 1    
    58   28  152 1    
    59   28  153 1    
    60   29   30 am   BACKBONE|DICT|INTERRES
    61   29  154 1    
    62   30   31 2    
    63   30   32 1    
    64   32   33 1    
    65   32   34 1    
    66   32  155 1    
    67   33  156 1    
    68   33  157 1    
    69   33  158 1    
    70   34   35 am   BACKBONE|DICT|INTERRES
    71   34  159 1    
    72   35   36 2    
    73   35   37 1    
    74   37   38 1    
    75   37   39 1    
    76   37  160 1    
    77   38  161 1    
    78   38  162 1    
    79   38  163 1    
    80   39   40 am   BACKBONE|DICT|INTERRES
    81   39  164 1    
    82   40   41 2    
    83   40   42 1    
    84   42   43 1    
    85   42   44 1    
    86   42  165 1    
    87   43  166 1    
    88   43  167 1    
    89   43  168 1    
    90   44   45 am   BACKBONE|DICT|INTERRES
    91   44  169 1    
    92   45   46 2    
    93   45   47 1    
    94   47   48 1    
    95   47   49 1    
    96   47  170 1    
    97   48  171 1    
    98   48  172 1    
    99   48  173 1    
   100   49   50 am   BACKBONE|DICT|INTERRES
   101   49  174 1    
   102   50   51 2    
   103   50   52 1    
   104   52   53 1    
   105   52   54 1    
   106   52  175 1    
   107   53  176 1    
   108   53  177 1    
   109   53  178 1    
   110   54   55 am   BACKBONE|DICT|INTERRES
   111   54  179 1    
   112   55   56 2    
   113   55   57 1    
   114   57   58 1    
   115   57   59 1    
   116   57  180 1    
   117   58  181 1    
   118   58  182 1    
   119   58  183 1    
   120   59   60 am   BACKBONE|DICT|INTERRES
   121   59  184 1    
   122   60   61 2    
   123   60   62 1    
   124   62   63 1    
   125   62   64 1    
   126   62  185 1    
   127   63  186 1    
   128   63  187 1    
   129   63  188 1    
   130   64   65 am   BACKBONE|DICT|INTERRES
   131   64  189 1    
   132   65   66 2    
   133   67   68 2    
   134   67   69 am   BACKBONE|DICT|INTERRES
   135   69   70 1    
   136   69  190 1    
   137   70   71 1    
   138   70   72 1    
   139   70  191 1    
   140   71  192 1    
   141   71  193 1    
   142   71  194 1    
   143   72   73 2    
   144   72   74 am   BACKBONE|DICT|INTERRES
   145   74   75 1    
   146   74  195 1    
   147   75   76 1    
   148   75   77 1    
   149   75  196 1    
   150   76  197 1    
   151   76  198 1    
   152   76  199 1    
   153   77   78 2    
   154   77   79 am   BACKBONE|DICT|INTERRES
   155   79   80 1    
   156   79  200 1    
   157   80   81 1    
   158   80   82 1    
   159   80  201 1    
   160   81  202 1    
   161   81  203 1    
   162   81  204 1    
   163   82   83 2    
   164   82   84 am   BACKBONE|DICT|INTERRES
   165   84   85 1    
   166   84  205 1    
   167   85   86 1    
   168   85   87 1    
   169   85  206 1    
   170   86  207 1    
   171   86  208 1    
   172   86  209 1    
   173   87   88 2    
   174   87   89 am   BACKBONE|DICT|INTERRES
   175   89   90 1    
   176   89  210 1    
   177   90   91 1    
   178   90   92 1    
   179   90  211 1    
   180   91  212 1    
   181   91  213 1    
   182   91  214 1    
   183   92   93 2    
   184   92   94 am   BACKBONE|DICT|INTERRES
   185   94   95 1    
   186   94  215 1    
   187   95   96 1    
   188   95   97 1    
   189   95  216 1    
   190   96  217 1    
   191   96  218 1    
   192   96  219 1    
   193   97   98 2    
   194   97   99 am   BACKBONE|DICT|INTERRES
   195   99  100 1    
   196   99  220 1    
   197  100  101 1    
   198  100  102 1    
   199  100  221 1    
   200  101  222 1    
   201  101  223 1    
   202  101  224 1    
   203  102  103 2    
   204  102  104 am   BACKBONE|DICT|INTERRES
   205  104  105 1    
   206  104  225 1    
   207  105  106 1    
   208  105  107 1    
   209  105  226 1    
   210  106  227 1    
   211  106  228 1    
   212  106  229 1    
   213  107  108 2    
   214  107  109 am   BACKBONE|DICT|INTERRES
   215  109  110 1    
   216  109  230 1    
   217  110  111 1    
   218  110  112 1    
   219  110  231 1    
   220  111  232 1    
   221  111  233 1    
   222  111  234 1    
   223  112  113 2    
   224  112  114 am   BACKBONE|DICT|INTERRES
   225  114  115 1    
   226  114  235 1    
   227  115  116 1    
   228  115  117 1    
   229  115  236 1    
   230  116  237 1    
   231  116  238 1    
   232  116  239 1    
   233  117  118 2    
   234  117  119 am   BACKBONE|DICT|INTERRES
   235  119  120 1    
   236  119  240 1    
   237  120  121 1    
   238  120  124 1    
   239  120  241 1    
   240  121  122 am   BACKBONE|DICT|INTERRES
   241  121  123 2    
   242  122  242 1    
   243  122  243 1    
   244  124  125 1    
   245  124  244 1    
   246  124  245 1    
   247  125  126 1    
   248  126  246 1    
   249  126  247 1    
@<TRIPOS>SUBSTRUCTURE
     1 UNK         1 GROUP             0       ****    0 ROOT    
