@<TRIPOS>MOLECULE
3R540
247   249    1
SMALL
USER_CHARGES


@<TRIPOS>ATOM
      1 CA          5.8849  -14.3283  -46.5909 C.3       0 UNK        -0.1800 
      2 C           4.4655  -13.8340  -46.8257 C.2       0 UNK         0.5000 
      3 O           3.7258  -13.6195  -45.8665 O.2       0 UNK        -0.5000 
      4 N           4.0892  -13.6296  -48.0957 N.am      1 UNK        -0.5000 
      5 CA          2.7445  -13.2346  -48.5464 C.3       1 UNK         0.1400 
      6 C6          2.6023  -13.3066  -50.0872 C.3       23 UNK        -0.0398 
      7 S7          2.9287  -14.9734  -50.7551 S.3       23 UNK        -0.2404 
      8 C8          1.2813  -15.7188  -50.5640 C.3       23 UNK        -0.0205 
      9 C9          1.2386  -17.1562  -51.0592 C.ar      23 UNK        -0.0193 
     10 C10         0.5116  -17.4870  -52.2062 C.ar      23 UNK        -0.1150 
     11 C11         0.4202  -18.8159  -52.6316 C.ar      23 UNK        -0.0193 
     12 C12         1.0827  -19.8151  -51.9118 C.ar      23 UNK        -0.1150 
     13 C13         1.8335  -19.4952  -50.7762 C.ar      23 UNK        -0.0193 
     14 C14         1.9008  -18.1641  -50.3524 C.ar      23 UNK        -0.1150 
     15 C15         2.6133  -20.5751  -50.0365 C.3       23 UNK        -0.0205 
     16 S16         2.0944  -20.7576  -48.3005 S.3       23 UNK        -0.2404 
     17 C17         0.5514  -21.7240  -48.4515 C.3       23 UNK        -0.0398 
     18 CA          0.4293  -22.7940  -47.3424 C.3       11 UNK         0.1400 
     19 N           0.4657  -22.2174  -45.9942 N.am      11 UNK        -0.5000 
     20 C           0.7934  -22.9058  -44.8940 C.2       10 UNK         0.5000 
     21 O           0.9700  -24.1237  -44.8871 O.2       10 UNK        -0.5000 
     22 CA          0.9419  -22.1079  -43.5887 C.3       10 UNK         0.1400 
     23 CB          2.1700  -21.1857  -43.6482 C.3       10 UNK        -0.1800 
     24 N          -0.2483  -21.3223  -43.2727 N.am      10 UNK        -0.5000 
     25 C          -1.4249  -21.8416  -42.8976 C.2       9 UNK         0.5000 
     26 O          -1.6302  -23.0485  -42.7660 O.2       9 UNK        -0.5000 
     27 CA         -2.5720  -20.8460  -42.6371 C.3       9 UNK         0.1400 
     28 CB         -2.4615  -20.2393  -41.2300 C.3       9 UNK        -0.1800 
     29 N          -2.6343  -19.7693  -43.6254 N.am      9 UNK        -0.5000 
     30 C          -2.8738  -19.9564  -44.9305 C.2       8 UNK         0.5000 
     31 O          -3.0794  -21.0534  -45.4465 O.2       8 UNK        -0.5000 
     32 CA         -2.8168  -18.7122  -45.8268 C.3       8 UNK         0.1400 
     33 CB         -4.0866  -17.8610  -45.6826 C.3       8 UNK        -0.1800 
     34 N          -1.6238  -17.9013  -45.5873 N.am      8 UNK        -0.5000 
     35 C          -0.3671  -18.3391  -45.7533 C.2       7 UNK         0.5000 
     36 O          -0.0916  -19.4622  -46.1676 O.2       7 UNK        -0.5000 
     37 CA          0.7717  -17.3930  -45.3363 C.3       7 UNK         0.1400 
     38 CB          1.0561  -16.3550  -46.4314 C.3       7 UNK        -0.1800 
     39 N           0.4954  -16.7191  -44.0687 N.am      7 UNK        -0.5000 
     40 C           0.3196  -17.3437  -42.8953 C.2       6 UNK         0.5000 
     41 O           0.4241  -18.5597  -42.7414 O.2       6 UNK        -0.5000 
     42 CA         -0.1011  -16.4676  -41.7057 C.3       6 UNK         0.1400 
     43 CB          1.1131  -15.7671  -41.0773 C.3       6 UNK        -0.1800 
     44 N          -1.0995  -15.4760  -42.1028 N.am      6 UNK        -0.5000 
     45 C          -2.3719  -15.7700  -42.4043 C.2       5 UNK         0.5000 
     46 O          -2.8470  -16.9046  -42.3336 O.2       5 UNK        -0.5000 
     47 CA         -3.2485  -14.6040  -42.8996 C.3       5 UNK         0.1400 
     48 CB         -3.8133  -13.8082  -41.7136 C.3       5 UNK        -0.1800 
     49 N          -2.5312  -13.6952  -43.7976 N.am      5 UNK        -0.5000 
     50 C          -2.1165  -14.0304  -45.0271 C.2       4 UNK         0.5000 
     51 O          -2.3089  -15.1342  -45.5322 O.2       4 UNK        -0.5000 
     52 CA         -1.3190  -12.9753  -45.8149 C.3       4 UNK         0.1400 
     53 CB         -2.2703  -12.0316  -46.5647 C.3       4 UNK        -0.1800 
     54 N          -0.3805  -12.1819  -45.0160 N.am      4 UNK        -0.5000 
     55 C           0.5865  -12.6713  -44.2277 C.2       3 UNK         0.5000 
     56 O           0.7134  -13.8671  -43.9637 O.2       3 UNK        -0.5000 
     57 CA          1.6068  -11.6471  -43.7054 C.3       3 UNK         0.1400 
     58 CB          2.5813  -12.2486  -42.6770 C.3       3 UNK        -0.1800 
     59 N           2.3680  -11.1612  -44.8515 N.am      3 UNK        -0.5000 
     60 C           2.1591  -10.0003  -45.4873 C.2       2 UNK         0.5000 
     61 O           1.3727   -9.1388  -45.0927 O.2       2 UNK        -0.5000 
     62 CA          2.9207   -9.7812  -46.8118 C.3       2 UNK         0.1400 
     63 CB          4.2403   -9.0370  -46.5584 C.3       2 UNK        -0.1800 
     64 N           3.2046  -11.0312  -47.5209 N.am      2 UNK        -0.5000 
     65 C           2.2754  -11.8556  -48.0277 C.2       1 UNK         0.5000 
     66 O           1.0772  -11.5765  -48.0734 O.2       1 UNK        -0.5000 
     67 C          -0.7781  -23.7312  -47.5596 C.2       11 UNK         0.5000 
     68 O          -0.7205  -24.5826  -48.4478 O.2       11 UNK        -0.5000 
     69 N          -1.8108  -23.6391  -46.7062 N.am      12 UNK        -0.5000 
     70 CA         -2.9096  -24.6074  -46.6258 C.3       12 UNK         0.1400 
     71 CB         -3.9571  -24.1260  -45.6100 C.3       12 UNK        -0.1800 
     72 C          -2.4520  -26.0336  -46.2578 C.2       12 UNK         0.5000 
     73 O          -3.1191  -26.9920  -46.6477 O.2       12 UNK        -0.5000 
     74 N          -1.3245  -26.1595  -45.5384 N.am      13 UNK        -0.5000 
     75 CA         -0.7115  -27.4460  -45.1989 C.3       13 UNK         0.1400 
     76 CB          0.3132  -27.2535  -44.0711 C.3       13 UNK        -0.1800 
     77 C          -0.0592  -28.1289  -46.4165 C.2       13 UNK         0.5000 
     78 O           0.0085  -29.3582  -46.4492 O.2       13 UNK        -0.5000 
     79 N           0.3856  -27.3315  -47.4001 N.am      14 UNK        -0.5000 
     80 CA          0.8161  -27.8142  -48.7111 C.3       14 UNK         0.1400 
     81 CB          1.7473  -26.7873  -49.3784 C.3       14 UNK        -0.1800 
     82 C          -0.4149  -28.1254  -49.5793 C.2       14 UNK         0.5000 
     83 O          -0.5529  -29.2611  -50.0331 O.2       14 UNK        -0.5000 
     84 N          -1.2900  -27.1187  -49.7296 N.am      15 UNK        -0.5000 
     85 CA         -2.6388  -27.1310  -50.3131 C.3       15 UNK         0.1400 
     86 CB         -2.8020  -28.0898  -51.5141 C.3       15 UNK        -0.1800 
     87 C          -3.0118  -25.7151  -50.7729 C.2       15 UNK         0.5000 
     88 O          -4.1396  -25.2743  -50.5490 O.2       15 UNK        -0.5000 
     89 N          -2.0591  -25.0366  -51.4253 N.am      16 UNK        -0.5000 
     90 CA         -2.2245  -23.7356  -52.0697 C.3       16 UNK         0.1400 
     91 CB         -1.1232  -23.5695  -53.1330 C.3       16 UNK        -0.1800 
     92 C          -2.2442  -22.5727  -51.0612 C.2       16 UNK         0.5000 
     93 O          -1.3132  -21.7714  -51.0333 O.2       16 UNK        -0.5000 
     94 N          -3.3002  -22.5085  -50.2413 N.am      17 UNK        -0.5000 
     95 CA         -3.5847  -21.4298  -49.2943 C.3       17 UNK         0.1400 
     96 CB         -4.9263  -21.7202  -48.6069 C.3       17 UNK        -0.1800 
     97 C          -3.6200  -20.0534  -49.9878 C.2       17 UNK         0.5000 
     98 O          -4.3656  -19.8922  -50.9585 O.2       17 UNK        -0.5000 
     99 N          -2.8053  -19.1179  -49.4793 N.am      18 UNK        -0.5000 
    100 CA        -2.5180  -17.7877  -50.0214 C.3       18 UNK         0.1400 
    101 CB        -1.7148  -16.9827  -48.9881 C.3       18 UNK        -0.1800 
    102 C         -3.7586  -17.0016  -50.4822 C.2       18 UNK         0.5000 
    103 O         -4.5300  -16.5252  -49.6482 O.2       18 UNK        -0.5000 
    104 N         -3.9222  -16.9167  -51.8099 N.am      19 UNK        -0.5000 
    105 CA        -5.0034  -16.2573  -52.5520 C.3       19 UNK         0.1400 
    106 CB        -5.0063  -14.7389  -52.2787 C.3       19 UNK        -0.1800 
    107 C         -6.4013  -16.8882  -52.3595 C.2       19 UNK         0.5000 
    108 O         -7.3885  -16.3051  -52.8113 O.2       19 UNK        -0.5000 
    109 N         -6.4699  -18.0634  -51.7222 N.am      20 UNK        -0.5000 
    110 CA        -7.7002  -18.8015  -51.4438 C.3       20 UNK         0.1400 
    111 CB        -7.7763  -19.0940  -49.9371 C.3       20 UNK        -0.1800 
    112 C         -7.7679  -20.1057  -52.2536 C.2       20 UNK         0.5000 
    113 O         -8.8569  -20.4838  -52.6874 O.2       20 UNK        -0.5000 
    114 N         -6.6179  -20.7637  -52.4539 N.am      21 UNK        -0.5000 
    115 CA        -6.5021  -22.0414  -53.1600 C.3       21 UNK         0.1400 
    116 CB        -6.5012  -23.1894  -52.1350 C.3       21 UNK        -0.1800 
    117 C         -5.2820  -22.0862  -54.0998 C.2       21 UNK         0.5000 
    118 O         -4.8910  -23.1716  -54.5304 O.2       21 UNK        -0.5000 
    119 N         -4.7052  -20.9201  -54.4211 N.am      22 UNK        -0.5000 
    120 CA        -3.5760  -20.7772  -55.3606 C.3       22 UNK         0.1400 
    121 C         -3.9366  -21.0253  -56.8567 C.2       22 UNK         0.5000 
    122 N         -5.2065  -21.0655  -57.2424 N.am      22 UNK        -0.7600 
    123 O         -3.0438  -21.1882  -57.6837 O.2       22 UNK        -0.5000 
    124 C124       -2.8605  -19.4115  -55.2042 C.3       23 UNK        -0.0398 
    125 S125       -2.1706  -19.1593  -53.5361 S.3       23 UNK        -0.2404 
    126 C126       -0.3835  -19.1627  -53.8760 C.3       23 UNK        -0.0205 
    127 H127        6.4280  -14.4623  -47.5267 H         1 UNK         0.0600 
    128 H128        5.8654  -15.2847  -46.0685 H         1 UNK         0.0600 
    129 H129        6.4338  -13.6143  -45.9769 H         1 UNK         0.0600 
    130 H130        4.7471  -13.8249  -48.8373 H         1 UNK         0.3000 
    131 H131        2.0498  -13.9580  -48.1153 H         1 UNK         0.0600 
    132 H132        1.6036  -12.9979  -50.4027 H         1 UNK         0.0800 
    133 H133        3.2947  -12.6101  -50.5631 H         1 UNK         0.0800 
    134 H134        0.9990  -15.6966  -49.5116 H         1 UNK         0.0800 
    135 H135        0.5465  -15.1113  -51.0947 H         1 UNK         0.0800 
    136 H136       -0.0028  -16.7144  -52.7604 H         1 UNK         0.1150 
    137 H137        1.0166  -20.8429  -52.2403 H         1 UNK         0.1150 
    138 H138        2.4747  -17.9114  -49.4718 H         1 UNK         0.1150 
    139 H139        2.5382  -21.5369  -50.5461 H         1 UNK         0.0800 
    140 H140        3.6703  -20.3066  -50.0531 H         1 UNK         0.0800 
    141 H141        0.5525  -22.2119  -49.4259 H         1 UNK         0.0800 
    142 H142       -0.2980  -21.0401  -48.4401 H         1 UNK         0.0800 
    143 H143        1.3094  -23.4347  -47.4356 H         1 UNK         0.0600 
    144 H144        0.3156  -21.2106  -45.9378 H         1 UNK         0.3000 
    145 H145        1.0998  -22.8232  -42.7788 H         1 UNK         0.0600 
    146 H146        2.3363  -20.6909  -42.6913 H         1 UNK         0.0600 
    147 H147        3.0727  -21.7504  -43.8843 H         1 UNK         0.0600 
    148 H148        2.0579  -20.4115  -44.4081 H         1 UNK         0.0600 
    149 H149       -0.1465  -20.3115  -43.3043 H         1 UNK         0.3000 
    150 H150       -3.5100  -21.4021  -42.6944 H         1 UNK         0.0600 
    151 H151       -2.4394  -21.0197  -40.4684 H         1 UNK         0.0600 
    152 H152       -3.3127  -19.5942  -41.0114 H         1 UNK         0.0600 
    153 H153       -1.5549  -19.6438  -41.1178 H         1 UNK         0.0600 
    154 H154       -2.4806  -18.8267  -43.2856 H         1 UNK         0.3000 
    155 H155       -2.7703  -19.0665  -46.8543 H         1 UNK         0.0600 
    156 H156       -4.1644  -17.4151  -44.6911 H         1 UNK         0.0600 
    157 H157       -4.1052  -17.0537  -46.4149 H         1 UNK         0.0600 
    158 H158       -4.9813  -18.4633  -45.8450 H         1 UNK         0.0600 
    159 H159       -1.7793  -16.9364  -45.3074 H         1 UNK         0.3000 
    160 H160        1.6722  -17.9950  -45.1995 H         1 UNK         0.0600 
    161 H161        1.8628  -15.6835  -46.1378 H         1 UNK         0.0600 
    162 H162        0.1784  -15.7482  -46.6518 H         1 UNK         0.0600 
    163 H163        1.3599  -16.8451  -47.3568 H         1 UNK         0.0600 
    164 H164        0.4361  -15.7034  -44.0901 H         1 UNK         0.3000 
    165 H165       -0.5449  -17.1181  -40.9488 H         1 UNK         0.0600 
    166 H166        0.8190  -15.1554  -40.2244 H         1 UNK         0.0600 
    167 H167        1.8384  -16.4985  -40.7189 H         1 UNK         0.0600 
    168 H168        1.6264  -15.1237  -41.7917 H         1 UNK         0.0600 
    169 H169       -0.7632  -14.5386  -42.2720 H         1 UNK         0.3000 
    170 H170       -4.0880  -15.0330  -43.4509 H         1 UNK         0.0600 
    171 H171       -3.0225  -13.3293  -41.1348 H         1 UNK         0.0600 
    172 H172       -4.5000  -13.0318  -42.0512 H         1 UNK         0.0600 
    173 H173       -4.3679  -14.4591  -41.0363 H         1 UNK         0.0600 
    174 H174       -2.3252  -12.7695  -43.4520 H         1 UNK         0.3000 
    175 H175       -0.7253  -13.5094  -46.5590 H         1 UNK         0.0600 
    176 H176       -1.7194  -11.3592  -47.2229 H         1 UNK         0.0600 
    177 H177       -2.8590  -11.4230  -45.8773 H         1 UNK         0.0600 
    178 H178       -2.9677  -12.5935  -47.1878 H         1 UNK         0.0600 
    179 H179       -0.3864  -11.1866  -45.1891 H         1 UNK         0.3000 
    180 H180        1.0592  -10.8356  -43.2221 H         1 UNK         0.0600 
    181 H181        3.1497  -13.0805  -43.0955 H         1 UNK         0.0600 
    182 H182        2.0449  -12.6206  -41.8034 H         1 UNK         0.0600 
    183 H183        3.2934  -11.5010  -42.3275 H         1 UNK         0.0600 
    184 H184        2.9763  -11.8516  -45.2825 H         1 UNK         0.3000 
    185 H185        2.2938   -9.1615  -47.4563 H         1 UNK         0.0600 
    186 H186        4.9179   -9.6204  -45.9337 H         1 UNK         0.0600 
    187 H187        4.7534   -8.8132  -47.4939 H         1 UNK         0.0600 
    188 H188        4.0617   -8.0876  -46.0517 H         1 UNK         0.0600 
    189 H189        4.1652  -11.3416  -47.5266 H         1 UNK         0.3000 
    190 H190       -1.8142  -22.8950  -46.0193 H         1 UNK         0.3000 
    191 H191       -3.3810  -24.6594  -47.6094 H         1 UNK         0.0600 
    192 H192       -4.4196  -23.1921  -45.9229 H         1 UNK         0.0600 
    193 H193       -4.7608  -24.8550  -45.4984 H         1 UNK         0.0600 
    194 H194       -3.5177  -23.9683  -44.6245 H         1 UNK         0.0600 
    195 H195       -0.8175  -25.3288  -45.2554 H         1 UNK         0.3000 
    196 H196       -1.4972  -28.1077  -44.8280 H         1 UNK         0.0600 
    197 H197        0.6788  -28.2165  -43.7127 H         1 UNK         0.0600 
    198 H198       -0.1255  -26.7335  -43.2191 H         1 UNK         0.0600 
    199 H199        1.1799  -26.6830  -44.4052 H         1 UNK         0.0600 
    200 H200        0.2574  -26.3341  -47.3044 H         1 UNK         0.3000 
    201 H201        1.3840  -28.7382  -48.5812 H         1 UNK         0.0600 
    202 H202        2.6260  -26.5976  -48.7620 H         1 UNK         0.0600 
    203 H203        1.2557  -25.8320  -49.5585 H         1 UNK         0.0600 
    204 H204        2.1010  -27.1568  -50.3416 H         1 UNK         0.0600 
    205 H205       -1.0480  -26.2300  -49.2942 H         1 UNK         0.3000 
    206 H206       -3.3380  -27.4229  -49.5277 H         1 UNK         0.0600 
    207 H207       -2.8140  -29.1319  -51.1964 H         1 UNK         0.0600 
    208 H208       -3.7472  -27.9174  -52.0313 H         1 UNK         0.0600 
    209 H209       -2.0023  -27.9645  -52.2449 H         1 UNK         0.0600 
    210 H210       -1.1536  -25.4711  -51.5251 H         1 UNK         0.3000 
    211 H211       -3.1848  -23.7286  -52.5863 H         1 UNK         0.0600 
    212 H212       -0.1266  -23.6227  -52.6928 H         1 UNK         0.0600 
    213 H213       -1.2073  -22.6051  -53.6352 H         1 UNK         0.0600 
    214 H214       -1.1955  -24.3412  -53.8994 H         1 UNK         0.0600 
    215 H215       -3.9749  -23.2630  -50.2954 H         1 UNK         0.3000 
    216 H216       -2.7991  -21.4364  -48.5367 H         1 UNK         0.0600 
    217 H217       -5.1401  -20.9779  -47.8367 H         1 UNK         0.0600 
    218 H218       -4.9201  -22.6977  -48.1276 H         1 UNK         0.0600 
    219 H219       -5.7532  -21.7117  -49.3175 H         1 UNK         0.0600 
    220 H220       -2.2279  -19.3817  -48.6969 H         1 UNK         0.3000 
    221 H221       -1.8702  -17.9430  -50.8828 H         1 UNK         0.0600 
    222 H222       -2.2855  -16.8128  -48.0757 H         1 UNK         0.0600 
    223 H223       -0.7893  -17.4929  -48.7214 H         1 UNK         0.0600 
    224 H224       -1.4470  -16.0027  -49.3834 H         1 UNK         0.0600 
    225 H225       -3.2572  -17.4152  -52.3887 H         1 UNK         0.3000 
    226 H226       -4.7619  -16.3974  -53.6065 H         1 UNK         0.0600 
    227 H227       -4.0183  -14.3072  -52.4388 H         1 UNK         0.0600 
    228 H228       -5.6959  -14.2209  -52.9462 H         1 UNK         0.0600 
    229 H229       -5.3110  -14.5113  -51.2569 H         1 UNK         0.0600 
    230 H230       -5.6073  -18.4894  -51.3964 H         1 UNK         0.3000 
    231 H231       -8.5757  -18.2067  -51.7120 H         1 UNK         0.0600 
    232 H232       -6.9090  -19.6547  -49.5903 H         1 UNK         0.0600 
    233 H233       -8.6663  -19.6755  -49.6934 H         1 UNK         0.0600 
    234 H234       -7.8231  -18.1691  -49.3620 H         1 UNK         0.0600 
    235 H235       -5.7663  -20.4173  -52.0154 H         1 UNK         0.3000 
    236 H236       -7.3657  -22.1795  -53.8133 H         1 UNK         0.0600 
    237 H237       -7.4129  -23.1843  -51.5377 H         1 UNK         0.0600 
    238 H238       -6.4416  -24.1628  -52.6234 H         1 UNK         0.0600 
    239 H239       -5.6573  -23.1122  -51.4530 H         1 UNK         0.0600 
    240 H240       -5.0810  -20.0679  -54.0349 H         1 UNK         0.3000 
    241 H241       -2.8495  -21.5511  -55.1068 H         1 UNK         0.0600 
    242 H242       -5.9518  -20.9329  -56.5784 H         1 UNK         0.3800 
    243 H243       -5.4244  -21.2309  -58.2127 H         1 UNK         0.3800 
    244 H244       -2.0554  -19.3134  -55.9346 H         1 UNK         0.0800 
    245 H245       -3.5541  -18.5955  -55.4132 H         1 UNK         0.0800 
    246 H246       -0.1583  -18.4399  -54.6616 H         1 UNK         0.0800 
    247 H247       -0.0933  -20.1421  -54.2597 H         1 UNK         0.0800 
@<TRIPOS>BOND
     1    1    2 1    
     2    1  127 1    
     3    1  128 1    
     4    1  129 1    
     5    2    3 2    
     6    2    4 am   BACKBONE|DICT|INTERRES
     7    4    5 1    
     8    4  130 1    
     9    5    6 1    
    10    5   65 1    
    11    5  131 1    
    12    6    7 1    
    13    6  132 1    
    14    6  133 1    
    15    7    8 1    
    16    8    9 1    
    17    8  134 1    
    18    8  135 1    
    19    9   10 ar   
    20    9   14 ar   
    21   10   11 ar   
    22   10  136 1    
    23   11   12 ar   
    24   11  126 1    
    25   12   13 ar   
    26   12  137 1    
    27   13   14 ar   
    28   13   15 1    
    29   14  138 1    
    30   15   16 1    
    31   15  139 1    
    32   15  140 1    
    33   16   17 1    
    34   17   18 1    
    35   17  141 1    
    36   17  142 1    
    37   18   19 1    
    38   18   67 1    
    39   18  143 1    
    40   19   20 am   BACKBONE|DICT|INTERRES
    41   19  144 1    
    42   20   21 2    
    43   20   22 1    
    44   22   23 1    
    45   22   24 1    
    46   22  145 1    
    47   23  146 1    
    48   23  147 1    
    49   23  148 1    
    50   24   25 am   BACKBONE|DICT|INTERRES
    51   24  149 1    
    52   25   26 2    
    53   25   27 1    
    54   27   28 1    
    55   27   29 1    
    56   27  150 1    
    57   28  151 1    
    58   28  152 1    
    59   28  153 1    
    60   29   30 am   BACKBONE|DICT|INTERRES
    61   29  154 1    
    62   30   31 2    
    63   30   32 1    
    64   32   33 1    
    65   32   34 1    
    66   32  155 1    
    67   33  156 1    
    68   33  157 1    
    69   33  158 1    
    70   34   35 am   BACKBONE|DICT|INTERRES
    71   34  159 1    
    72   35   36 2    
    73   35   37 1    
    74   37   38 1    
    75   37   39 1    
    76   37  160 1    
    77   38  161 1    
    78   38  162 1    
    79   38  163 1    
    80   39   40 am   BACKBONE|DICT|INTERRES
    81   39  164 1    
    82   40   41 2    
    83   40   42 1    
    84   42   43 1    
    85   42   44 1    
    86   42  165 1    
    87   43  166 1    
    88   43  167 1    
    89   43  168 1    
    90   44   45 am   BACKBONE|DICT|INTERRES
    91   44  169 1    
    92   45   46 2    
    93   45   47 1    
    94   47   48 1    
    95   47   49 1    
    96   47  170 1    
    97   48  171 1    
    98   48  172 1    
    99   48  173 1    
   100   49   50 am   BACKBONE|DICT|INTERRES
   101   49  174 1    
   102   50   51 2    
   103   50   52 1    
   104   52   53 1    
   105   52   54 1    
   106   52  175 1    
   107   53  176 1    
   108   53  177 1    
   109   53  178 1    
   110   54   55 am   BACKBONE|DICT|INTERRES
   111   54  179 1    
   112   55   56 2    
   113   55   57 1    
   114   57   58 1    
   115   57   59 1    
   116   57  180 1    
   117   58  181 1    
   118   58  182 1    
   119   58  183 1    
   120   59   60 am   BACKBONE|DICT|INTERRES
   121   59  184 1    
   122   60   61 2    
   123   60   62 1    
   124   62   63 1    
   125   62   64 1    
   126   62  185 1    
   127   63  186 1    
   128   63  187 1    
   129   63  188 1    
   130   64   65 am   BACKBONE|DICT|INTERRES
   131   64  189 1    
   132   65   66 2    
   133   67   68 2    
   134   67   69 am   BACKBONE|DICT|INTERRES
   135   69   70 1    
   136   69  190 1    
   137   70   71 1    
   138   70   72 1    
   139   70  191 1    
   140   71  192 1    
   141   71  193 1    
   142   71  194 1    
   143   72   73 2    
   144   72   74 am   BACKBONE|DICT|INTERRES
   145   74   75 1    
   146   74  195 1    
   147   75   76 1    
   148   75   77 1    
   149   75  196 1    
   150   76  197 1    
   151   76  198 1    
   152   76  199 1    
   153   77   78 2    
   154   77   79 am   BACKBONE|DICT|INTERRES
   155   79   80 1    
   156   79  200 1    
   157   80   81 1    
   158   80   82 1    
   159   80  201 1    
   160   81  202 1    
   161   81  203 1    
   162   81  204 1    
   163   82   83 2    
   164   82   84 am   BACKBONE|DICT|INTERRES
   165   84   85 1    
   166   84  205 1    
   167   85   86 1    
   168   85   87 1    
   169   85  206 1    
   170   86  207 1    
   171   86  208 1    
   172   86  209 1    
   173   87   88 2    
   174   87   89 am   BACKBONE|DICT|INTERRES
   175   89   90 1    
   176   89  210 1    
   177   90   91 1    
   178   90   92 1    
   179   90  211 1    
   180   91  212 1    
   181   91  213 1    
   182   91  214 1    
   183   92   93 2    
   184   92   94 am   BACKBONE|DICT|INTERRES
   185   94   95 1    
   186   94  215 1    
   187   95   96 1    
   188   95   97 1    
   189   95  216 1    
   190   96  217 1    
   191   96  218 1    
   192   96  219 1    
   193   97   98 2    
   194   97   99 am   BACKBONE|DICT|INTERRES
   195   99  100 1    
   196   99  220 1    
   197  100  101 1    
   198  100  102 1    
   199  100  221 1    
   200  101  222 1    
   201  101  223 1    
   202  101  224 1    
   203  102  103 2    
   204  102  104 am   BACKBONE|DICT|INTERRES
   205  104  105 1    
   206  104  225 1    
   207  105  106 1    
   208  105  107 1    
   209  105  226 1    
   210  106  227 1    
   211  106  228 1    
   212  106  229 1    
   213  107  108 2    
   214  107  109 am   BACKBONE|DICT|INTERRES
   215  109  110 1    
   216  109  230 1    
   217  110  111 1    
   218  110  112 1    
   219  110  231 1    
   220  111  232 1    
   221  111  233 1    
   222  111  234 1    
   223  112  113 2    
   224  112  114 am   BACKBONE|DICT|INTERRES
   225  114  115 1    
   226  114  235 1    
   227  115  116 1    
   228  115  117 1    
   229  115  236 1    
   230  116  237 1    
   231  116  238 1    
   232  116  239 1    
   233  117  118 2    
   234  117  119 am   BACKBONE|DICT|INTERRES
   235  119  120 1    
   236  119  240 1    
   237  120  121 1    
   238  120  124 1    
   239  120  241 1    
   240  121  122 am   BACKBONE|DICT|INTERRES
   241  121  123 2    
   242  122  242 1    
   243  122  243 1    
   244  124  125 1    
   245  124  244 1    
   246  124  245 1    
   247  125  126 1    
   248  126  246 1    
   249  126  247 1    
@<TRIPOS>SUBSTRUCTURE
     1 UNK         1 GROUP             0       ****    0 ROOT    
