@<TRIPOS>MOLECULE
3R540
247   249    1
SMALL
USER_CHARGES


@<TRIPOS>ATOM
      1 CA         -0.3628  -13.4014  -54.9184 C.3       0 UNK        -0.1800 
      2 C          -0.1308  -12.8569  -53.5160 C.2       0 UNK         0.5000 
      3 O           0.3514  -11.7331  -53.3667 O.2       0 UNK        -0.5000 
      4 N          -0.4658  -13.6468  -52.4900 N.am      1 UNK        -0.5000 
      5 CA         -0.3417  -13.3020  -51.0721 C.3       1 UNK         0.1400 
      6 C6         -0.3165  -14.5550  -50.1620 C.3       23 UNK        -0.0398 
      7 S7          1.0732  -15.6785  -50.5154 S.3       23 UNK        -0.2404 
      8 C8          0.2646  -17.2773  -50.2124 C.3       23 UNK        -0.0205 
      9 C9          1.2596  -18.4213  -50.2748 C.ar      23 UNK        -0.0193 
     10 C10         1.6605  -18.9364  -51.5108 C.ar      23 UNK        -0.1150 
     11 C11         2.5842  -19.9836  -51.5756 C.ar      23 UNK        -0.0193 
     12 C12         3.0932  -20.5238  -50.3903 C.ar      23 UNK        -0.1150 
     13 C13         2.7037  -20.0121  -49.1487 C.ar      23 UNK        -0.0193 
     14 C14         1.7857  -18.9600  -49.0975 C.ar      23 UNK        -0.1150 
     15 C15         3.2907  -20.5819  -47.8643 C.3       23 UNK        -0.0205 
     16 S16         2.0488  -21.4582  -46.8650 S.3       23 UNK        -0.2404 
     17 C17         1.4759  -22.7212  -48.0449 C.3       23 UNK        -0.0398 
     18 CA          0.7931  -23.9502  -47.4015 C.3       11 UNK         0.1400 
     19 N           1.6428  -24.6501  -46.4335 N.am      11 UNK        -0.5000 
     20 C           1.4749  -25.9365  -46.0964 C.2       10 UNK         0.5000 
     21 O           0.5801  -26.6488  -46.5525 O.2       10 UNK        -0.5000 
     22 CA          2.4461  -26.5134  -45.0524 C.3       10 UNK         0.1400 
     23 CB          3.8520  -26.6905  -45.6464 C.3       10 UNK        -0.1800 
     24 N           2.5261  -25.6962  -43.8424 N.am      10 UNK        -0.5000 
     25 C           1.5089  -25.4909  -42.9941 C.2       9 UNK         0.5000 
     26 O           0.3820  -25.9587  -43.1487 O.2       9 UNK        -0.5000 
     27 CA          1.7870  -24.5820  -41.7827 C.3       9 UNK         0.1400 
     28 CB          2.3486  -25.4028  -40.6122 C.3       9 UNK        -0.1800 
     29 N           2.6924  -23.4666  -42.0719 N.am      9 UNK        -0.5000 
     30 C           2.4557  -22.5125  -42.9811 C.2       8 UNK         0.5000 
     31 O           1.4796  -22.5156  -43.7348 O.2       8 UNK        -0.5000 
     32 CA          3.5061  -21.3912  -43.0809 C.3       8 UNK         0.1400 
     33 CB          4.6427  -21.7968  -44.0327 C.3       8 UNK        -0.1800 
     34 N           2.9089  -20.1395  -43.5471 N.am      8 UNK        -0.5000 
     35 C           2.0939  -19.3774  -42.8082 C.2       7 UNK         0.5000 
     36 O           1.8379  -19.5990  -41.6199 O.2       7 UNK        -0.5000 
     37 CA          1.4585  -18.1675  -43.5118 C.3       7 UNK         0.1400 
     38 CB          0.4494  -18.6115  -44.5870 C.3       7 UNK        -0.1800 
     39 N           0.7905  -17.3477  -42.5058 N.am      7 UNK        -0.5000 
     40 C           0.4048  -16.0783  -42.6510 C.2       6 UNK         0.5000 
     41 O           0.5665  -15.4196  -43.6831 O.2       6 UNK        -0.5000 
     42 CA         -0.2671  -15.4324  -41.4310 C.3       6 UNK         0.1400 
     43 CB          0.7743  -14.9324  -40.4153 C.3       6 UNK        -0.1800 
     44 N          -1.0749  -14.3136  -41.8967 N.am      6 UNK        -0.5000 
     45 C          -2.2210  -13.8862  -41.3575 C.2       5 UNK         0.5000 
     46 O          -2.6999  -14.3424  -40.3183 O.2       5 UNK        -0.5000 
     47 CA         -2.9662  -12.7641  -42.1091 C.3       5 UNK         0.1400 
     48 CB         -2.7104  -11.4046  -41.4404 C.3       5 UNK        -0.1800 
     49 N          -2.5972  -12.6691  -43.5240 N.am      5 UNK        -0.5000 
     50 C          -2.9320  -13.5474  -44.4767 C.2       4 UNK         0.5000 
     51 O          -3.6454  -14.5302  -44.2673 O.2       4 UNK        -0.5000 
     52 CA         -2.3818  -13.2644  -45.8937 C.3       4 UNK         0.1400 
     53 CB         -2.7040  -14.4031  -46.8797 C.3       4 UNK        -0.1800 
     54 N          -2.8713  -11.9994  -46.4532 N.am      4 UNK        -0.5000 
     55 C          -2.5132  -10.7680  -46.0603 C.2       3 UNK         0.5000 
     56 O          -1.6858  -10.5525  -45.1712 O.2       3 UNK        -0.5000 
     57 CA         -3.1979   -9.5937  -46.7947 C.3       3 UNK         0.1400 
     58 CB         -2.6999   -8.2106  -46.3238 C.3       3 UNK        -0.1800 
     59 N          -3.1081   -9.7106  -48.2557 N.am      3 UNK        -0.5000 
     60 C          -1.9866   -9.7723  -48.9879 C.2       2 UNK         0.5000 
     61 O          -0.8461   -9.6913  -48.5247 O.2       2 UNK        -0.5000 
     62 CA         -2.1679   -9.9659  -50.5057 C.3       2 UNK         0.1400 
     63 CB         -1.8322   -8.6758  -51.2692 C.3       2 UNK        -0.1800 
     64 N          -1.3112  -11.0482  -50.9864 N.am      2 UNK        -0.5000 
     65 C          -1.4672  -12.3340  -50.6515 C.2       1 UNK         0.5000 
     66 O          -2.4536  -12.7563  -50.0450 O.2       1 UNK        -0.5000 
     67 C          -0.6072  -23.6342  -46.8382 C.2       11 UNK         0.5000 
     68 O          -1.5590  -23.5625  -47.6171 O.2       11 UNK        -0.5000 
     69 N          -0.7295  -23.4961  -45.5101 N.am      12 UNK        -0.5000 
     70 CA         -2.0105  -23.4078  -44.8113 C.3       12 UNK         0.1400 
     71 CB         -1.7863  -22.9731  -43.3560 C.3       12 UNK        -0.1800 
     72 C          -2.7991  -24.7276  -44.8899 C.2       12 UNK         0.5000 
     73 O          -3.9731  -24.7045  -45.2589 O.2       12 UNK        -0.5000 
     74 N          -2.1352  -25.8555  -44.5933 N.am      13 UNK        -0.5000 
     75 CA         -2.7093  -27.2033  -44.6596 C.3       13 UNK         0.1400 
     76 CB         -1.7302  -28.2142  -44.0444 C.3       13 UNK        -0.1800 
     77 C          -3.0967  -27.6289  -46.0876 C.2       13 UNK         0.5000 
     78 O          -4.1314  -28.2709  -46.2708 O.2       13 UNK        -0.5000 
     79 N          -2.2803  -27.2361  -47.0749 N.am      14 UNK        -0.5000 
     80 CA         -2.5331  -27.4524  -48.5018 C.3       14 UNK         0.1400 
     81 CB         -1.2180  -27.2507  -49.2711 C.3       14 UNK        -0.1800 
     82 C          -3.6316  -26.5377  -49.0840 C.2       14 UNK         0.5000 
     83 O          -4.0631  -26.7707  -50.2131 O.2       14 UNK        -0.5000 
     84 N          -4.0309  -25.5009  -48.3301 N.am      15 UNK        -0.5000 
     85 CA         -4.9672  -24.4273  -48.6874 C.3       15 UNK         0.1400 
     86 CB         -6.3692  -24.9802  -49.0138 C.3       15 UNK        -0.1800 
     87 C          -4.4375  -23.4749  -49.7812 C.2       15 UNK         0.5000 
     88 O          -5.1950  -22.6528  -50.2951 O.2       15 UNK        -0.5000 
     89 N          -3.1345  -23.5514  -50.0763 N.am      16 UNK        -0.5000 
     90 CA         -2.4078  -22.6683  -50.9856 C.3       16 UNK         0.1400 
     91 CB         -1.0028  -23.2495  -51.2103 C.3       16 UNK        -0.1800 
     92 C          -2.3364  -21.2260  -50.4536 C.2       16 UNK         0.5000 
     93 O          -2.4741  -20.2781  -51.2283 O.2       16 UNK        -0.5000 
     94 N          -2.1754  -21.0905  -49.1297 N.am      17 UNK        -0.5000 
     95 CA         -2.2124  -19.8066  -48.4326 C.3       17 UNK         0.1400 
     96 CB         -1.6599  -19.9715  -47.0131 C.3       17 UNK        -0.1800 
     97 C          -3.6258  -19.2016  -48.3917 C.2       17 UNK         0.5000 
     98 O          -3.7670  -17.9875  -48.5299 O.2       17 UNK        -0.5000 
     99 N          -4.6428  -20.0615  -48.2327 N.am      18 UNK        -0.5000 
    100 CA        -6.0587  -19.6863  -48.2260 C.3       18 UNK         0.1400 
    101 CB        -6.8979  -20.8576  -47.6923 C.3       18 UNK        -0.1800 
    102 C         -6.5514  -19.2412  -49.6150 C.2       18 UNK         0.5000 
    103 O         -7.3295  -18.2918  -49.7101 O.2       18 UNK        -0.5000 
    104 N         -6.0571  -19.9096  -50.6666 N.am      19 UNK        -0.5000 
    105 CA        -6.2728  -19.5492  -52.0687 C.3       19 UNK         0.1400 
    106 CB        -5.8118  -20.7144  -52.9582 C.3       19 UNK        -0.1800 
    107 C         -5.5510  -18.2512  -52.4817 C.2       19 UNK         0.5000 
    108 O         -5.9318  -17.6464  -53.4840 O.2       19 UNK        -0.5000 
    109 N         -4.5090  -17.8677  -51.7283 N.am      20 UNK        -0.5000 
    110 CA        -3.6378  -16.6905  -51.8514 C.3       20 UNK         0.1400 
    111 CB        -4.4389  -15.3812  -51.7409 C.3       20 UNK        -0.1800 
    112 C         -2.7290  -16.6805  -53.0956 C.2       20 UNK         0.5000 
    113 O         -1.6116  -16.1740  -53.0174 O.2       20 UNK        -0.5000 
    114 N         -3.1930  -17.2599  -54.2058 N.am      21 UNK        -0.5000 
    115 CA        -2.4651  -17.4273  -55.4637 C.3       21 UNK         0.1400 
    116 CB        -3.4947  -17.5143  -56.6030 C.3       21 UNK        -0.1800 
    117 C         -1.5236  -18.6523  -55.4700 C.2       21 UNK         0.5000 
    118 O         -0.9641  -18.9691  -56.5210 O.2       21 UNK        -0.5000 
    119 N         -1.3708  -19.3238  -54.3203 N.am      22 UNK        -0.5000 
    120 CA        -0.6731  -20.6050  -54.1437 C.3       22 UNK         0.1400 
    121 C         -1.4985  -21.8160  -54.6820 C.2       22 UNK         0.5000 
    122 N         -0.9009  -22.9939  -54.7981 N.am      22 UNK        -0.7600 
    123 O         -2.6918  -21.7156  -54.9593 O.2       22 UNK        -0.5000 
    124 C124        0.8055  -20.5700  -54.6325 C.3       23 UNK        -0.0398 
    125 S125        1.9081  -21.6752  -53.6800 S.3       23 UNK        -0.2404 
    126 C126        3.0743  -20.5026  -52.9197 C.3       23 UNK        -0.0205 
    127 H127        0.5684  -13.3888  -55.4847 H         1 UNK         0.0600 
    128 H128       -1.0923  -12.7854  -55.4440 H         1 UNK         0.0600 
    129 H129       -0.7330  -14.4261  -54.8993 H         1 UNK         0.0600 
    130 H130       -0.8495  -14.5713  -52.6809 H         1 UNK         0.3000 
    131 H131        0.6068  -12.7799  -50.9276 H         1 UNK         0.0600 
    132 H132       -1.2552  -15.1043  -50.2508 H         1 UNK         0.0800 
    133 H133       -0.2306  -14.2594  -49.1151 H         1 UNK         0.0800 
    134 H134       -0.2167  -17.2472  -49.2340 H         1 UNK         0.0800 
    135 H135       -0.5249  -17.4415  -50.9458 H         1 UNK         0.0800 
    136 H136        1.2647  -18.5066  -52.4199 H         1 UNK         0.1150 
    137 H137        3.8097  -21.3320  -50.4357 H         1 UNK         0.1150 
    138 H138        1.4840  -18.5614  -48.1389 H         1 UNK         0.1150 
    139 H139        4.1171  -21.2605  -48.0809 H         1 UNK         0.0800 
    140 H140        3.7113  -19.7684  -47.2718 H         1 UNK         0.0800 
    141 H141        2.3339  -23.0603  -48.6267 H         1 UNK         0.0800 
    142 H142        0.8078  -22.2376  -48.7593 H         1 UNK         0.0800 
    143 H143        0.6200  -24.6467  -48.2240 H         1 UNK         0.0600 
    144 H144        2.3588  -24.1011  -45.9802 H         1 UNK         0.3000 
    145 H145        2.0736  -27.4994  -44.7659 H         1 UNK         0.0600 
    146 H146        4.5157  -27.1931  -44.9427 H         1 UNK         0.0600 
    147 H147        3.8193  -27.2990  -46.5512 H         1 UNK         0.0600 
    148 H148        4.3056  -25.7342  -45.9098 H         1 UNK         0.0600 
    149 H149        3.4136  -25.2607  -43.6406 H         1 UNK         0.3000 
    150 H150        0.8323  -24.1556  -41.4688 H         1 UNK         0.0600 
    151 H151        3.3253  -25.8268  -40.8487 H         1 UNK         0.0600 
    152 H152        1.6835  -26.2304  -40.3612 H         1 UNK         0.0600 
    153 H153        2.4552  -24.7912  -39.7161 H         1 UNK         0.0600 
    154 H154        3.5224  -23.4033  -41.5003 H         1 UNK         0.3000 
    155 H155        3.9308  -21.2210  -42.0892 H         1 UNK         0.0600 
    156 H156        4.2773  -22.0080  -45.0373 H         1 UNK         0.0600 
    157 H157        5.1498  -22.6941  -43.6760 H         1 UNK         0.0600 
    158 H158        5.3936  -21.0102  -44.1082 H         1 UNK         0.0600 
    159 H159        3.0174  -19.9339  -44.5291 H         1 UNK         0.3000 
    160 H160        2.2567  -17.5832  -43.9742 H         1 UNK         0.0600 
    161 H161        0.9398  -19.1867  -45.3710 H         1 UNK         0.0600 
    162 H162       -0.0231  -17.7567  -45.0705 H         1 UNK         0.0600 
    163 H163       -0.3379  -19.2369  -44.1643 H         1 UNK         0.0600 
    164 H164        0.6797  -17.8185  -41.6153 H         1 UNK         0.3000 
    165 H165       -0.9107  -16.1785  -40.9598 H         1 UNK         0.0600 
    166 H166        0.2934  -14.4808  -39.5474 H         1 UNK         0.0600 
    167 H167        1.3941  -15.7532  -40.0524 H         1 UNK         0.0600 
    168 H168        1.4382  -14.1874  -40.8556 H         1 UNK         0.0600 
    169 H169       -0.7725  -13.9254  -42.7810 H         1 UNK         0.3000 
    170 H170       -4.0348  -12.9808  -42.0477 H         1 UNK         0.0600 
    171 H171       -3.2858  -10.6137  -41.9220 H         1 UNK         0.0600 
    172 H172       -3.0019  -11.4241  -40.3894 H         1 UNK         0.0600 
    173 H173       -1.6564  -11.1275  -41.4846 H         1 UNK         0.0600 
    174 H174       -2.0563  -11.8565  -43.8075 H         1 UNK         0.3000 
    175 H175       -1.2949  -13.2022  -45.8082 H         1 UNK         0.0600 
    176 H176       -2.3214  -15.3582  -46.5168 H         1 UNK         0.0600 
    177 H177       -3.7781  -14.5152  -47.0321 H         1 UNK         0.0600 
    178 H178       -2.2486  -14.2251  -47.8515 H         1 UNK         0.0600 
    179 H179       -3.5463  -12.0822  -47.1999 H         1 UNK         0.3000 
    180 H180       -4.2580   -9.6579  -46.5448 H         1 UNK         0.0600 
    181 H181       -1.6325   -8.0782  -46.5027 H         1 UNK         0.0600 
    182 H182       -2.8695   -8.0790  -45.2545 H         1 UNK         0.0600 
    183 H183       -3.2275   -7.4064  -46.8365 H         1 UNK         0.0600 
    184 H184       -3.9932   -9.7988  -48.7357 H         1 UNK         0.3000 
    185 H185       -3.2065  -10.2305  -50.7159 H         1 UNK         0.0600 
    186 H186       -0.7966   -8.3717  -51.1113 H         1 UNK         0.0600 
    187 H187       -1.9851   -8.8010  -52.3414 H         1 UNK         0.0600 
    188 H188       -2.4697   -7.8530  -50.9431 H         1 UNK         0.0600 
    189 H189       -0.5017  -10.7882  -51.5357 H         1 UNK         0.3000 
    190 H190        0.1078  -23.4731  -44.9371 H         1 UNK         0.3000 
    191 H191       -2.6123  -22.6395  -45.2986 H         1 UNK         0.0600 
    192 H192       -1.2837  -22.0066  -43.3082 H         1 UNK         0.0600 
    193 H193       -2.7351  -22.8741  -42.8275 H         1 UNK         0.0600 
    194 H194       -1.1785  -23.6925  -42.8083 H         1 UNK         0.0600 
    195 H195       -1.1748  -25.7946  -44.2653 H         1 UNK         0.3000 
    196 H196       -3.6203  -27.2058  -44.0576 H         1 UNK         0.0600 
    197 H197       -2.1351  -29.2263  -44.0825 H         1 UNK         0.0600 
    198 H198       -1.5326  -27.9833  -42.9975 H         1 UNK         0.0600 
    199 H199       -0.7753  -28.2208  -44.5716 H         1 UNK         0.0600 
    200 H200       -1.4041  -26.7846  -46.8303 H         1 UNK         0.3000 
    201 H201       -2.8571  -28.4855  -48.6430 H         1 UNK         0.0600 
    202 H202       -1.3468  -27.4645  -50.3329 H         1 UNK         0.0600 
    203 H203       -0.4366  -27.9143  -48.9001 H         1 UNK         0.0600 
    204 H204       -0.8575  -26.2258  -49.1852 H         1 UNK         0.0600 
    205 H205       -3.6116  -25.4051  -47.4137 H         1 UNK         0.3000 
    206 H206       -5.0627  -23.8159  -47.7891 H         1 UNK         0.0600 
    207 H207       -6.7238  -25.6447  -48.2259 H         1 UNK         0.0600 
    208 H208       -7.0960  -24.1725  -49.1067 H         1 UNK         0.0600 
    209 H209       -6.3811  -25.5337  -49.9528 H         1 UNK         0.0600 
    210 H210       -2.5761  -24.1903  -49.5276 H         1 UNK         0.3000 
    211 H211       -2.9340  -22.6441  -51.9421 H         1 UNK         0.0600 
    212 H212       -0.5043  -23.4751  -50.2689 H         1 UNK         0.0600 
    213 H213       -0.3612  -22.5603  -51.7566 H         1 UNK         0.0600 
    214 H214       -1.0521  -24.1733  -51.7868 H         1 UNK         0.0600 
    215 H215       -2.0595  -21.9271  -48.5656 H         1 UNK         0.3000 
    216 H216       -1.5671  -19.1124  -48.9706 H         1 UNK         0.0600 
    217 H217       -1.6597  -19.0164  -46.4878 H         1 UNK         0.0600 
    218 H218       -0.6347  -20.3366  -47.0299 H         1 UNK         0.0600 
    219 H219       -2.2568  -20.6674  -46.4254 H         1 UNK         0.0600 
    220 H220       -4.4326  -21.0440  -48.1528 H         1 UNK         0.3000 
    221 H221       -6.1814  -18.8427  -47.5432 H         1 UNK         0.0600 
    222 H222       -6.8320  -21.7325  -48.3388 H         1 UNK         0.0600 
    223 H223       -6.5761  -21.1524  -46.6933 H         1 UNK         0.0600 
    224 H224       -7.9508  -20.5810  -47.6256 H         1 UNK         0.0600 
    225 H225       -5.5026  -20.7438  -50.4973 H         1 UNK         0.3000 
    226 H226       -7.3428  -19.3978  -52.2241 H         1 UNK         0.0600 
    227 H227       -5.9831  -20.4961  -54.0130 H         1 UNK         0.0600 
    228 H228       -4.7470  -20.9174  -52.8352 H         1 UNK         0.0600 
    229 H229       -6.3554  -21.6296  -52.7233 H         1 UNK         0.0600 
    230 H230       -4.2649  -18.4834  -50.9643 H         1 UNK         0.3000 
    231 H231       -2.9726  -16.7371  -50.9884 H         1 UNK         0.0600 
    232 H232       -5.1345  -15.2552  -52.5707 H         1 UNK         0.0600 
    233 H233       -3.7729  -14.5176  -51.7425 H         1 UNK         0.0600 
    234 H234       -5.0102  -15.3481  -50.8131 H         1 UNK         0.0600 
    235 H235       -4.1487  -17.6020  -54.1825 H         1 UNK         0.3000 
    236 H236       -1.8453  -16.5450  -55.6335 H         1 UNK         0.0600 
    237 H237       -4.1404  -16.6360  -56.6187 H         1 UNK         0.0600 
    238 H238       -3.0049  -17.5710  -57.5758 H         1 UNK         0.0600 
    239 H239       -4.1294  -18.3956  -56.5015 H         1 UNK         0.0600 
    240 H240       -1.9037  -19.0140  -53.5205 H         1 UNK         0.3000 
    241 H241       -0.6533  -20.7272  -53.0631 H         1 UNK         0.0600 
    242 H242        0.0752  -23.1041  -54.5658 H         1 UNK         0.3800 
    243 H243       -1.4282  -23.7837  -55.1356 H         1 UNK         0.3800 
    244 H244        0.8716  -20.8329  -55.6896 H         1 UNK         0.0800 
    245 H245        1.1933  -19.5535  -54.5673 H         1 UNK         0.0800 
    246 H246        4.0305  -21.0121  -52.7908 H         1 UNK         0.0800 
    247 H247        3.2761  -19.6696  -53.5945 H         1 UNK         0.0800 
@<TRIPOS>BOND
     1    1    2 1    
     2    1  127 1    
     3    1  128 1    
     4    1  129 1    
     5    2    3 2    
     6    2    4 am   BACKBONE|DICT|INTERRES
     7    4    5 1    
     8    4  130 1    
     9    5    6 1    
    10    5   65 1    
    11    5  131 1    
    12    6    7 1    
    13    6  132 1    
    14    6  133 1    
    15    7    8 1    
    16    8    9 1    
    17    8  134 1    
    18    8  135 1    
    19    9   10 ar   
    20    9   14 ar   
    21   10   11 ar   
    22   10  136 1    
    23   11   12 ar   
    24   11  126 1    
    25   12   13 ar   
    26   12  137 1    
    27   13   14 ar   
    28   13   15 1    
    29   14  138 1    
    30   15   16 1    
    31   15  139 1    
    32   15  140 1    
    33   16   17 1    
    34   17   18 1    
    35   17  141 1    
    36   17  142 1    
    37   18   19 1    
    38   18   67 1    
    39   18  143 1    
    40   19   20 am   BACKBONE|DICT|INTERRES
    41   19  144 1    
    42   20   21 2    
    43   20   22 1    
    44   22   23 1    
    45   22   24 1    
    46   22  145 1    
    47   23  146 1    
    48   23  147 1    
    49   23  148 1    
    50   24   25 am   BACKBONE|DICT|INTERRES
    51   24  149 1    
    52   25   26 2    
    53   25   27 1    
    54   27   28 1    
    55   27   29 1    
    56   27  150 1    
    57   28  151 1    
    58   28  152 1    
    59   28  153 1    
    60   29   30 am   BACKBONE|DICT|INTERRES
    61   29  154 1    
    62   30   31 2    
    63   30   32 1    
    64   32   33 1    
    65   32   34 1    
    66   32  155 1    
    67   33  156 1    
    68   33  157 1    
    69   33  158 1    
    70   34   35 am   BACKBONE|DICT|INTERRES
    71   34  159 1    
    72   35   36 2    
    73   35   37 1    
    74   37   38 1    
    75   37   39 1    
    76   37  160 1    
    77   38  161 1    
    78   38  162 1    
    79   38  163 1    
    80   39   40 am   BACKBONE|DICT|INTERRES
    81   39  164 1    
    82   40   41 2    
    83   40   42 1    
    84   42   43 1    
    85   42   44 1    
    86   42  165 1    
    87   43  166 1    
    88   43  167 1    
    89   43  168 1    
    90   44   45 am   BACKBONE|DICT|INTERRES
    91   44  169 1    
    92   45   46 2    
    93   45   47 1    
    94   47   48 1    
    95   47   49 1    
    96   47  170 1    
    97   48  171 1    
    98   48  172 1    
    99   48  173 1    
   100   49   50 am   BACKBONE|DICT|INTERRES
   101   49  174 1    
   102   50   51 2    
   103   50   52 1    
   104   52   53 1    
   105   52   54 1    
   106   52  175 1    
   107   53  176 1    
   108   53  177 1    
   109   53  178 1    
   110   54   55 am   BACKBONE|DICT|INTERRES
   111   54  179 1    
   112   55   56 2    
   113   55   57 1    
   114   57   58 1    
   115   57   59 1    
   116   57  180 1    
   117   58  181 1    
   118   58  182 1    
   119   58  183 1    
   120   59   60 am   BACKBONE|DICT|INTERRES
   121   59  184 1    
   122   60   61 2    
   123   60   62 1    
   124   62   63 1    
   125   62   64 1    
   126   62  185 1    
   127   63  186 1    
   128   63  187 1    
   129   63  188 1    
   130   64   65 am   BACKBONE|DICT|INTERRES
   131   64  189 1    
   132   65   66 2    
   133   67   68 2    
   134   67   69 am   BACKBONE|DICT|INTERRES
   135   69   70 1    
   136   69  190 1    
   137   70   71 1    
   138   70   72 1    
   139   70  191 1    
   140   71  192 1    
   141   71  193 1    
   142   71  194 1    
   143   72   73 2    
   144   72   74 am   BACKBONE|DICT|INTERRES
   145   74   75 1    
   146   74  195 1    
   147   75   76 1    
   148   75   77 1    
   149   75  196 1    
   150   76  197 1    
   151   76  198 1    
   152   76  199 1    
   153   77   78 2    
   154   77   79 am   BACKBONE|DICT|INTERRES
   155   79   80 1    
   156   79  200 1    
   157   80   81 1    
   158   80   82 1    
   159   80  201 1    
   160   81  202 1    
   161   81  203 1    
   162   81  204 1    
   163   82   83 2    
   164   82   84 am   BACKBONE|DICT|INTERRES
   165   84   85 1    
   166   84  205 1    
   167   85   86 1    
   168   85   87 1    
   169   85  206 1    
   170   86  207 1    
   171   86  208 1    
   172   86  209 1    
   173   87   88 2    
   174   87   89 am   BACKBONE|DICT|INTERRES
   175   89   90 1    
   176   89  210 1    
   177   90   91 1    
   178   90   92 1    
   179   90  211 1    
   180   91  212 1    
   181   91  213 1    
   182   91  214 1    
   183   92   93 2    
   184   92   94 am   BACKBONE|DICT|INTERRES
   185   94   95 1    
   186   94  215 1    
   187   95   96 1    
   188   95   97 1    
   189   95  216 1    
   190   96  217 1    
   191   96  218 1    
   192   96  219 1    
   193   97   98 2    
   194   97   99 am   BACKBONE|DICT|INTERRES
   195   99  100 1    
   196   99  220 1    
   197  100  101 1    
   198  100  102 1    
   199  100  221 1    
   200  101  222 1    
   201  101  223 1    
   202  101  224 1    
   203  102  103 2    
   204  102  104 am   BACKBONE|DICT|INTERRES
   205  104  105 1    
   206  104  225 1    
   207  105  106 1    
   208  105  107 1    
   209  105  226 1    
   210  106  227 1    
   211  106  228 1    
   212  106  229 1    
   213  107  108 2    
   214  107  109 am   BACKBONE|DICT|INTERRES
   215  109  110 1    
   216  109  230 1    
   217  110  111 1    
   218  110  112 1    
   219  110  231 1    
   220  111  232 1    
   221  111  233 1    
   222  111  234 1    
   223  112  113 2    
   224  112  114 am   BACKBONE|DICT|INTERRES
   225  114  115 1    
   226  114  235 1    
   227  115  116 1    
   228  115  117 1    
   229  115  236 1    
   230  116  237 1    
   231  116  238 1    
   232  116  239 1    
   233  117  118 2    
   234  117  119 am   BACKBONE|DICT|INTERRES
   235  119  120 1    
   236  119  240 1    
   237  120  121 1    
   238  120  124 1    
   239  120  241 1    
   240  121  122 am   BACKBONE|DICT|INTERRES
   241  121  123 2    
   242  122  242 1    
   243  122  243 1    
   244  124  125 1    
   245  124  244 1    
   246  124  245 1    
   247  125  126 1    
   248  126  246 1    
   249  126  247 1    
@<TRIPOS>SUBSTRUCTURE
     1 UNK         1 GROUP             0       ****    0 ROOT    
