@<TRIPOS>MOLECULE
3R540
247   249    1
SMALL
USER_CHARGES


@<TRIPOS>ATOM
      1 CA          2.6371  -12.7909  -46.9227 C.3       0 UNK        -0.1800 
      2 C           3.4852  -12.9725  -48.1749 C.2       0 UNK         0.5000 
      3 O           4.0567  -12.0013  -48.6709 O.2       0 UNK        -0.5000 
      4 N           3.5615  -14.2035  -48.6881 N.am      1 UNK        -0.5000 
      5 CA          4.2896  -14.5754  -49.8991 C.3       1 UNK         0.1400 
      6 C6          3.3906  -14.6210  -51.1676 C.3       23 UNK        -0.0398 
      7 S7          1.8458  -15.5921  -51.0293 S.3       23 UNK        -0.2404 
      8 C8          0.6491  -14.2862  -50.6145 C.3       23 UNK        -0.0205 
      9 C9         -0.7100  -14.8588  -50.2428 C.ar      23 UNK        -0.0193 
     10 C10        -1.8209  -14.6451  -51.0632 C.ar      23 UNK        -0.1150 
     11 C11        -3.0814  -15.1246  -50.6932 C.ar      23 UNK        -0.0193 
     12 C12        -3.2236  -15.8315  -49.4939 C.ar      23 UNK        -0.1150 
     13 C13        -2.1173  -16.0583  -48.6673 C.ar      23 UNK        -0.0193 
     14 C14        -0.8662  -15.5665  -49.0485 C.ar      23 UNK        -0.1150 
     15 C15        -2.2711  -16.7914  -47.3419 C.3       23 UNK        -0.0205 
     16 S16        -2.8214  -18.5110  -47.5665 S.3       23 UNK        -0.2404 
     17 C17        -2.5698  -19.1758  -45.8890 C.3       23 UNK        -0.0398 
     18 CA         -1.4046  -20.1963  -45.8313 C.3       11 UNK         0.1400 
     19 N          -0.7199  -20.1542  -44.5388 N.am      11 UNK        -0.5000 
     20 C           0.3874  -20.8413  -44.2277 C.2       10 UNK         0.5000 
     21 O           0.9928  -21.5665  -45.0161 O.2       10 UNK        -0.5000 
     22 CA          0.8562  -20.7423  -42.7678 C.3       10 UNK         0.1400 
     23 CB          1.6227  -19.4344  -42.5273 C.3       10 UNK        -0.1800 
     24 N          -0.2667  -20.8363  -41.8334 N.am      10 UNK        -0.5000 
     25 C          -0.9803  -21.9520  -41.6243 C.2       9 UNK         0.5000 
     26 O          -0.7470  -23.0263  -42.1765 O.2       9 UNK        -0.5000 
     27 CA         -2.1832  -21.8380  -40.6711 C.3       9 UNK         0.1400 
     28 CB         -1.7269  -21.9279  -39.2073 C.3       9 UNK        -0.1800 
     29 N          -2.9464  -20.6053  -40.8683 N.am      9 UNK        -0.5000 
     30 C          -3.6269  -20.3039  -41.9831 C.2       8 UNK         0.5000 
     31 O          -3.6951  -21.0397  -42.9663 O.2       8 UNK        -0.5000 
     32 CA         -4.3014  -18.9215  -42.0268 C.3       8 UNK         0.1400 
     33 CB         -5.6899  -18.9761  -41.3728 C.3       8 UNK        -0.1800 
     34 N          -3.5064  -17.8609  -41.3997 N.am      8 UNK        -0.5000 
     35 C          -2.2820  -17.4962  -41.7997 C.2       7 UNK         0.5000 
     36 O          -1.6560  -18.0678  -42.6963 O.2       7 UNK        -0.5000 
     37 CA         -1.6370  -16.3155  -41.0673 C.3       7 UNK         0.1400 
     38 CB         -0.6452  -16.8059  -39.9995 C.3       7 UNK        -0.1800 
     39 N          -0.9401  -15.5167  -42.0634 N.am      7 UNK        -0.5000 
     40 C          -0.7164  -14.2015  -42.0249 C.2       6 UNK         0.5000 
     41 O          -1.0243  -13.4902  -41.0666 O.2       6 UNK        -0.5000 
     42 CA         -0.0322  -13.5881  -43.2704 C.3       6 UNK         0.1400 
     43 CB          0.2284  -12.0778  -43.1248 C.3       6 UNK        -0.1800 
     44 N           1.2313  -14.2469  -43.6157 N.am      6 UNK        -0.5000 
     45 C           1.3527  -15.4543  -44.1804 C.2       5 UNK         0.5000 
     46 O           0.3873  -16.1694  -44.4631 O.2       5 UNK        -0.5000 
     47 CA          2.7926  -15.9441  -44.4372 C.3       5 UNK         0.1400 
     48 CB          3.5201  -16.2404  -43.1156 C.3       5 UNK        -0.1800 
     49 N           2.8210  -17.1448  -45.2700 N.am      5 UNK        -0.5000 
     50 C           2.4620  -17.1835  -46.5572 C.2       4 UNK         0.5000 
     51 O           2.1994  -16.1807  -47.2207 O.2       4 UNK        -0.5000 
     52 CA          2.4442  -18.5729  -47.2106 C.3       4 UNK         0.1400 
     53 CB          1.6688  -18.5847  -48.5368 C.3       4 UNK        -0.1800 
     54 N           3.8146  -19.0088  -47.4507 N.am      4 UNK        -0.5000 
     55 C           4.6022  -19.5817  -46.5307 C.2       3 UNK         0.5000 
     56 O           4.2266  -19.8626  -45.3917 O.2       3 UNK        -0.5000 
     57 CA          6.0585  -19.8705  -46.9400 C.3       3 UNK         0.1400 
     58 CB          6.1794  -21.2940  -47.5058 C.3       3 UNK        -0.1800 
     59 N           6.5858  -18.9177  -47.9196 N.am      3 UNK        -0.5000 
     60 C           6.7969  -17.6145  -47.6869 C.2       2 UNK         0.5000 
     61 O           6.6035  -17.0761  -46.5956 O.2       2 UNK        -0.5000 
     62 CA          7.3049  -16.7539  -48.8630 C.3       2 UNK         0.1400 
     63 CB          7.7110  -17.5612  -50.1179 C.3       2 UNK        -0.1800 
     64 N           6.3447  -15.7024  -49.2138 N.am      2 UNK        -0.5000 
     65 C           5.0761  -15.8696  -49.6178 C.2       1 UNK         0.5000 
     66 O           4.5395  -16.9716  -49.7411 O.2       1 UNK        -0.5000 
     67 C          -1.8725  -21.6248  -46.1898 C.2       11 UNK         0.5000 
     68 O          -1.6818  -22.0644  -47.3246 O.2       11 UNK        -0.5000 
     69 N          -2.4453  -22.3348  -45.2071 N.am      12 UNK        -0.5000 
     70 CA         -2.8723  -23.7278  -45.3231 C.3       12 UNK         0.1400 
     71 CB         -3.7375  -24.1091  -44.1132 C.3       12 UNK        -0.1800 
     72 C          -1.6939  -24.7016  -45.4860 C.2       12 UNK         0.5000 
     73 O          -1.7520  -25.5675  -46.3585 O.2       12 UNK        -0.5000 
     74 N          -0.6367  -24.5294  -44.6786 N.am      13 UNK        -0.5000 
     75 CA          0.5841  -25.3419  -44.7203 C.3       13 UNK         0.1400 
     76 CB          1.4984  -24.9620  -43.5461 C.3       13 UNK        -0.1800 
     77 C           1.3438  -25.2281  -46.0550 C.2       13 UNK         0.5000 
     78 O           1.8618  -26.2296  -46.5502 O.2       13 UNK        -0.5000 
     79 N           1.3628  -24.0186  -46.6279 N.am      14 UNK        -0.5000 
     80 CA          1.9304  -23.7240  -47.9436 C.3       14 UNK         0.1400 
     81 CB          2.2127  -22.2176  -48.0122 C.3       14 UNK        -0.1800 
     82 C           1.0243  -24.1511  -49.1181 C.2       14 UNK         0.5000 
     83 O           1.4746  -24.1072  -50.2630 O.2       14 UNK        -0.5000 
     84 N          -0.2339  -24.5162  -48.8243 N.am      15 UNK        -0.5000 
     85 CA         -1.3245  -24.8496  -49.7512 C.3       15 UNK         0.1400 
     86 CB         -0.9748  -26.0773  -50.6164 C.3       15 UNK        -0.1800 
     87 C          -1.8193  -23.6527  -50.5935 C.2       15 UNK         0.5000 
     88 O          -2.5798  -23.8429  -51.5441 O.2       15 UNK        -0.5000 
     89 N          -1.4260  -22.4332  -50.2040 N.am      16 UNK        -0.5000 
     90 CA         -1.8511  -21.1717  -50.8059 C.3       16 UNK         0.1400 
     91 CB         -0.9246  -20.0474  -50.3294 C.3       16 UNK        -0.1800 
     92 C          -3.3219  -20.8425  -50.5022 C.2       16 UNK         0.5000 
     93 O          -3.9655  -20.1674  -51.3014 O.2       16 UNK        -0.5000 
     94 N          -3.8510  -21.3796  -49.3937 N.am      17 UNK        -0.5000 
     95 CA         -5.2485  -21.2463  -48.9724 C.3       17 UNK         0.1400 
     96 CB         -5.4057  -21.8477  -47.5679 C.3       17 UNK        -0.1800 
     97 C          -6.2770  -21.8720  -49.9407 C.2       17 UNK         0.5000 
     98 O          -7.4696  -21.5987  -49.7931 O.2       17 UNK        -0.5000 
     99 N          -5.8103  -22.6859  -50.8971 N.am      18 UNK        -0.5000 
    100 CA        -6.6086  -23.2999  -51.9560 C.3       18 UNK         0.1400 
    101 CB        -6.6048  -24.8238  -51.7406 C.3       18 UNK        -0.1800 
    102 C         -6.0941  -22.9289  -53.3634 C.2       18 UNK         0.5000 
    103 O         -6.5284  -23.5455  -54.3393 O.2       18 UNK        -0.5000 
    104 N         -5.1798  -21.9528  -53.4736 N.am      19 UNK        -0.5000 
    105 CA        -4.5982  -21.5026  -54.7391 C.3       19 UNK         0.1400 
    106 CB        -3.2141  -20.8827  -54.4846 C.3       19 UNK        -0.1800 
    107 C         -5.5464  -20.5522  -55.4965 C.2       19 UNK         0.5000 
    108 O         -5.3138  -19.3414  -55.5380 O.2       19 UNK        -0.5000 
    109 N         -6.5935  -21.1390  -56.0925 N.am      20 UNK        -0.5000 
    110 CA        -7.6042  -20.5212  -56.9546 C.3       20 UNK         0.1400 
    111 CB        -6.9771  -20.0926  -58.3003 C.3       20 UNK        -0.1800 
    112 C         -8.3735  -19.3904  -56.2435 C.2       20 UNK         0.5000 
    113 O         -9.3139  -19.6767  -55.5013 O.2       20 UNK        -0.5000 
    114 N         -7.9735  -18.1356  -56.4897 N.am      21 UNK        -0.5000 
    115 CA        -8.5373  -16.9388  -55.8650 C.3       21 UNK         0.1400 
    116 CB        -8.0644  -15.6996  -56.6404 C.3       21 UNK        -0.1800 
    117 C         -8.1780  -16.8120  -54.3721 C.2       21 UNK         0.5000 
    118 O         -8.9624  -16.2429  -53.6113 O.2       21 UNK        -0.5000 
    119 N         -7.0132  -17.3415  -53.9810 N.am      22 UNK        -0.5000 
    120 CA        -6.5773  -17.4451  -52.5832 C.3       22 UNK         0.1400 
    121 C         -7.1481  -18.7279  -51.9230 C.2       22 UNK         0.5000 
    122 N         -7.4528  -18.6919  -50.6334 N.am      22 UNK        -0.7600 
    123 O         -7.2970  -19.7674  -52.5593 O.2       22 UNK        -0.5000 
    124 C124       -5.0344  -17.4005  -52.4585 C.3       23 UNK        -0.0398 
    125 S125       -4.3268  -15.8387  -53.0809 S.3       23 UNK        -0.2404 
    126 C126       -4.2910  -14.8259  -51.5682 C.3       23 UNK        -0.0205 
    127 H127        2.0804  -11.8553  -46.9756 H         1 UNK         0.0600 
    128 H128        3.2728  -12.7606  -46.0382 H         1 UNK         0.0600 
    129 H129        1.9156  -13.5987  -46.8035 H         1 UNK         0.0600 
    130 H130        3.0719  -14.9724  -48.2279 H         1 UNK         0.3000 
    131 H131        5.0446  -13.8126  -50.1022 H         1 UNK         0.0600 
    132 H132        3.1289  -13.6010  -51.4518 H         1 UNK         0.0800 
    133 H133        3.9595  -15.0140  -52.0116 H         1 UNK         0.0800 
    134 H134        1.0213  -13.6994  -49.7748 H         1 UNK         0.0800 
    135 H135        0.5626  -13.5995  -51.4579 H         1 UNK         0.0800 
    136 H136       -1.7117  -14.0894  -51.9841 H         1 UNK         0.1150 
    137 H137       -4.1956  -16.1977  -49.1945 H         1 UNK         0.1150 
    138 H138       -0.0084  -15.7226  -48.4107 H         1 UNK         0.1150 
    139 H139       -1.3252  -16.7889  -46.7959 H         1 UNK         0.0800 
    140 H140       -2.9909  -16.2602  -46.7178 H         1 UNK         0.0800 
    141 H141       -3.5056  -19.6048  -45.5264 H         1 UNK         0.0800 
    142 H142       -2.3676  -18.3350  -45.2247 H         1 UNK         0.0800 
    143 H143       -0.6541  -19.9097  -46.5713 H         1 UNK         0.0600 
    144 H144       -1.1252  -19.5487  -43.8300 H         1 UNK         0.3000 
    145 H145        1.5349  -21.5754  -42.5734 H         1 UNK         0.0600 
    146 H146        1.9706  -19.3629  -41.4968 H         1 UNK         0.0600 
    147 H147        2.5015  -19.3816  -43.1707 H         1 UNK         0.0600 
    148 H148        1.0085  -18.5580  -42.7370 H         1 UNK         0.0600 
    149 H149       -0.5617  -19.9801  -41.3883 H         1 UNK         0.3000 
    150 H150       -2.8473  -22.6810  -40.8736 H         1 UNK         0.0600 
    151 H151       -1.0827  -21.0919  -38.9321 H         1 UNK         0.0600 
    152 H152       -1.1665  -22.8468  -39.0295 H         1 UNK         0.0600 
    153 H153       -2.5797  -21.9325  -38.5283 H         1 UNK         0.0600 
    154 H154       -2.9392  -19.9355  -40.1135 H         1 UNK         0.3000 
    155 H155       -4.4317  -18.6568  -43.0783 H         1 UNK         0.0600 
    156 H156       -5.6259  -19.2001  -40.3073 H         1 UNK         0.0600 
    157 H157       -6.3085  -19.7473  -41.8340 H         1 UNK         0.0600 
    158 H158       -6.2171  -18.0286  -41.4863 H         1 UNK         0.0600 
    159 H159       -3.9499  -17.3520  -40.6484 H         1 UNK         0.3000 
    160 H160       -2.4189  -15.7156  -40.5969 H         1 UNK         0.0600 
    161 H161        0.1578  -17.3991  -40.4392 H         1 UNK         0.0600 
    162 H162       -1.1456  -17.4264  -39.2552 H         1 UNK         0.0600 
    163 H163       -0.1895  -15.9683  -39.4713 H         1 UNK         0.0600 
    164 H164       -0.6618  -16.0281  -42.9005 H         1 UNK         0.3000 
    165 H165       -0.7242  -13.7206  -44.1048 H         1 UNK         0.0600 
    166 H166        0.6518  -11.6611  -44.0391 H         1 UNK         0.0600 
    167 H167       -0.6975  -11.5373  -42.9239 H         1 UNK         0.0600 
    168 H168        0.9184  -11.8652  -42.3074 H         1 UNK         0.0600 
    169 H169        2.0693  -13.7390  -43.3731 H         1 UNK         0.3000 
    170 H170        3.3334  -15.1555  -44.9641 H         1 UNK         0.0600 
    171 H171        2.9793  -16.9652  -42.5080 H         1 UNK         0.0600 
    172 H172        4.5214  -16.6328  -43.2952 H         1 UNK         0.0600 
    173 H173        3.6329  -15.3362  -42.5166 H         1 UNK         0.0600 
    174 H174        3.0776  -18.0135  -44.8202 H         1 UNK         0.3000 
    175 H175        1.9483  -19.2672  -46.5290 H         1 UNK         0.0600 
    176 H176        2.1051  -17.9059  -49.2675 H         1 UNK         0.0600 
    177 H177        1.6610  -19.5773  -48.9813 H         1 UNK         0.0600 
    178 H178        0.6332  -18.2793  -48.3841 H         1 UNK         0.0600 
    179 H179        4.2221  -18.7167  -48.3308 H         1 UNK         0.3000 
    180 H180        6.6735  -19.8052  -46.0400 H         1 UNK         0.0600 
    181 H181        5.5994  -21.4138  -48.4219 H         1 UNK         0.0600 
    182 H182        5.8142  -22.0310  -46.7891 H         1 UNK         0.0600 
    183 H183        7.2168  -21.5446  -47.7282 H         1 UNK         0.0600 
    184 H184        6.7590  -19.2728  -48.8487 H         1 UNK         0.3000 
    185 H185        8.1994  -16.2463  -48.4992 H         1 UNK         0.0600 
    186 H186        8.4825  -18.2952  -49.8816 H         1 UNK         0.0600 
    187 H187        6.8689  -18.0922  -50.5628 H         1 UNK         0.0600 
    188 H188        8.1231  -16.9037  -50.8835 H         1 UNK         0.0600 
    189 H189        6.6801  -14.7580  -49.0844 H         1 UNK         0.3000 
    190 H190       -2.6289  -21.8825  -44.3156 H         1 UNK         0.3000 
    191 H191       -3.4904  -23.8157  -46.2175 H         1 UNK         0.0600 
    192 H192       -4.6284  -23.4835  -44.0557 H         1 UNK         0.0600 
    193 H193       -4.0715  -25.1451  -44.1812 H         1 UNK         0.0600 
    194 H194       -3.1915  -23.9994  -43.1758 H         1 UNK         0.0600 
    195 H195       -0.6805  -23.8194  -43.9529 H         1 UNK         0.3000 
    196 H196        0.2904  -26.3863  -44.5973 H         1 UNK         0.0600 
    197 H197        2.4130  -25.5563  -43.5531 H         1 UNK         0.0600 
    198 H198        1.0053  -25.1374  -42.5900 H         1 UNK         0.0600 
    199 H199        1.7880  -23.9115  -43.5865 H         1 UNK         0.0600 
    200 H200        0.9733  -23.2312  -46.1167 H         1 UNK         0.3000 
    201 H201        2.8782  -24.2561  -48.0471 H         1 UNK         0.0600 
    202 H202        2.6711  -21.9398  -48.9620 H         1 UNK         0.0600 
    203 H203        2.8952  -21.9134  -47.2193 H         1 UNK         0.0600 
    204 H204        1.2949  -21.6390  -47.9010 H         1 UNK         0.0600 
    205 H205       -0.4968  -24.5279  -47.8465 H         1 UNK         0.3000 
    206 H206       -2.1683  -25.1293  -49.1192 H         1 UNK         0.0600 
    207 H207       -0.6331  -26.9090  -50.0001 H         1 UNK         0.0600 
    208 H208       -1.8467  -26.4239  -51.1722 H         1 UNK         0.0600 
    209 H209       -0.1949  -25.8542  -51.3445 H         1 UNK         0.0600 
    210 H210       -0.8958  -22.3659  -49.3448 H         1 UNK         0.3000 
    211 H211       -1.7484  -21.2567  -51.8880 H         1 UNK         0.0600 
    212 H212       -0.8840  -20.0020  -49.2416 H         1 UNK         0.0600 
    213 H213       -1.2624  -19.0738  -50.6884 H         1 UNK         0.0600 
    214 H214        0.0895  -20.1970  -50.6992 H         1 UNK         0.0600 
    215 H215       -3.2295  -21.8850  -48.7734 H         1 UNK         0.3000 
    216 H216       -5.4707  -20.1789  -48.9137 H         1 UNK         0.0600 
    217 H217       -6.4265  -21.7293  -47.2024 H         1 UNK         0.0600 
    218 H218       -4.7518  -21.3556  -46.8497 H         1 UNK         0.0600 
    219 H219       -5.1795  -22.9139  -47.5643 H         1 UNK         0.0600 
    220 H220       -4.8139  -22.8525  -50.9445 H         1 UNK         0.3000 
    221 H221       -7.6409  -22.9482  -51.9080 H         1 UNK         0.0600 
    222 H222       -5.5983  -25.2364  -51.8231 H         1 UNK         0.0600 
    223 H223       -6.9934  -25.0825  -50.7555 H         1 UNK         0.0600 
    224 H224       -7.2309  -25.3297  -52.4765 H         1 UNK         0.0600 
    225 H225       -4.9400  -21.4083  -52.6520 H         1 UNK         0.3000 
    226 H226       -4.4353  -22.3728  -55.3788 H         1 UNK         0.0600 
    227 H227       -2.7614  -20.5474  -55.4184 H         1 UNK         0.0600 
    228 H228       -3.2658  -20.0203  -53.8215 H         1 UNK         0.0600 
    229 H229       -2.5369  -21.6133  -54.0436 H         1 UNK         0.0600 
    230 H230       -6.7305  -22.1248  -55.8971 H         1 UNK         0.3000 
    231 H231       -8.3380  -21.2986  -57.1726 H         1 UNK         0.0600 
    232 H232       -6.1635  -19.3778  -58.1739 H         1 UNK         0.0600 
    233 H233       -7.7227  -19.6350  -58.9519 H         1 UNK         0.0600 
    234 H234       -6.5742  -20.9551  -58.8312 H         1 UNK         0.0600 
    235 H235       -7.1706  -18.0002  -57.0867 H         1 UNK         0.3000 
    236 H236       -9.6253  -16.9944  -55.9407 H         1 UNK         0.0600 
    237 H237       -8.3727  -15.7455  -57.6851 H         1 UNK         0.0600 
    238 H238       -8.4892  -14.7887  -56.2165 H         1 UNK         0.0600 
    239 H239       -6.9786  -15.5986  -56.6133 H         1 UNK         0.0600 
    240 H240       -6.4570  -17.8590  -54.6533 H         1 UNK         0.3000 
    241 H241       -6.9732  -16.5895  -52.0325 H         1 UNK         0.0600 
    242 H242       -7.3595  -17.8563  -50.0784 H         1 UNK         0.3800 
    243 H243       -7.7927  -19.5467  -50.2110 H         1 UNK         0.3800 
    244 H244       -4.5893  -18.2191  -53.0246 H         1 UNK         0.0800 
    245 H245       -4.7219  -17.5444  -51.4229 H         1 UNK         0.0800 
    246 H246       -5.2189  -14.9617  -51.0107 H         1 UNK         0.0800 
    247 H247       -4.2661  -13.7742  -51.8568 H         1 UNK         0.0800 
@<TRIPOS>BOND
     1    1    2 1    
     2    1  127 1    
     3    1  128 1    
     4    1  129 1    
     5    2    3 2    
     6    2    4 am   BACKBONE|DICT|INTERRES
     7    4    5 1    
     8    4  130 1    
     9    5    6 1    
    10    5   65 1    
    11    5  131 1    
    12    6    7 1    
    13    6  132 1    
    14    6  133 1    
    15    7    8 1    
    16    8    9 1    
    17    8  134 1    
    18    8  135 1    
    19    9   10 ar   
    20    9   14 ar   
    21   10   11 ar   
    22   10  136 1    
    23   11   12 ar   
    24   11  126 1    
    25   12   13 ar   
    26   12  137 1    
    27   13   14 ar   
    28   13   15 1    
    29   14  138 1    
    30   15   16 1    
    31   15  139 1    
    32   15  140 1    
    33   16   17 1    
    34   17   18 1    
    35   17  141 1    
    36   17  142 1    
    37   18   19 1    
    38   18   67 1    
    39   18  143 1    
    40   19   20 am   BACKBONE|DICT|INTERRES
    41   19  144 1    
    42   20   21 2    
    43   20   22 1    
    44   22   23 1    
    45   22   24 1    
    46   22  145 1    
    47   23  146 1    
    48   23  147 1    
    49   23  148 1    
    50   24   25 am   BACKBONE|DICT|INTERRES
    51   24  149 1    
    52   25   26 2    
    53   25   27 1    
    54   27   28 1    
    55   27   29 1    
    56   27  150 1    
    57   28  151 1    
    58   28  152 1    
    59   28  153 1    
    60   29   30 am   BACKBONE|DICT|INTERRES
    61   29  154 1    
    62   30   31 2    
    63   30   32 1    
    64   32   33 1    
    65   32   34 1    
    66   32  155 1    
    67   33  156 1    
    68   33  157 1    
    69   33  158 1    
    70   34   35 am   BACKBONE|DICT|INTERRES
    71   34  159 1    
    72   35   36 2    
    73   35   37 1    
    74   37   38 1    
    75   37   39 1    
    76   37  160 1    
    77   38  161 1    
    78   38  162 1    
    79   38  163 1    
    80   39   40 am   BACKBONE|DICT|INTERRES
    81   39  164 1    
    82   40   41 2    
    83   40   42 1    
    84   42   43 1    
    85   42   44 1    
    86   42  165 1    
    87   43  166 1    
    88   43  167 1    
    89   43  168 1    
    90   44   45 am   BACKBONE|DICT|INTERRES
    91   44  169 1    
    92   45   46 2    
    93   45   47 1    
    94   47   48 1    
    95   47   49 1    
    96   47  170 1    
    97   48  171 1    
    98   48  172 1    
    99   48  173 1    
   100   49   50 am   BACKBONE|DICT|INTERRES
   101   49  174 1    
   102   50   51 2    
   103   50   52 1    
   104   52   53 1    
   105   52   54 1    
   106   52  175 1    
   107   53  176 1    
   108   53  177 1    
   109   53  178 1    
   110   54   55 am   BACKBONE|DICT|INTERRES
   111   54  179 1    
   112   55   56 2    
   113   55   57 1    
   114   57   58 1    
   115   57   59 1    
   116   57  180 1    
   117   58  181 1    
   118   58  182 1    
   119   58  183 1    
   120   59   60 am   BACKBONE|DICT|INTERRES
   121   59  184 1    
   122   60   61 2    
   123   60   62 1    
   124   62   63 1    
   125   62   64 1    
   126   62  185 1    
   127   63  186 1    
   128   63  187 1    
   129   63  188 1    
   130   64   65 am   BACKBONE|DICT|INTERRES
   131   64  189 1    
   132   65   66 2    
   133   67   68 2    
   134   67   69 am   BACKBONE|DICT|INTERRES
   135   69   70 1    
   136   69  190 1    
   137   70   71 1    
   138   70   72 1    
   139   70  191 1    
   140   71  192 1    
   141   71  193 1    
   142   71  194 1    
   143   72   73 2    
   144   72   74 am   BACKBONE|DICT|INTERRES
   145   74   75 1    
   146   74  195 1    
   147   75   76 1    
   148   75   77 1    
   149   75  196 1    
   150   76  197 1    
   151   76  198 1    
   152   76  199 1    
   153   77   78 2    
   154   77   79 am   BACKBONE|DICT|INTERRES
   155   79   80 1    
   156   79  200 1    
   157   80   81 1    
   158   80   82 1    
   159   80  201 1    
   160   81  202 1    
   161   81  203 1    
   162   81  204 1    
   163   82   83 2    
   164   82   84 am   BACKBONE|DICT|INTERRES
   165   84   85 1    
   166   84  205 1    
   167   85   86 1    
   168   85   87 1    
   169   85  206 1    
   170   86  207 1    
   171   86  208 1    
   172   86  209 1    
   173   87   88 2    
   174   87   89 am   BACKBONE|DICT|INTERRES
   175   89   90 1    
   176   89  210 1    
   177   90   91 1    
   178   90   92 1    
   179   90  211 1    
   180   91  212 1    
   181   91  213 1    
   182   91  214 1    
   183   92   93 2    
   184   92   94 am   BACKBONE|DICT|INTERRES
   185   94   95 1    
   186   94  215 1    
   187   95   96 1    
   188   95   97 1    
   189   95  216 1    
   190   96  217 1    
   191   96  218 1    
   192   96  219 1    
   193   97   98 2    
   194   97   99 am   BACKBONE|DICT|INTERRES
   195   99  100 1    
   196   99  220 1    
   197  100  101 1    
   198  100  102 1    
   199  100  221 1    
   200  101  222 1    
   201  101  223 1    
   202  101  224 1    
   203  102  103 2    
   204  102  104 am   BACKBONE|DICT|INTERRES
   205  104  105 1    
   206  104  225 1    
   207  105  106 1    
   208  105  107 1    
   209  105  226 1    
   210  106  227 1    
   211  106  228 1    
   212  106  229 1    
   213  107  108 2    
   214  107  109 am   BACKBONE|DICT|INTERRES
   215  109  110 1    
   216  109  230 1    
   217  110  111 1    
   218  110  112 1    
   219  110  231 1    
   220  111  232 1    
   221  111  233 1    
   222  111  234 1    
   223  112  113 2    
   224  112  114 am   BACKBONE|DICT|INTERRES
   225  114  115 1    
   226  114  235 1    
   227  115  116 1    
   228  115  117 1    
   229  115  236 1    
   230  116  237 1    
   231  116  238 1    
   232  116  239 1    
   233  117  118 2    
   234  117  119 am   BACKBONE|DICT|INTERRES
   235  119  120 1    
   236  119  240 1    
   237  120  121 1    
   238  120  124 1    
   239  120  241 1    
   240  121  122 am   BACKBONE|DICT|INTERRES
   241  121  123 2    
   242  122  242 1    
   243  122  243 1    
   244  124  125 1    
   245  124  244 1    
   246  124  245 1    
   247  125  126 1    
   248  126  246 1    
   249  126  247 1    
@<TRIPOS>SUBSTRUCTURE
     1 UNK         1 GROUP             0       ****    0 ROOT    
