@<TRIPOS>MOLECULE
3R540
247   249    1
SMALL
USER_CHARGES


@<TRIPOS>ATOM
      1 CA         -3.3952   -9.8687  -47.5846 C.3       0 UNK        -0.1800 
      2 C          -4.3782  -10.4188  -46.5515 C.2       0 UNK         0.5000 
      3 O          -5.3979   -9.7814  -46.2954 O.2       0 UNK        -0.5000 
      4 N          -4.1382  -11.5897  -45.9450 N.am      1 UNK        -0.5000 
      5 CA         -2.9430  -12.4310  -46.0652 C.3       1 UNK         0.1400 
      6 C6         -3.1419  -13.8121  -45.3998 C.3       23 UNK        -0.0398 
      7 S7         -4.4710  -14.7988  -46.1619 S.3       23 UNK        -0.2404 
      8 C8         -3.4873  -15.9099  -47.2095 C.3       23 UNK        -0.0205 
      9 C9         -4.3383  -17.0171  -47.8038 C.ar      23 UNK        -0.0193 
     10 C10        -4.8286  -16.9160  -49.1093 C.ar      23 UNK        -0.1150 
     11 C11        -5.5599  -17.9669  -49.6721 C.ar      23 UNK        -0.0193 
     12 C12        -5.8145  -19.1139  -48.9162 C.ar      23 UNK        -0.1150 
     13 C13        -5.3250  -19.2236  -47.6131 C.ar      23 UNK        -0.0193 
     14 C14        -4.5937  -18.1707  -47.0586 C.ar      23 UNK        -0.1150 
     15 C15        -5.5218  -20.5064  -46.8297 C.3       23 UNK        -0.0205 
     16 S16        -4.1407  -21.6298  -47.1731 S.3       23 UNK        -0.2404 
     17 C17        -4.3958  -22.9216  -45.9212 C.3       23 UNK        -0.0398 
     18 CA         -3.1187  -23.7743  -45.7665 C.3       11 UNK         0.1400 
     19 N          -1.9523  -23.0009  -45.3346 N.am      11 UNK        -0.5000 
     20 C          -0.6854  -23.4225  -45.4397 C.2       10 UNK         0.5000 
     21 O          -0.3671  -24.5155  -45.9063 O.2       10 UNK        -0.5000 
     22 CA          0.3995  -22.4918  -44.8726 C.3       10 UNK         0.1400 
     23 CB          0.8045  -21.4296  -45.9070 C.3       10 UNK        -0.1800 
     24 N          -0.0501  -21.8401  -43.6417 N.am      10 UNK        -0.5000 
     25 C          -0.2053  -22.4792  -42.4711 C.2       9 UNK         0.5000 
     26 O           0.0980  -23.6595  -42.2986 O.2       9 UNK        -0.5000 
     27 CA         -0.8467  -21.6900  -41.3106 C.3       9 UNK         0.1400 
     28 CB          0.2369  -21.0146  -40.4574 C.3       9 UNK        -0.1800 
     29 N          -1.8036  -20.6762  -41.7575 N.am      9 UNK        -0.5000 
     30 C          -2.9277  -20.9265  -42.4436 C.2       8 UNK         0.5000 
     31 O          -3.3358  -22.0629  -42.6827 O.2       8 UNK        -0.5000 
     32 CA         -3.6912  -19.7133  -43.0162 C.3       8 UNK         0.1400 
     33 CB         -4.9285  -19.4010  -42.1631 C.3       8 UNK        -0.1800 
     34 N          -2.8858  -18.4935  -43.1641 N.am      8 UNK        -0.5000 
     35 C          -1.7858  -18.3848  -43.9211 C.2       7 UNK         0.5000 
     36 O          -1.3080  -19.3234  -44.5640 O.2       7 UNK        -0.5000 
     37 CA         -1.0749  -17.0243  -43.9153 C.3       7 UNK         0.1400 
     38 CB         -0.4630  -16.7210  -42.5344 C.3       7 UNK        -0.1800 
     39 N          -0.0263  -17.0573  -44.9266 N.am      7 UNK        -0.5000 
     40 C           0.5874  -16.0097  -45.4841 C.2       6 UNK         0.5000 
     41 O           0.3346  -14.8379  -45.1978 O.2       6 UNK        -0.5000 
     42 CA          1.6866  -16.3088  -46.5267 C.3       6 UNK         0.1400 
     43 CB          1.8927  -17.8113  -46.8318 C.3       6 UNK        -0.1800 
     44 N           1.4780  -15.5531  -47.7621 N.am      6 UNK        -0.5000 
     45 C           0.4250  -15.6346  -48.5906 C.2       5 UNK         0.5000 
     46 O          -0.5189  -16.4047  -48.4190 O.2       5 UNK        -0.5000 
     47 CA          0.4026  -14.6926  -49.8113 C.3       5 UNK         0.1400 
     48 CB         -0.7664  -13.6983  -49.7136 C.3       5 UNK        -0.1800 
     49 N           1.6530  -13.9497  -49.9884 N.am      5 UNK        -0.5000 
     50 C           2.7471  -14.4517  -50.5811 C.2       4 UNK         0.5000 
     51 O           2.7914  -15.5676  -51.0971 O.2       4 UNK        -0.5000 
     52 CA          4.0194  -13.5810  -50.5965 C.3       4 UNK         0.1400 
     53 CB          4.1931  -12.9125  -51.9693 C.3       4 UNK        -0.1800 
     54 N           4.0668  -12.5472  -49.5613 N.am      4 UNK        -0.5000 
     55 C           4.0804  -12.7566  -48.2381 C.2       3 UNK         0.5000 
     56 O           4.0167  -13.8740  -47.7224 O.2       3 UNK        -0.5000 
     57 CA          4.1443  -11.5084  -47.3308 C.3       3 UNK         0.1400 
     58 CB          4.4049  -10.1888  -48.0927 C.3       3 UNK        -0.1800 
     59 N           2.9534  -11.3597  -46.4881 N.am      3 UNK        -0.5000 
     60 C           1.6741  -11.3678  -46.8869 C.2       2 UNK         0.5000 
     61 O           1.3037  -11.5879  -48.0447 O.2       2 UNK        -0.5000 
     62 CA          0.6339  -11.0269  -45.8128 C.3       2 UNK         0.1400 
     63 CB          0.5203   -9.4988  -45.6436 C.3       2 UNK        -0.1800 
     64 N          -0.6466  -11.5917  -46.2188 N.am      2 UNK        -0.5000 
     65 C          -1.7209  -11.7320  -45.4378 C.2       1 UNK         0.5000 
     66 O          -1.7780  -11.3477  -44.2676 O.2       1 UNK        -0.5000 
     67 C          -3.3606  -25.0002  -44.8720 C.2       11 UNK         0.5000 
     68 O          -3.6947  -26.0670  -45.3884 O.2       11 UNK        -0.5000 
     69 N          -3.1246  -24.8486  -43.5626 N.am      12 UNK        -0.5000 
     70 CA         -3.1240  -25.9443  -42.5935 C.3       12 UNK         0.1400 
     71 CB         -2.9914  -25.3643  -41.1774 C.3       12 UNK        -0.1800 
     72 C          -2.0175  -26.9851  -42.8647 C.2       12 UNK         0.5000 
     73 O          -2.2161  -28.1654  -42.5742 O.2       12 UNK        -0.5000 
     74 N          -0.8847  -26.5350  -43.4222 N.am      13 UNK        -0.5000 
     75 CA          0.2444  -27.3791  -43.7973 C.3       13 UNK         0.1400 
     76 CB          1.5370  -26.5465  -43.8050 C.3       13 UNK        -0.1800 
     77 C           0.0313  -28.0884  -45.1470 C.2       13 UNK         0.5000 
     78 O           0.1889  -29.3091  -45.2058 O.2       13 UNK        -0.5000 
     79 N          -0.2886  -27.3313  -46.2083 N.am      14 UNK        -0.5000 
     80 CA         -0.2710  -27.8314  -47.5876 C.3       14 UNK         0.1400 
     81 CB          1.1839  -27.8849  -48.1019 C.3       14 UNK        -0.1800 
     82 C          -1.2272  -27.0810  -48.5378 C.2       14 UNK         0.5000 
     83 O          -0.9203  -26.9449  -49.7242 O.2       14 UNK        -0.5000 
     84 N          -2.3932  -26.6615  -48.0234 N.am      15 UNK        -0.5000 
     85 CA         -3.5239  -26.0717  -48.7588 C.3       15 UNK         0.1400 
     86 CB         -4.1147  -27.1048  -49.7443 C.3       15 UNK        -0.1800 
     87 C          -3.2128  -24.7210  -49.4453 C.2       15 UNK         0.5000 
     88 O          -2.1454  -24.1396  -49.2424 O.2       15 UNK        -0.5000 
     89 N          -4.1691  -24.2253  -50.2444 N.am      16 UNK        -0.5000 
     90 CA         -4.0990  -22.9448  -50.9612 C.3       16 UNK         0.1400 
     91 CB         -5.4392  -22.6907  -51.6662 C.3       16 UNK        -0.1800 
     92 C          -2.9301  -22.8413  -51.9624 C.2       16 UNK         0.5000 
     93 O          -2.5026  -21.7337  -52.2841 O.2       16 UNK        -0.5000 
     94 N          -2.3930  -23.9901  -52.3949 N.am      17 UNK        -0.5000 
     95 CA         -1.1709  -24.0998  -53.1908 C.3       17 UNK         0.1400 
     96 CB         -0.9722  -25.5681  -53.5959 C.3       17 UNK        -0.1800 
     97 C           0.0829  -23.5663  -52.4668 C.2       17 UNK         0.5000 
     98 O           1.0002  -23.0901  -53.1353 O.2       17 UNK        -0.5000 
     99 N           0.0990  -23.6349  -51.1271 N.am      18 UNK        -0.5000 
    100 CA         1.1691  -23.0903  -50.2924 C.3       18 UNK         0.1400 
    101 CB         1.1934  -23.8373  -48.9534 C.3       18 UNK        -0.1800 
    102 C          1.0232  -21.5727  -50.0746 C.2       18 UNK         0.5000 
    103 O          2.0367  -20.8902  -49.9239 O.2       18 UNK        -0.5000 
    104 N         -0.2197  -21.0671  -50.0811 N.am      19 UNK        -0.5000 
    105 CA        -0.5233  -19.6336  -50.0646 C.3       19 UNK         0.1400 
    106 CB        -1.9834  -19.4131  -49.6449 C.3       19 UNK        -0.1800 
    107 C         -0.2211  -18.9775  -51.4254 C.2       19 UNK         0.5000 
    108 O          0.3154  -17.8718  -51.4602 O.2       19 UNK        -0.5000 
    109 N         -0.5346  -19.6917  -52.5177 N.am      20 UNK        -0.5000 
    110 CA        -0.1649  -19.4713  -53.9239 C.3       20 UNK         0.1400 
    111 CB         1.3652  -19.5073  -54.0943 C.3       20 UNK        -0.1800 
    112 C         -0.7571  -18.2188  -54.6025 C.2       20 UNK         0.5000 
    113 O         -1.0599  -18.2702  -55.7951 O.2       20 UNK        -0.5000 
    114 N         -0.9307  -17.1257  -53.8524 N.am      21 UNK        -0.5000 
    115 CA        -1.4492  -15.8325  -54.3109 C.3       21 UNK         0.1400 
    116 CB        -1.1158  -14.7749  -53.2468 C.3       21 UNK        -0.1800 
    117 C         -2.9609  -15.8252  -54.6278 C.2       21 UNK         0.5000 
    118 O         -3.4765  -14.8045  -55.0854 O.2       21 UNK        -0.5000 
    119 N         -3.6450  -16.9433  -54.3616 N.am      22 UNK        -0.5000 
    120 CA        -5.0955  -17.1412  -54.5093 C.3       22 UNK         0.1400 
    121 C         -5.6381  -17.0669  -55.9673 C.2       22 UNK         0.5000 
    122 N         -4.8033  -17.1747  -56.9939 N.am      22 UNK        -0.7600 
    123 O         -6.8394  -16.9105  -56.1681 O.2       22 UNK        -0.5000 
    124 C124       -5.5650  -18.4593  -53.8370 C.3       23 UNK        -0.0398 
    125 S125       -4.8364  -18.7463  -52.1893 S.3       23 UNK        -0.2404 
    126 C126       -6.0267  -17.8952  -51.1146 C.3       23 UNK        -0.0205 
    127 H127       -3.8792   -9.1090  -48.1985 H         1 UNK         0.0600 
    128 H128       -3.0338  -10.6455  -48.2572 H         1 UNK         0.0600 
    129 H129       -2.5423   -9.4024  -47.0917 H         1 UNK         0.0600 
    130 H130       -4.8158  -11.9221  -45.2746 H         1 UNK         0.3000 
    131 H131       -2.7490  -12.6035  -47.1253 H         1 UNK         0.0600 
    132 H132       -2.2147  -14.3818  -45.4439 H         1 UNK         0.0800 
    133 H133       -3.3733  -13.6987  -44.3389 H         1 UNK         0.0800 
    134 H134       -3.0124  -15.3301  -48.0012 H         1 UNK         0.0800 
    135 H135       -2.6784  -16.3557  -46.6287 H         1 UNK         0.0800 
    136 H136       -4.6146  -16.0345  -49.6970 H         1 UNK         0.1150 
    137 H137       -6.3554  -19.9388  -49.3585 H         1 UNK         0.1150 
    138 H138       -4.1957  -18.2617  -46.0578 H         1 UNK         0.1150 
    139 H139       -5.5814  -20.2903  -45.7629 H         1 UNK         0.0800 
    140 H140       -6.4623  -20.9851  -47.1067 H         1 UNK         0.0800 
    141 H141       -5.2395  -23.5371  -46.2386 H         1 UNK         0.0800 
    142 H142       -4.6778  -22.4650  -44.9717 H         1 UNK         0.0800 
    143 H143       -2.8712  -24.1671  -46.7485 H         1 UNK         0.0600 
    144 H144       -2.1334  -22.0939  -44.9309 H         1 UNK         0.3000 
    145 H145        1.2800  -23.0952  -44.6418 H         1 UNK         0.0600 
    146 H146        1.5185  -20.7218  -45.4871 H         1 UNK         0.0600 
    147 H147        1.2792  -21.8906  -46.7720 H         1 UNK         0.0600 
    148 H148       -0.0543  -20.8662  -46.2736 H         1 UNK         0.0600 
    149 H149       -0.3691  -20.8813  -43.7331 H         1 UNK         0.3000 
    150 H150       -1.3844  -22.4036  -40.6829 H         1 UNK         0.0600 
    151 H151        0.7912  -20.2680  -41.0277 H         1 UNK         0.0600 
    152 H152        0.9562  -21.7472  -40.0886 H         1 UNK         0.0600 
    153 H153       -0.1963  -20.5204  -39.5876 H         1 UNK         0.0600 
    154 H154       -1.5480  -19.7131  -41.6009 H         1 UNK         0.3000 
    155 H155       -4.0283  -19.9998  -44.0132 H         1 UNK         0.0600 
    156 H156       -4.6527  -19.0736  -41.1599 H         1 UNK         0.0600 
    157 H157       -5.5642  -20.2814  -42.0584 H         1 UNK         0.0600 
    158 H158       -5.5347  -18.6179  -42.6190 H         1 UNK         0.0600 
    159 H159       -3.2081  -17.6852  -42.6514 H         1 UNK         0.3000 
    160 H160       -1.8073  -16.2592  -44.1728 H         1 UNK         0.0600 
    161 H161        0.2678  -17.4774  -42.2452 H         1 UNK         0.0600 
    162 H162       -1.2279  -16.6870  -41.7580 H         1 UNK         0.0600 
    163 H163        0.0394  -15.7536  -42.5273 H         1 UNK         0.0600 
    164 H164        0.1790  -17.9914  -45.2602 H         1 UNK         0.3000 
    165 H165        2.6165  -15.9315  -46.0994 H         1 UNK         0.0600 
    166 H166        2.2122  -18.3521  -45.9405 H         1 UNK         0.0600 
    167 H167        0.9847  -18.2873  -47.2031 H         1 UNK         0.0600 
    168 H168        2.6681  -17.9537  -47.5848 H         1 UNK         0.0600 
    169 H169        2.1995  -14.8724  -47.9708 H         1 UNK         0.3000 
    170 H170        0.2378  -15.3158  -50.6908 H         1 UNK         0.0600 
    171 H171       -0.7267  -13.1176  -48.7935 H         1 UNK         0.0600 
    172 H172       -0.7666  -13.0025  -50.5527 H         1 UNK         0.0600 
    173 H173       -1.7227  -14.2218  -49.7290 H         1 UNK         0.0600 
    174 H174        1.6997  -13.0333  -49.5553 H         1 UNK         0.3000 
    175 H175        4.8677  -14.2486  -50.4323 H         1 UNK         0.0600 
    176 H176        3.3857  -12.2095  -52.1782 H         1 UNK         0.0600 
    177 H177        5.1367  -12.3697  -52.0287 H         1 UNK         0.0600 
    178 H178        4.1967  -13.6547  -52.7688 H         1 UNK         0.0600 
    179 H179        4.0870  -11.5921  -49.8877 H         1 UNK         0.3000 
    180 H180        4.9859  -11.6707  -46.6559 H         1 UNK         0.0600 
    181 H181        3.5854   -9.9329  -48.7656 H         1 UNK         0.0600 
    182 H182        5.3216  -10.2437  -48.6813 H         1 UNK         0.0600 
    183 H183        4.5256   -9.3584  -47.3968 H         1 UNK         0.0600 
    184 H184        3.1429  -11.2020  -45.5083 H         1 UNK         0.3000 
    185 H185        0.9399  -11.4855  -44.8701 H         1 UNK         0.0600 
    186 H186       -0.1783   -9.2319  -44.8510 H         1 UNK         0.0600 
    187 H187        1.4836   -9.0599  -45.3810 H         1 UNK         0.0600 
    188 H188        0.1814   -9.0196  -46.5629 H         1 UNK         0.0600 
    189 H189       -0.6454  -11.9324  -47.1717 H         1 UNK         0.3000 
    190 H190       -2.9240  -23.9178  -43.2090 H         1 UNK         0.3000 
    191 H191       -4.0861  -26.4556  -42.6655 H         1 UNK         0.0600 
    192 H192       -3.7886  -24.6513  -40.9657 H         1 UNK         0.0600 
    193 H193       -3.0508  -26.1530  -40.4263 H         1 UNK         0.0600 
    194 H194       -2.0389  -24.8525  -41.0400 H         1 UNK         0.0600 
    195 H195       -0.7957  -25.5463  -43.6119 H         1 UNK         0.3000 
    196 H196        0.3649  -28.1515  -43.0343 H         1 UNK         0.0600 
    197 H197        2.3997  -27.1711  -44.0399 H         1 UNK         0.0600 
    198 H198        1.7186  -26.0944  -42.8297 H         1 UNK         0.0600 
    199 H199        1.5058  -25.7447  -44.5417 H         1 UNK         0.0600 
    200 H200       -0.3864  -26.3223  -46.0951 H         1 UNK         0.3000 
    201 H201       -0.6515  -28.8548  -47.5865 H         1 UNK         0.0600 
    202 H202        1.2352  -28.2294  -49.1354 H         1 UNK         0.0600 
    203 H203        1.7862  -28.5747  -47.5108 H         1 UNK         0.0600 
    204 H204        1.6604  -26.9068  -48.0517 H         1 UNK         0.0600 
    205 H205       -2.5506  -26.7834  -47.0296 H         1 UNK         0.3000 
    206 H206       -4.2889  -25.8603  -48.0113 H         1 UNK         0.0600 
    207 H207       -4.2795  -28.0644  -49.2541 H         1 UNK         0.0600 
    208 H208       -5.0799  -26.7820  -50.1351 H         1 UNK         0.0600 
    209 H209       -3.4565  -27.2763  -50.5968 H         1 UNK         0.0600 
    210 H210       -5.0227  -24.7513  -50.3624 H         1 UNK         0.3000 
    211 H211       -3.9520  -22.1579  -50.2187 H         1 UNK         0.0600 
    212 H212       -5.6689  -23.4746  -52.3887 H         1 UNK         0.0600 
    213 H213       -5.4246  -21.7426  -52.2049 H         1 UNK         0.0600 
    214 H214       -6.2584  -22.6402  -50.9487 H         1 UNK         0.0600 
    215 H215       -2.7988  -24.8549  -52.0702 H         1 UNK         0.3000 
    216 H216       -1.3067  -23.5061  -54.0972 H         1 UNK         0.0600 
    217 H217       -0.0797  -25.6862  -54.2119 H         1 UNK         0.0600 
    218 H218       -1.8180  -25.9361  -54.1769 H         1 UNK         0.0600 
    219 H219       -0.8568  -26.2126  -52.7230 H         1 UNK         0.0600 
    220 H220       -0.6964  -24.0298  -50.6338 H         1 UNK         0.3000 
    221 H221        2.1260  -23.2667  -50.7884 H         1 UNK         0.0600 
    222 H222        0.2956  -23.6404  -48.3684 H         1 UNK         0.0600 
    223 H223        1.2593  -24.9125  -49.1101 H         1 UNK         0.0600 
    224 H224        2.0539  -23.5403  -48.3535 H         1 UNK         0.0600 
    225 H225       -0.9962  -21.6983  -50.2148 H         1 UNK         0.3000 
    226 H226        0.1123  -19.1524  -49.3186 H         1 UNK         0.0600 
    227 H227       -2.2307  -18.3509  -49.6470 H         1 UNK         0.0600 
    228 H228       -2.6841  -19.9118  -50.3135 H         1 UNK         0.0600 
    229 H229       -2.1622  -19.7817  -48.6350 H         1 UNK         0.0600 
    230 H230       -1.0937  -20.5287  -52.3660 H         1 UNK         0.3000 
    231 H231       -0.5717  -20.3299  -54.4606 H         1 UNK         0.0600 
    232 H232        1.8497  -18.6706  -53.5898 H         1 UNK         0.0600 
    233 H233        1.6419  -19.4576  -55.1480 H         1 UNK         0.0600 
    234 H234        1.7846  -20.4293  -53.6913 H         1 UNK         0.0600 
    235 H235       -0.6059  -17.1777  -52.8895 H         1 UNK         0.3000 
    236 H236       -0.9274  -15.5663  -55.2321 H         1 UNK         0.0600 
    237 H237       -0.0430  -14.7295  -53.0574 H         1 UNK         0.0600 
    238 H238       -1.4287  -13.7799  -53.5656 H         1 UNK         0.0600 
    239 H239       -1.6186  -14.9907  -52.3035 H         1 UNK         0.0600 
    240 H240       -3.1380  -17.7213  -53.9669 H         1 UNK         0.3000 
    241 H241       -5.5691  -16.3170  -53.9730 H         1 UNK         0.0600 
    242 H242       -3.8156  -17.3047  -56.8372 H         1 UNK         0.3800 
    243 H243       -5.1606  -17.1230  -57.9350 H         1 UNK         0.3800 
    244 H244       -5.2897  -19.3148  -54.4567 H         1 UNK         0.0800 
    245 H245       -6.6532  -18.4838  -53.7571 H         1 UNK         0.0800 
    246 H246       -7.0104  -18.3566  -51.2140 H         1 UNK         0.0800 
    247 H247       -6.1307  -16.8562  -51.4307 H         1 UNK         0.0800 
@<TRIPOS>BOND
     1    1    2 1    
     2    1  127 1    
     3    1  128 1    
     4    1  129 1    
     5    2    3 2    
     6    2    4 am   BACKBONE|DICT|INTERRES
     7    4    5 1    
     8    4  130 1    
     9    5    6 1    
    10    5   65 1    
    11    5  131 1    
    12    6    7 1    
    13    6  132 1    
    14    6  133 1    
    15    7    8 1    
    16    8    9 1    
    17    8  134 1    
    18    8  135 1    
    19    9   10 ar   
    20    9   14 ar   
    21   10   11 ar   
    22   10  136 1    
    23   11   12 ar   
    24   11  126 1    
    25   12   13 ar   
    26   12  137 1    
    27   13   14 ar   
    28   13   15 1    
    29   14  138 1    
    30   15   16 1    
    31   15  139 1    
    32   15  140 1    
    33   16   17 1    
    34   17   18 1    
    35   17  141 1    
    36   17  142 1    
    37   18   19 1    
    38   18   67 1    
    39   18  143 1    
    40   19   20 am   BACKBONE|DICT|INTERRES
    41   19  144 1    
    42   20   21 2    
    43   20   22 1    
    44   22   23 1    
    45   22   24 1    
    46   22  145 1    
    47   23  146 1    
    48   23  147 1    
    49   23  148 1    
    50   24   25 am   BACKBONE|DICT|INTERRES
    51   24  149 1    
    52   25   26 2    
    53   25   27 1    
    54   27   28 1    
    55   27   29 1    
    56   27  150 1    
    57   28  151 1    
    58   28  152 1    
    59   28  153 1    
    60   29   30 am   BACKBONE|DICT|INTERRES
    61   29  154 1    
    62   30   31 2    
    63   30   32 1    
    64   32   33 1    
    65   32   34 1    
    66   32  155 1    
    67   33  156 1    
    68   33  157 1    
    69   33  158 1    
    70   34   35 am   BACKBONE|DICT|INTERRES
    71   34  159 1    
    72   35   36 2    
    73   35   37 1    
    74   37   38 1    
    75   37   39 1    
    76   37  160 1    
    77   38  161 1    
    78   38  162 1    
    79   38  163 1    
    80   39   40 am   BACKBONE|DICT|INTERRES
    81   39  164 1    
    82   40   41 2    
    83   40   42 1    
    84   42   43 1    
    85   42   44 1    
    86   42  165 1    
    87   43  166 1    
    88   43  167 1    
    89   43  168 1    
    90   44   45 am   BACKBONE|DICT|INTERRES
    91   44  169 1    
    92   45   46 2    
    93   45   47 1    
    94   47   48 1    
    95   47   49 1    
    96   47  170 1    
    97   48  171 1    
    98   48  172 1    
    99   48  173 1    
   100   49   50 am   BACKBONE|DICT|INTERRES
   101   49  174 1    
   102   50   51 2    
   103   50   52 1    
   104   52   53 1    
   105   52   54 1    
   106   52  175 1    
   107   53  176 1    
   108   53  177 1    
   109   53  178 1    
   110   54   55 am   BACKBONE|DICT|INTERRES
   111   54  179 1    
   112   55   56 2    
   113   55   57 1    
   114   57   58 1    
   115   57   59 1    
   116   57  180 1    
   117   58  181 1    
   118   58  182 1    
   119   58  183 1    
   120   59   60 am   BACKBONE|DICT|INTERRES
   121   59  184 1    
   122   60   61 2    
   123   60   62 1    
   124   62   63 1    
   125   62   64 1    
   126   62  185 1    
   127   63  186 1    
   128   63  187 1    
   129   63  188 1    
   130   64   65 am   BACKBONE|DICT|INTERRES
   131   64  189 1    
   132   65   66 2    
   133   67   68 2    
   134   67   69 am   BACKBONE|DICT|INTERRES
   135   69   70 1    
   136   69  190 1    
   137   70   71 1    
   138   70   72 1    
   139   70  191 1    
   140   71  192 1    
   141   71  193 1    
   142   71  194 1    
   143   72   73 2    
   144   72   74 am   BACKBONE|DICT|INTERRES
   145   74   75 1    
   146   74  195 1    
   147   75   76 1    
   148   75   77 1    
   149   75  196 1    
   150   76  197 1    
   151   76  198 1    
   152   76  199 1    
   153   77   78 2    
   154   77   79 am   BACKBONE|DICT|INTERRES
   155   79   80 1    
   156   79  200 1    
   157   80   81 1    
   158   80   82 1    
   159   80  201 1    
   160   81  202 1    
   161   81  203 1    
   162   81  204 1    
   163   82   83 2    
   164   82   84 am   BACKBONE|DICT|INTERRES
   165   84   85 1    
   166   84  205 1    
   167   85   86 1    
   168   85   87 1    
   169   85  206 1    
   170   86  207 1    
   171   86  208 1    
   172   86  209 1    
   173   87   88 2    
   174   87   89 am   BACKBONE|DICT|INTERRES
   175   89   90 1    
   176   89  210 1    
   177   90   91 1    
   178   90   92 1    
   179   90  211 1    
   180   91  212 1    
   181   91  213 1    
   182   91  214 1    
   183   92   93 2    
   184   92   94 am   BACKBONE|DICT|INTERRES
   185   94   95 1    
   186   94  215 1    
   187   95   96 1    
   188   95   97 1    
   189   95  216 1    
   190   96  217 1    
   191   96  218 1    
   192   96  219 1    
   193   97   98 2    
   194   97   99 am   BACKBONE|DICT|INTERRES
   195   99  100 1    
   196   99  220 1    
   197  100  101 1    
   198  100  102 1    
   199  100  221 1    
   200  101  222 1    
   201  101  223 1    
   202  101  224 1    
   203  102  103 2    
   204  102  104 am   BACKBONE|DICT|INTERRES
   205  104  105 1    
   206  104  225 1    
   207  105  106 1    
   208  105  107 1    
   209  105  226 1    
   210  106  227 1    
   211  106  228 1    
   212  106  229 1    
   213  107  108 2    
   214  107  109 am   BACKBONE|DICT|INTERRES
   215  109  110 1    
   216  109  230 1    
   217  110  111 1    
   218  110  112 1    
   219  110  231 1    
   220  111  232 1    
   221  111  233 1    
   222  111  234 1    
   223  112  113 2    
   224  112  114 am   BACKBONE|DICT|INTERRES
   225  114  115 1    
   226  114  235 1    
   227  115  116 1    
   228  115  117 1    
   229  115  236 1    
   230  116  237 1    
   231  116  238 1    
   232  116  239 1    
   233  117  118 2    
   234  117  119 am   BACKBONE|DICT|INTERRES
   235  119  120 1    
   236  119  240 1    
   237  120  121 1    
   238  120  124 1    
   239  120  241 1    
   240  121  122 am   BACKBONE|DICT|INTERRES
   241  121  123 2    
   242  122  242 1    
   243  122  243 1    
   244  124  125 1    
   245  124  244 1    
   246  124  245 1    
   247  125  126 1    
   248  126  246 1    
   249  126  247 1    
@<TRIPOS>SUBSTRUCTURE
     1 UNK         1 GROUP             0       ****    0 ROOT    
