@<TRIPOS>MOLECULE
3R540
247   249    1
SMALL
USER_CHARGES


@<TRIPOS>ATOM
      1 CA          2.6202  -10.5570  -49.0511 C.3       0 UNK        -0.1800 
      2 C           2.1320  -11.9366  -48.6342 C.2       0 UNK         0.5000 
      3 O           2.5750  -12.4585  -47.6116 O.2       0 UNK        -0.5000 
      4 N           1.2093  -12.5220  -49.4115 N.am      1 UNK        -0.5000 
      5 CA          0.6269  -13.8546  -49.1906 C.3       1 UNK         0.1400 
      6 C6         -0.2853  -14.2705  -50.3727 C.3       23 UNK        -0.0398 
      7 S7         -0.4588  -16.0785  -50.5297 S.3       23 UNK        -0.2404 
      8 C8          0.8840  -16.4313  -51.7044 C.3       23 UNK        -0.0205 
      9 C9          1.0760  -17.9274  -51.8774 C.ar      23 UNK        -0.0193 
     10 C10         0.5929  -18.5803  -53.0132 C.ar      23 UNK        -0.1150 
     11 C11         0.7619  -19.9625  -53.1722 C.ar      23 UNK        -0.0193 
     12 C12         1.4185  -20.6777  -52.1651 C.ar      23 UNK        -0.1150 
     13 C13         1.8989  -20.0431  -51.0150 C.ar      23 UNK        -0.0193 
     14 C14         1.7387  -18.6586  -50.8916 C.ar      23 UNK        -0.1150 
     15 C15         2.5927  -20.8831  -49.9413 C.3       23 UNK        -0.0205 
     16 S16         2.6000  -20.1632  -48.2603 S.3       23 UNK        -0.2404 
     17 C17         0.8212  -20.1378  -47.8500 C.3       23 UNK        -0.0398 
     18 CA          0.4271  -21.3758  -47.0185 C.3       11 UNK         0.1400 
     19 N           1.0525  -21.4015  -45.6925 N.am      11 UNK        -0.5000 
     20 C           1.3226  -22.5358  -45.0343 C.2       10 UNK         0.5000 
     21 O           1.0188  -23.6530  -45.4499 O.2       10 UNK        -0.5000 
     22 CA          1.9997  -22.4002  -43.6624 C.3       10 UNK         0.1400 
     23 CB          3.4829  -22.0317  -43.8182 C.3       10 UNK        -0.1800 
     24 N           1.3483  -21.4225  -42.7957 N.am      10 UNK        -0.5000 
     25 C           0.0759  -21.4736  -42.3798 C.2       9 UNK         0.5000 
     26 O          -0.7275  -22.3310  -42.7521 O.2       9 UNK        -0.5000 
     27 CA         -0.3672  -20.3687  -41.3993 C.3       9 UNK         0.1400 
     28 CB         -1.5549  -20.7905  -40.5104 C.3       9 UNK        -0.1800 
     29 N           0.7219  -19.8247  -40.5807 N.am      9 UNK        -0.5000 
     30 C           1.4867  -20.4830  -39.6943 C.2       8 UNK         0.5000 
     31 O           1.3921  -21.6885  -39.4620 O.2       8 UNK        -0.5000 
     32 CA          2.5477  -19.6566  -38.9395 C.3       8 UNK         0.1400 
     33 CB          3.9188  -19.8053  -39.6176 C.3       8 UNK        -0.1800 
     34 N           2.2171  -18.2334  -38.8486 N.am      8 UNK        -0.5000 
     35 C           1.2069  -17.7232  -38.1317 C.2       7 UNK         0.5000 
     36 O           0.4805  -18.3945  -37.3972 O.2       7 UNK        -0.5000 
     37 CA          0.9378  -16.2121  -38.2750 C.3       7 UNK         0.1400 
     38 CB          2.1608  -15.3991  -38.7578 C.3       7 UNK        -0.1800 
     39 N          -0.2255  -15.9475  -39.1287 N.am      7 UNK        -0.5000 
     40 C          -0.3902  -16.3060  -40.4111 C.2       6 UNK         0.5000 
     41 O           0.4357  -16.9665  -41.0478 O.2       6 UNK        -0.5000 
     42 CA         -1.6982  -15.8393  -41.0835 C.3       6 UNK         0.1400 
     43 CB         -1.9381  -14.3325  -40.8739 C.3       6 UNK        -0.1800 
     44 N          -1.6553  -16.1036  -42.5197 N.am      6 UNK        -0.5000 
     45 C          -2.0978  -17.2162  -43.1166 C.2       5 UNK         0.5000 
     46 O          -2.7437  -18.0902  -42.5399 O.2       5 UNK        -0.5000 
     47 CA         -1.7381  -17.3935  -44.6038 C.3       5 UNK         0.1400 
     48 CB         -2.7585  -16.6801  -45.5009 C.3       5 UNK        -0.1800 
     49 N          -0.4001  -16.8861  -44.8988 N.am      5 UNK        -0.5000 
     50 C           0.7403  -17.5440  -44.6492 C.2       4 UNK         0.5000 
     51 O           0.7821  -18.7205  -44.2845 O.2       4 UNK        -0.5000 
     52 CA          2.0569  -16.7730  -44.8578 C.3       4 UNK         0.1400 
     53 CB          2.6998  -17.1553  -46.1967 C.3       4 UNK        -0.1800 
     54 N           1.8567  -15.3235  -44.8310 N.am      4 UNK        -0.5000 
     55 C           2.0803  -14.5428  -43.7647 C.2       3 UNK         0.5000 
     56 O           2.5397  -14.9533  -42.6994 O.2       3 UNK        -0.5000 
     57 CA          1.7404  -13.0451  -43.9010 C.3       3 UNK         0.1400 
     58 CB          3.0133  -12.2231  -44.1539 C.3       3 UNK        -0.1800 
     59 N           0.7666  -12.7602  -44.9570 N.am      3 UNK        -0.5000 
     60 C          -0.5358  -13.0690  -44.8820 C.2       2 UNK         0.5000 
     61 O          -1.0419  -13.6398  -43.9184 O.2       2 UNK        -0.5000 
     62 CA         -1.4134  -12.7411  -46.1051 C.3       2 UNK         0.1400 
     63 CB         -1.9958  -11.3256  -45.9826 C.3       2 UNK        -0.1800 
     64 N          -0.7144  -12.8645  -47.3849 N.am      2 UNK        -0.5000 
     65 C          -0.1086  -13.9728  -47.8368 C.2       1 UNK         0.5000 
     66 O          -0.0662  -15.0290  -47.2047 O.2       1 UNK        -0.5000 
     67 C          -1.1000  -21.5375  -46.9386 C.2       11 UNK         0.5000 
     68 O          -1.6983  -21.9663  -47.9246 O.2       11 UNK        -0.5000 
     69 N          -1.7109  -21.2512  -45.7796 N.am      12 UNK        -0.5000 
     70 CA         -3.1121  -21.5852  -45.5126 C.3       12 UNK         0.1400 
     71 CB         -3.6145  -20.8580  -44.2594 C.3       12 UNK        -0.1800 
     72 C          -3.3204  -23.1053  -45.4041 C.2       12 UNK         0.5000 
     73 O          -4.2929  -23.6235  -45.9510 O.2       12 UNK        -0.5000 
     74 N          -2.3818  -23.7930  -44.7415 N.am      13 UNK        -0.5000 
     75 CA         -2.3564  -25.2479  -44.6316 C.3       13 UNK         0.1400 
     76 CB         -1.3935  -25.6559  -43.5051 C.3       13 UNK        -0.1800 
     77 C          -1.9772  -25.9328  -45.9580 C.2       13 UNK         0.5000 
     78 O          -2.6849  -26.8414  -46.3944 O.2       13 UNK        -0.5000 
     79 N          -0.8599  -25.5056  -46.5622 N.am      14 UNK        -0.5000 
     80 CA         -0.2474  -26.1847  -47.7051 C.3       14 UNK         0.1400 
     81 CB          1.2494  -25.8399  -47.7556 C.3       14 UNK        -0.1800 
     82 C          -0.8988  -25.8671  -49.0613 C.2       14 UNK         0.5000 
     83 O          -0.9137  -26.7420  -49.9284 O.2       14 UNK        -0.5000 
     84 N          -1.3772  -24.6295  -49.2460 N.am      15 UNK        -0.5000 
     85 CA         -1.7674  -24.0943  -50.5545 C.3       15 UNK         0.1400 
     86 CB         -0.6587  -23.1448  -51.0413 C.3       15 UNK        -0.1800 
     87 C          -3.1377  -23.3965  -50.5442 C.2       15 UNK         0.5000 
     88 O          -3.4692  -22.7240  -51.5212 O.2       15 UNK        -0.5000 
     89 N          -3.8998  -23.5407  -49.4487 N.am      16 UNK        -0.5000 
     90 CA         -5.2261  -22.9509  -49.2178 C.3       16 UNK         0.1400 
     91 CB         -6.2700  -23.5985  -50.1521 C.3       16 UNK        -0.1800 
     92 C          -5.2433  -21.4054  -49.2807 C.2       16 UNK         0.5000 
     93 O          -6.2698  -20.8202  -49.6288 O.2       16 UNK        -0.5000 
     94 N          -4.1036  -20.7773  -48.9460 N.am      17 UNK        -0.5000 
     95 CA         -3.8243  -19.3390  -49.0229 C.3       17 UNK         0.1400 
     96 CB         -4.6717  -18.5551  -47.9996 C.3       17 UNK        -0.1800 
     97 C          -3.9592  -18.8116  -50.4660 C.2       17 UNK         0.5000 
     98 O          -4.6605  -17.8290  -50.7127 O.2       17 UNK        -0.5000 
     99 N          -3.3221  -19.5325  -51.3994 N.am      18 UNK        -0.5000 
    100 CA        -3.3215  -19.3707  -52.8582 C.3       18 UNK         0.1400 
    101 CB        -2.9296  -17.9441  -53.2895 C.3       18 UNK        -0.1800 
    102 C         -4.6371  -19.8055  -53.5279 C.2       18 UNK         0.5000 
    103 O         -4.5835  -20.4407  -54.5809 O.2       18 UNK        -0.5000 
    104 N         -5.7827  -19.4646  -52.9203 N.am      19 UNK        -0.5000 
    105 CA        -7.1476  -19.7568  -53.3660 C.3       19 UNK         0.1400 
    106 CB        -7.4714  -21.2508  -53.1441 C.3       19 UNK        -0.1800 
    107 C         -7.3898  -19.2637  -54.8088 C.2       19 UNK         0.5000 
    108 O         -7.3167  -18.0574  -55.0531 O.2       19 UNK        -0.5000 
    109 N         -7.6288  -20.1900  -55.7455 N.am      20 UNK        -0.5000 
    110 CA        -7.7819  -19.9417  -57.1791 C.3       20 UNK         0.1400 
    111 CB        -8.5790  -21.1058  -57.7952 C.3       20 UNK        -0.1800 
    112 C         -6.4196  -19.7187  -57.8734 C.2       20 UNK         0.5000 
    113 O         -6.0549  -20.4720  -58.7790 O.2       20 UNK        -0.5000 
    114 N         -5.6845  -18.6945  -57.4161 N.am      21 UNK        -0.5000 
    115 CA        -4.4036  -18.2000  -57.9389 C.3       21 UNK         0.1400 
    116 CB        -4.6400  -17.4418  -59.2614 C.3       21 UNK        -0.1800 
    117 C         -3.3097  -19.2850  -58.0615 C.2       21 UNK         0.5000 
    118 O         -2.5626  -19.3020  -59.0418 O.2       21 UNK        -0.5000 
    119 N         -3.2547  -20.1809  -57.0683 N.am      22 UNK        -0.5000 
    120 CA        -2.3642  -21.3509  -56.9828 C.3       22 UNK         0.1400 
    121 C         -2.7048  -22.4983  -57.9837 C.2       22 UNK         0.5000 
    122 N         -3.8340  -22.4706  -58.6831 N.am      22 UNK        -0.7600 
    123 O         -1.9454  -23.4555  -58.1093 O.2       22 UNK        -0.5000 
    124 C124       -0.8488  -20.9935  -56.9869 C.3       23 UNK        -0.0398 
    125 S125       -0.3962  -19.7150  -55.7634 S.3       23 UNK        -0.2404 
    126 C126        0.2515  -20.7344  -54.3934 C.3       23 UNK        -0.0205 
    127 H127        3.6968  -10.5765  -49.2202 H         1 UNK         0.0600 
    128 H128        2.1378  -10.2150  -49.9670 H         1 UNK         0.0600 
    129 H129        2.4108   -9.8322  -48.2645 H         1 UNK         0.0600 
    130 H130        0.8850  -12.0318  -50.2332 H         1 UNK         0.3000 
    131 H131        1.4712  -14.5465  -49.1505 H         1 UNK         0.0600 
    132 H132       -1.2783  -13.8262  -50.2822 H         1 UNK         0.0800 
    133 H133        0.1168  -13.8914  -51.3134 H         1 UNK         0.0800 
    134 H134        1.8131  -15.9862  -51.3449 H         1 UNK         0.0800 
    135 H135        0.6622  -15.9589  -52.6627 H         1 UNK         0.0800 
    136 H136        0.0844  -17.9968  -53.7654 H         1 UNK         0.1150 
    137 H137        1.5545  -21.7442  -52.2772 H         1 UNK         0.1150 
    138 H138        2.1120  -18.1379  -50.0219 H         1 UNK         0.1150 
    139 H139        2.1299  -21.8698  -49.8875 H         1 UNK         0.0800 
    140 H140        3.6263  -21.0438  -50.2496 H         1 UNK         0.0800 
    141 H141        0.5975  -19.2193  -47.3056 H         1 UNK         0.0800 
    142 H142        0.2443  -20.0882  -48.7753 H         1 UNK         0.0800 
    143 H143        0.7781  -22.2479  -47.5756 H         1 UNK         0.0600 
    144 H144        1.2630  -20.5093  -45.2577 H         1 UNK         0.3000 
    145 H145        1.9388  -23.3713  -43.1667 H         1 UNK         0.0600 
    146 H146        3.9912  -22.0272  -42.8538 H         1 UNK         0.0600 
    147 H147        3.9994  -22.7522  -44.4539 H         1 UNK         0.0600 
    148 H148        3.6094  -21.0462  -44.2688 H         1 UNK         0.0600 
    149 H149        1.9140  -20.6517  -42.4737 H         1 UNK         0.3000 
    150 H150       -0.6965  -19.5444  -42.0278 H         1 UNK         0.0600 
    151 H151       -2.4245  -21.0559  -41.1113 H         1 UNK         0.0600 
    152 H152       -1.8577  -19.9770  -39.8510 H         1 UNK         0.0600 
    153 H153       -1.3106  -21.6538  -39.8911 H         1 UNK         0.0600 
    154 H154        0.8725  -18.8248  -40.6928 H         1 UNK         0.3000 
    155 H155        2.6190  -20.0563  -37.9259 H         1 UNK         0.0600 
    156 H156        4.2110  -20.8544  -39.6831 H         1 UNK         0.0600 
    157 H157        4.6958  -19.2877  -39.0547 H         1 UNK         0.0600 
    158 H158        3.9127  -19.4027  -40.6314 H         1 UNK         0.0600 
    159 H159        2.7357  -17.6083  -39.4488 H         1 UNK         0.3000 
    160 H160        0.6812  -15.8522  -37.2775 H         1 UNK         0.0600 
    161 H161        2.4456  -15.6387  -39.7829 H         1 UNK         0.0600 
    162 H162        1.9523  -14.3298  -38.7210 H         1 UNK         0.0600 
    163 H163        3.0279  -15.5783  -38.1208 H         1 UNK         0.0600 
    164 H164       -0.9751  -15.4405  -38.6799 H         1 UNK         0.3000 
    165 H165       -2.5254  -16.3889  -40.6299 H         1 UNK         0.0600 
    166 H166       -2.7980  -13.9874  -41.4485 H         1 UNK         0.0600 
    167 H167       -2.1404  -14.1001  -39.8281 H         1 UNK         0.0600 
    168 H168       -1.0745  -13.7417  -41.1825 H         1 UNK         0.0600 
    169 H169       -1.1659  -15.4109  -43.0763 H         1 UNK         0.3000 
    170 H170       -1.7650  -18.4588  -44.8379 H         1 UNK         0.0600 
    171 H171       -3.7581  -17.0908  -45.3553 H         1 UNK         0.0600 
    172 H172       -2.8082  -15.6135  -45.2828 H         1 UNK         0.0600 
    173 H173       -2.5038  -16.7950  -46.5547 H         1 UNK         0.0600 
    174 H174       -0.3427  -15.9601  -45.3018 H         1 UNK         0.3000 
    175 H175        2.7401  -17.0720  -44.0602 H         1 UNK         0.0600 
    176 H176        2.0247  -16.9867  -47.0371 H         1 UNK         0.0600 
    177 H177        3.6104  -16.5840  -46.3772 H         1 UNK         0.0600 
    178 H178        2.9772  -18.2086  -46.1944 H         1 UNK         0.0600 
    179 H179        1.4676  -14.9082  -45.6684 H         1 UNK         0.3000 
    180 H180        1.3130  -12.7209  -42.9495 H         1 UNK         0.0600 
    181 H181        3.7313  -12.3580  -43.3440 H         1 UNK         0.0600 
    182 H182        3.5066  -12.5197  -45.0800 H         1 UNK         0.0600 
    183 H183        2.7911  -11.1577  -44.2168 H         1 UNK         0.0600 
    184 H184        1.1294  -12.3528  -45.8096 H         1 UNK         0.3000 
    185 H185       -2.2427  -13.4502  -46.1156 H         1 UNK         0.0600 
    186 H186       -2.5431  -11.2083  -45.0462 H         1 UNK         0.0600 
    187 H187       -1.2140  -10.5653  -46.0037 H         1 UNK         0.0600 
    188 H188       -2.6934  -11.1138  -46.7932 H         1 UNK         0.0600 
    189 H189       -0.6741  -12.0344  -47.9579 H         1 UNK         0.3000 
    190 H190       -1.1498  -20.9441  -44.9985 H         1 UNK         0.3000 
    191 H191       -3.7189  -21.2370  -46.3479 H         1 UNK         0.0600 
    192 H192       -4.6120  -21.1996  -43.9801 H         1 UNK         0.0600 
    193 H193       -3.6857  -19.7858  -44.4344 H         1 UNK         0.0600 
    194 H194       -2.9612  -21.0196  -43.4040 H         1 UNK         0.0600 
    195 H195       -1.6425  -23.2868  -44.2639 H         1 UNK         0.3000 
    196 H196       -3.3567  -25.5879  -44.3545 H         1 UNK         0.0600 
    197 H197       -1.3572  -26.7403  -43.3944 H         1 UNK         0.0600 
    198 H198       -1.7112  -25.2409  -42.5484 H         1 UNK         0.0600 
    199 H199       -0.3769  -25.3095  -43.6945 H         1 UNK         0.0600 
    200 H200       -0.3053  -24.7743  -46.1222 H         1 UNK         0.3000 
    201 H201       -0.3296  -27.2626  -47.5478 H         1 UNK         0.0600 
    202 H202        1.7485  -26.1088  -46.8244 H         1 UNK         0.0600 
    203 H203        1.4121  -24.7753  -47.9278 H         1 UNK         0.0600 
    204 H204        1.7491  -26.3814  -48.5598 H         1 UNK         0.0600 
    205 H205       -1.3485  -23.9592  -48.4868 H         1 UNK         0.3000 
    206 H206       -1.8610  -24.8997  -51.2853 H         1 UNK         0.0600 
    207 H207        0.3044  -23.6533  -51.0837 H         1 UNK         0.0600 
    208 H208       -0.8706  -22.7735  -52.0440 H         1 UNK         0.0600 
    209 H209       -0.5524  -22.2799  -50.3859 H         1 UNK         0.0600 
    210 H210       -3.5323  -24.0972  -48.6900 H         1 UNK         0.3000 
    211 H211       -5.5069  -23.2082  -48.1972 H         1 UNK         0.0600 
    212 H212       -6.0797  -23.3599  -51.1986 H         1 UNK         0.0600 
    213 H213       -7.2781  -23.2563  -49.9157 H         1 UNK         0.0600 
    214 H214       -6.2671  -24.6838  -50.0513 H         1 UNK         0.0600 
    215 H215       -3.3117  -21.3563  -48.6765 H         1 UNK         0.3000 
    216 H216       -2.7765  -19.2109  -48.7463 H         1 UNK         0.0600 
    217 H217       -4.5116  -18.9270  -46.9880 H         1 UNK         0.0600 
    218 H218       -5.7380  -18.6204  -48.2162 H         1 UNK         0.0600 
    219 H219       -4.4057  -17.4977  -48.0044 H         1 UNK         0.0600 
    220 H220       -2.8711  -20.3810  -51.0852 H         1 UNK         0.3000 
    221 H221       -2.5449  -20.0462  -53.2196 H         1 UNK         0.0600 
    222 H222       -3.7326  -17.2279  -53.1137 H         1 UNK         0.0600 
    223 H223       -2.0512  -17.5931  -52.7506 H         1 UNK         0.0600 
    224 H224       -2.6973  -17.9145  -54.3547 H         1 UNK         0.0600 
    225 H225       -5.7018  -18.9032  -52.0792 H         1 UNK         0.3000 
    226 H226       -7.8147  -19.1753  -52.7284 H         1 UNK         0.0600 
    227 H227       -7.3904  -21.5054  -52.0880 H         1 UNK         0.0600 
    228 H228       -8.4924  -21.4858  -53.4476 H         1 UNK         0.0600 
    229 H229       -6.7954  -21.9081  -53.6923 H         1 UNK         0.0600 
    230 H230       -7.6122  -21.1592  -55.4636 H         1 UNK         0.3000 
    231 H231       -8.3672  -19.0305  -57.3188 H         1 UNK         0.0600 
    232 H232       -8.0549  -22.0561  -57.6860 H         1 UNK         0.0600 
    233 H233       -9.5572  -21.2063  -57.3245 H         1 UNK         0.0600 
    234 H234       -8.7487  -20.9435  -58.8604 H         1 UNK         0.0600 
    235 H235       -6.0665  -18.1829  -56.6266 H         1 UNK         0.3000 
    236 H236       -4.0319  -17.4812  -57.2073 H         1 UNK         0.0600 
    237 H237       -5.3866  -16.6573  -59.1381 H         1 UNK         0.0600 
    238 H238       -3.7242  -16.9629  -59.6100 H         1 UNK         0.0600 
    239 H239       -4.9833  -18.1102  -60.0518 H         1 UNK         0.0600 
    240 H240       -3.9173  -20.1078  -56.3003 H         1 UNK         0.3000 
    241 H241       -2.5769  -21.7832  -56.0046 H         1 UNK         0.0600 
    242 H242       -4.0393  -23.2274  -59.3156 H         1 UNK         0.3800 
    243 H243       -4.4828  -21.6933  -58.6106 H         1 UNK         0.3800 
    244 H244       -0.5462  -20.6375  -57.9723 H         1 UNK         0.0800 
    245 H245       -0.2470  -21.8841  -56.7996 H         1 UNK         0.0800 
    246 H246        1.0646  -21.3512  -54.7791 H         1 UNK         0.0800 
    247 H247       -0.5347  -21.4176  -54.0704 H         1 UNK         0.0800 
@<TRIPOS>BOND
     1    1    2 1    
     2    1  127 1    
     3    1  128 1    
     4    1  129 1    
     5    2    3 2    
     6    2    4 am   BACKBONE|DICT|INTERRES
     7    4    5 1    
     8    4  130 1    
     9    5    6 1    
    10    5   65 1    
    11    5  131 1    
    12    6    7 1    
    13    6  132 1    
    14    6  133 1    
    15    7    8 1    
    16    8    9 1    
    17    8  134 1    
    18    8  135 1    
    19    9   10 ar   
    20    9   14 ar   
    21   10   11 ar   
    22   10  136 1    
    23   11   12 ar   
    24   11  126 1    
    25   12   13 ar   
    26   12  137 1    
    27   13   14 ar   
    28   13   15 1    
    29   14  138 1    
    30   15   16 1    
    31   15  139 1    
    32   15  140 1    
    33   16   17 1    
    34   17   18 1    
    35   17  141 1    
    36   17  142 1    
    37   18   19 1    
    38   18   67 1    
    39   18  143 1    
    40   19   20 am   BACKBONE|DICT|INTERRES
    41   19  144 1    
    42   20   21 2    
    43   20   22 1    
    44   22   23 1    
    45   22   24 1    
    46   22  145 1    
    47   23  146 1    
    48   23  147 1    
    49   23  148 1    
    50   24   25 am   BACKBONE|DICT|INTERRES
    51   24  149 1    
    52   25   26 2    
    53   25   27 1    
    54   27   28 1    
    55   27   29 1    
    56   27  150 1    
    57   28  151 1    
    58   28  152 1    
    59   28  153 1    
    60   29   30 am   BACKBONE|DICT|INTERRES
    61   29  154 1    
    62   30   31 2    
    63   30   32 1    
    64   32   33 1    
    65   32   34 1    
    66   32  155 1    
    67   33  156 1    
    68   33  157 1    
    69   33  158 1    
    70   34   35 am   BACKBONE|DICT|INTERRES
    71   34  159 1    
    72   35   36 2    
    73   35   37 1    
    74   37   38 1    
    75   37   39 1    
    76   37  160 1    
    77   38  161 1    
    78   38  162 1    
    79   38  163 1    
    80   39   40 am   BACKBONE|DICT|INTERRES
    81   39  164 1    
    82   40   41 2    
    83   40   42 1    
    84   42   43 1    
    85   42   44 1    
    86   42  165 1    
    87   43  166 1    
    88   43  167 1    
    89   43  168 1    
    90   44   45 am   BACKBONE|DICT|INTERRES
    91   44  169 1    
    92   45   46 2    
    93   45   47 1    
    94   47   48 1    
    95   47   49 1    
    96   47  170 1    
    97   48  171 1    
    98   48  172 1    
    99   48  173 1    
   100   49   50 am   BACKBONE|DICT|INTERRES
   101   49  174 1    
   102   50   51 2    
   103   50   52 1    
   104   52   53 1    
   105   52   54 1    
   106   52  175 1    
   107   53  176 1    
   108   53  177 1    
   109   53  178 1    
   110   54   55 am   BACKBONE|DICT|INTERRES
   111   54  179 1    
   112   55   56 2    
   113   55   57 1    
   114   57   58 1    
   115   57   59 1    
   116   57  180 1    
   117   58  181 1    
   118   58  182 1    
   119   58  183 1    
   120   59   60 am   BACKBONE|DICT|INTERRES
   121   59  184 1    
   122   60   61 2    
   123   60   62 1    
   124   62   63 1    
   125   62   64 1    
   126   62  185 1    
   127   63  186 1    
   128   63  187 1    
   129   63  188 1    
   130   64   65 am   BACKBONE|DICT|INTERRES
   131   64  189 1    
   132   65   66 2    
   133   67   68 2    
   134   67   69 am   BACKBONE|DICT|INTERRES
   135   69   70 1    
   136   69  190 1    
   137   70   71 1    
   138   70   72 1    
   139   70  191 1    
   140   71  192 1    
   141   71  193 1    
   142   71  194 1    
   143   72   73 2    
   144   72   74 am   BACKBONE|DICT|INTERRES
   145   74   75 1    
   146   74  195 1    
   147   75   76 1    
   148   75   77 1    
   149   75  196 1    
   150   76  197 1    
   151   76  198 1    
   152   76  199 1    
   153   77   78 2    
   154   77   79 am   BACKBONE|DICT|INTERRES
   155   79   80 1    
   156   79  200 1    
   157   80   81 1    
   158   80   82 1    
   159   80  201 1    
   160   81  202 1    
   161   81  203 1    
   162   81  204 1    
   163   82   83 2    
   164   82   84 am   BACKBONE|DICT|INTERRES
   165   84   85 1    
   166   84  205 1    
   167   85   86 1    
   168   85   87 1    
   169   85  206 1    
   170   86  207 1    
   171   86  208 1    
   172   86  209 1    
   173   87   88 2    
   174   87   89 am   BACKBONE|DICT|INTERRES
   175   89   90 1    
   176   89  210 1    
   177   90   91 1    
   178   90   92 1    
   179   90  211 1    
   180   91  212 1    
   181   91  213 1    
   182   91  214 1    
   183   92   93 2    
   184   92   94 am   BACKBONE|DICT|INTERRES
   185   94   95 1    
   186   94  215 1    
   187   95   96 1    
   188   95   97 1    
   189   95  216 1    
   190   96  217 1    
   191   96  218 1    
   192   96  219 1    
   193   97   98 2    
   194   97   99 am   BACKBONE|DICT|INTERRES
   195   99  100 1    
   196   99  220 1    
   197  100  101 1    
   198  100  102 1    
   199  100  221 1    
   200  101  222 1    
   201  101  223 1    
   202  101  224 1    
   203  102  103 2    
   204  102  104 am   BACKBONE|DICT|INTERRES
   205  104  105 1    
   206  104  225 1    
   207  105  106 1    
   208  105  107 1    
   209  105  226 1    
   210  106  227 1    
   211  106  228 1    
   212  106  229 1    
   213  107  108 2    
   214  107  109 am   BACKBONE|DICT|INTERRES
   215  109  110 1    
   216  109  230 1    
   217  110  111 1    
   218  110  112 1    
   219  110  231 1    
   220  111  232 1    
   221  111  233 1    
   222  111  234 1    
   223  112  113 2    
   224  112  114 am   BACKBONE|DICT|INTERRES
   225  114  115 1    
   226  114  235 1    
   227  115  116 1    
   228  115  117 1    
   229  115  236 1    
   230  116  237 1    
   231  116  238 1    
   232  116  239 1    
   233  117  118 2    
   234  117  119 am   BACKBONE|DICT|INTERRES
   235  119  120 1    
   236  119  240 1    
   237  120  121 1    
   238  120  124 1    
   239  120  241 1    
   240  121  122 am   BACKBONE|DICT|INTERRES
   241  121  123 2    
   242  122  242 1    
   243  122  243 1    
   244  124  125 1    
   245  124  244 1    
   246  124  245 1    
   247  125  126 1    
   248  126  246 1    
   249  126  247 1    
@<TRIPOS>SUBSTRUCTURE
     1 UNK         1 GROUP             0       ****    0 ROOT    
