@<TRIPOS>MOLECULE
3R540
247   249    1
SMALL
USER_CHARGES


@<TRIPOS>ATOM
      1 CA          5.6569  -19.4287  -45.6331 C.3       0 UNK        -0.1800 
      2 C           5.0738  -18.2141  -44.9280 C.2       0 UNK         0.5000 
      3 O           4.8739  -18.2441  -43.7137 O.2       0 UNK        -0.5000 
      4 N           4.8119  -17.1338  -45.6757 N.am      1 UNK        -0.5000 
      5 CA          4.1785  -15.8975  -45.1892 C.3       1 UNK         0.1400 
      6 C6          3.7265  -14.9688  -46.3403 C.3       23 UNK        -0.0398 
      7 S7          2.5747  -15.7996  -47.4848 S.3       23 UNK        -0.2404 
      8 C8          3.4391  -15.5651  -49.0639 C.3       23 UNK        -0.0205 
      9 C9          2.7157  -16.2514  -50.2109 C.ar      23 UNK        -0.0193 
     10 C10         1.5446  -15.6974  -50.7369 C.ar      23 UNK        -0.1150 
     11 C11         0.9096  -16.2899  -51.8325 C.ar      23 UNK        -0.0193 
     12 C12         1.4557  -17.4427  -52.4022 C.ar      23 UNK        -0.1150 
     13 C13         2.6227  -18.0090  -51.8818 C.ar      23 UNK        -0.0193 
     14 C14         3.2434  -17.4138  -50.7803 C.ar      23 UNK        -0.1150 
     15 C15         3.2417  -19.2334  -52.5397 C.3       23 UNK        -0.0205 
     16 S16         2.9649  -20.7550  -51.5826 S.3       23 UNK        -0.2404 
     17 C17         1.1696  -21.0088  -51.7904 C.3       23 UNK        -0.0398 
     18 CA          0.4839  -21.3946  -50.4613 C.3       11 UNK         0.1400 
     19 N           0.6712  -20.3975  -49.4019 N.am      11 UNK        -0.5000 
     20 C           0.4429  -20.6466  -48.1057 C.2       10 UNK         0.5000 
     21 O           0.0467  -21.7315  -47.6796 O.2       10 UNK        -0.5000 
     22 CA          0.6511  -19.4833  -47.1218 C.3       10 UNK         0.1400 
     23 CB          2.1241  -19.3796  -46.7053 C.3       10 UNK        -0.1800 
     24 N           0.1959  -18.1818  -47.6135 N.am      10 UNK        -0.5000 
     25 C          -1.0557  -17.8936  -47.9970 C.2       9 UNK         0.5000 
     26 O          -1.9401  -18.7419  -48.1232 O.2       9 UNK        -0.5000 
     27 CA         -1.3621  -16.3991  -48.2379 C.3       9 UNK         0.1400 
     28 CB         -2.8666  -16.1141  -48.4232 C.3       9 UNK        -0.1800 
     29 N          -0.8039  -15.5282  -47.1936 N.am      9 UNK        -0.5000 
     30 C          -1.0331  -15.5988  -45.8725 C.2       8 UNK         0.5000 
     31 O          -1.7637  -16.4436  -45.3489 O.2       8 UNK        -0.5000 
     32 CA         -0.2851  -14.5812  -44.9789 C.3       8 UNK         0.1400 
     33 CB          0.0102  -13.2326  -45.6720 C.3       8 UNK        -0.1800 
     34 N          -0.9582  -14.3765  -43.6920 N.am      8 UNK        -0.5000 
     35 C          -2.1939  -13.8944  -43.4889 C.2       7 UNK         0.5000 
     36 O          -2.8963  -13.4091  -44.3773 O.2       7 UNK        -0.5000 
     37 CA         -2.7577  -13.9700  -42.0593 C.3       7 UNK         0.1400 
     38 CB         -3.5197  -15.2891  -41.8495 C.3       7 UNK        -0.1800 
     39 N          -1.7260  -13.8416  -41.0268 N.am      7 UNK        -0.5000 
     40 C          -1.8523  -13.0972  -39.9183 C.2       6 UNK         0.5000 
     41 O          -2.8550  -12.4315  -39.6543 O.2       6 UNK        -0.5000 
     42 CA         -0.6746  -13.0902  -38.9194 C.3       6 UNK         0.1400 
     43 CB         -0.9656  -14.0350  -37.7431 C.3       6 UNK        -0.1800 
     44 N           0.6078  -13.4646  -39.5147 N.am      6 UNK        -0.5000 
     45 C           1.2717  -12.7454  -40.4284 C.2       5 UNK         0.5000 
     46 O           0.9164  -11.6269  -40.8017 O.2       5 UNK        -0.5000 
     47 CA          2.5316  -13.3817  -41.0486 C.3       5 UNK         0.1400 
     48 CB          3.7965  -12.7382  -40.4582 C.3       5 UNK        -0.1800 
     49 N           2.6503  -14.8404  -40.9210 N.am      5 UNK        -0.5000 
     50 C           1.7751  -15.7692  -41.3308 C.2       4 UNK         0.5000 
     51 O           0.6521  -15.4935  -41.7547 O.2       4 UNK        -0.5000 
     52 CA          2.2175  -17.2476  -41.2616 C.3       4 UNK         0.1400 
     53 CB          1.6399  -18.0671  -42.4304 C.3       4 UNK        -0.1800 
     54 N           3.6733  -17.4154  -41.2482 N.am      4 UNK        -0.5000 
     55 C           4.4604  -17.3472  -40.1661 C.2       3 UNK         0.5000 
     56 O           4.0432  -17.1053  -39.0339 O.2       3 UNK        -0.5000 
     57 CA          5.9679  -17.5334  -40.4002 C.3       3 UNK         0.1400 
     58 CB          6.3152  -19.0233  -40.5455 C.3       3 UNK        -0.1800 
     59 N           6.3996  -16.8161  -41.5996 N.am      3 UNK        -0.5000 
     60 C           6.8763  -15.5630  -41.6106 C.2       2 UNK         0.5000 
     61 O           7.0502  -14.8886  -40.5953 O.2       2 UNK        -0.5000 
     62 CA          7.2077  -14.9532  -42.9884 C.3       2 UNK         0.1400 
     63 CB          8.6659  -15.2480  -43.3710 C.3       2 UNK        -0.1800 
     64 N           6.3255  -15.4485  -44.0456 N.am      2 UNK        -0.5000 
     65 C           5.0324  -15.1171  -44.1658 C.2       1 UNK         0.5000 
     66 O           4.4963  -14.2435  -43.4881 O.2       1 UNK        -0.5000 
     67 C          -1.0061  -21.7138  -50.6893 C.2       11 UNK         0.5000 
     68 O          -1.3399  -22.8722  -50.9337 O.2       11 UNK        -0.5000 
     69 N          -1.8776  -20.7011  -50.5654 N.am      12 UNK        -0.5000 
     70 CA         -3.3298  -20.8637  -50.6310 C.3       12 UNK         0.1400 
     71 CB         -4.0104  -19.4942  -50.7520 C.3       12 UNK        -0.1800 
     72 C          -3.8654  -21.6238  -49.4100 C.2       12 UNK         0.5000 
     73 O          -4.6973  -22.5131  -49.5741 O.2       12 UNK        -0.5000 
     74 N          -3.3487  -21.2903  -48.2188 N.am      13 UNK        -0.5000 
     75 CA         -3.6671  -21.9550  -46.9553 C.3       13 UNK         0.1400 
     76 CB         -3.0033  -21.2010  -45.7933 C.3       13 UNK        -0.1800 
     77 C          -3.2689  -23.4425  -46.9545 C.2       13 UNK         0.5000 
     78 O          -4.0788  -24.2846  -46.5659 O.2       13 UNK        -0.5000 
     79 N          -2.0583  -23.7463  -47.4458 N.am      14 UNK        -0.5000 
     80 CA         -1.5482  -25.1089  -47.6286 C.3       14 UNK         0.1400 
     81 CB         -0.0702  -25.0454  -48.0417 C.3       14 UNK        -0.1800 
     82 C          -2.3598  -25.9284  -48.6520 C.2       14 UNK         0.5000 
     83 O          -2.5377  -27.1326  -48.4681 O.2       14 UNK        -0.5000 
     84 N          -2.8633  -25.2514  -49.6909 N.am      15 UNK        -0.5000 
     85 CA         -3.7312  -25.8032  -50.7312 C.3       15 UNK         0.1400 
     86 CB         -3.5374  -24.9621  -51.9991 C.3       15 UNK        -0.1800 
     87 C          -5.2232  -25.8503  -50.3361 C.2       15 UNK         0.5000 
     88 O          -6.0502  -26.2336  -51.1692 O.2       15 UNK        -0.5000 
     89 N          -5.5497  -25.4196  -49.1060 N.am      16 UNK        -0.5000 
     90 CA         -6.8860  -25.3158  -48.5044 C.3       16 UNK         0.1400 
     91 CB         -7.4701  -26.7233  -48.2660 C.3       16 UNK        -0.1800 
     92 C          -7.8547  -24.4026  -49.2894 C.2       16 UNK         0.5000 
     93 O          -9.0703  -24.5867  -49.2102 O.2       16 UNK        -0.5000 
     94 N          -7.2920  -23.4635  -50.0657 N.am      17 UNK        -0.5000 
     95 CA         -7.9343  -22.6030  -51.0652 C.3       17 UNK         0.1400 
     96 CB         -8.8525  -21.5719  -50.3788 C.3       17 UNK        -0.1800 
     97 C          -8.6537  -23.3820  -52.1936 C.2       17 UNK         0.5000 
     98 O          -9.5070  -22.8101  -52.8747 O.2       17 UNK        -0.5000 
     99 N          -8.3197  -24.6697  -52.3611 N.am      18 UNK        -0.5000 
    100 CA        -9.0018  -25.6070  -53.2478 C.3       18 UNK         0.1400 
    101 CB        -9.4659  -26.8229  -52.4285 C.3       18 UNK        -0.1800 
    102 C         -8.0861  -26.0415  -54.3975 C.2       18 UNK         0.5000 
    103 O         -8.4911  -25.9533  -55.5574 O.2       18 UNK        -0.5000 
    104 N         -6.8685  -26.4964  -54.0673 N.am      19 UNK        -0.5000 
    105 CA        -5.8847  -26.9597  -55.0524 C.3       19 UNK         0.1400 
    106 CB        -4.8996  -27.9239  -54.3717 C.3       19 UNK        -0.1800 
    107 C         -5.1443  -25.8039  -55.7562 C.2       19 UNK         0.5000 
    108 O         -4.5955  -26.0045  -56.8403 O.2       19 UNK        -0.5000 
    109 N         -5.1530  -24.6214  -55.1341 N.am      20 UNK        -0.5000 
    110 CA        -4.5455  -23.3735  -55.5765 C.3       20 UNK         0.1400 
    111 CB        -3.0082  -23.4578  -55.5001 C.3       20 UNK        -0.1800 
    112 C         -5.0722  -22.2587  -54.6622 C.2       20 UNK         0.5000 
    113 O         -5.5788  -22.5481  -53.5743 O.2       20 UNK        -0.5000 
    114 N         -4.9282  -21.0078  -55.1042 N.am      21 UNK        -0.5000 
    115 CA        -5.2869  -19.8106  -54.3536 C.3       21 UNK         0.1400 
    116 CB        -6.7870  -19.5101  -54.5202 C.3       21 UNK        -0.1800 
    117 C         -4.4201  -18.6405  -54.8389 C.2       21 UNK         0.5000 
    118 O         -3.9484  -18.6611  -55.9794 O.2       21 UNK        -0.5000 
    119 N         -4.2298  -17.6461  -53.9665 N.am      22 UNK        -0.5000 
    120 CA        -3.5132  -16.3974  -54.2620 C.3       22 UNK         0.1400 
    121 C         -4.3515  -15.4514  -55.1660 C.2       22 UNK         0.5000 
    122 N         -3.7161  -14.7332  -56.0817 N.am      22 UNK        -0.7600 
    123 O         -5.5659  -15.3318  -55.0174 O.2       22 UNK        -0.5000 
    124 C124       -3.0867  -15.6698  -52.9614 C.3       23 UNK        -0.0398 
    125 S125       -1.8355  -16.6061  -52.0166 S.3       23 UNK        -0.2404 
    126 C126       -0.3376  -15.6647  -52.4359 C.3       23 UNK        -0.0205 
    127 H127        5.7259  -19.2770  -46.7105 H         1 UNK         0.0600 
    128 H128        5.0295  -20.3014  -45.4525 H         1 UNK         0.0600 
    129 H129        6.6554  -19.6401  -45.2512 H         1 UNK         0.0600 
    130 H130        4.9979  -17.1639  -46.6676 H         1 UNK         0.3000 
    131 H131        3.2783  -16.1977  -44.6502 H         1 UNK         0.0600 
    132 H132        4.5926  -14.5924  -46.8875 H         1 UNK         0.0800 
    133 H133        3.2138  -14.0900  -45.9446 H         1 UNK         0.0800 
    134 H134        4.4590  -15.9434  -48.9782 H         1 UNK         0.0800 
    135 H135        3.5219  -14.4980  -49.2755 H         1 UNK         0.0800 
    136 H136        1.1405  -14.7934  -50.3030 H         1 UNK         0.1150 
    137 H137        0.9755  -17.8890  -53.2619 H         1 UNK         0.1150 
    138 H138        4.1529  -17.8442  -50.3847 H         1 UNK         0.1150 
    139 H139        2.8564  -19.3674  -53.5518 H         1 UNK         0.0800 
    140 H140        4.3163  -19.0771  -52.6446 H         1 UNK         0.0800 
    141 H141        1.0336  -21.7988  -52.5314 H         1 UNK         0.0800 
    142 H142        0.7061  -20.1169  -52.2117 H         1 UNK         0.0800 
    143 H143        0.9502  -22.3213  -50.1182 H         1 UNK         0.0600 
    144 H144        1.0075  -19.4867  -49.6791 H         1 UNK         0.3000 
    145 H145        0.0658  -19.7089  -46.2283 H         1 UNK         0.0600 
    146 H146        2.2506  -18.6455  -45.9099 H         1 UNK         0.0600 
    147 H147        2.4939  -20.3336  -46.3274 H         1 UNK         0.0600 
    148 H148        2.7607  -19.0854  -47.5409 H         1 UNK         0.0600 
    149 H149        0.8612  -17.4225  -47.5501 H         1 UNK         0.3000 
    150 H150       -0.8585  -16.1305  -49.1662 H         1 UNK         0.0600 
    151 H151       -3.2661  -16.6586  -49.2785 H         1 UNK         0.0600 
    152 H152       -3.0471  -15.0547  -48.6043 H         1 UNK         0.0600 
    153 H153       -3.4456  -16.4091  -47.5475 H         1 UNK         0.0600 
    154 H154       -0.1648  -14.8178  -47.5205 H         1 UNK         0.3000 
    155 H155        0.6736  -15.0429  -44.7381 H         1 UNK         0.0600 
    156 H156        0.7006  -13.3549  -46.5068 H         1 UNK         0.0600 
    157 H157        0.4749  -12.5315  -44.9785 H         1 UNK         0.0600 
    158 H158       -0.8966  -12.7664  -46.0585 H         1 UNK         0.0600 
    159 H159       -0.4682  -14.7982  -42.9062 H         1 UNK         0.3000 
    160 H160       -3.4727  -13.1491  -41.9732 H         1 UNK         0.0600 
    161 H161       -2.8527  -16.1500  -41.9123 H         1 UNK         0.0600 
    162 H162       -4.2952  -15.4182  -42.6056 H         1 UNK         0.0600 
    163 H163       -4.0077  -15.3121  -40.8750 H         1 UNK         0.0600 
    164 H164       -0.8642  -14.3570  -41.1707 H         1 UNK         0.3000 
    165 H165       -0.5826  -12.0747  -38.5287 H         1 UNK         0.0600 
    166 H166       -0.1778  -13.9844  -36.9912 H         1 UNK         0.0600 
    167 H167       -1.9012  -13.7686  -37.2494 H         1 UNK         0.0600 
    168 H168       -1.0517  -15.0714  -38.0721 H         1 UNK         0.0600 
    169 H169        0.9744  -14.3727  -39.2707 H         1 UNK         0.3000 
    170 H170        2.4971  -13.1552  -42.1156 H         1 UNK         0.0600 
    171 H171        3.7719  -11.6527  -40.5631 H         1 UNK         0.0600 
    172 H172        3.9032  -12.9647  -39.3967 H         1 UNK         0.0600 
    173 H173        4.6939  -13.0897  -40.9676 H         1 UNK         0.0600 
    174 H174        3.5344  -15.1744  -40.5673 H         1 UNK         0.3000 
    175 H175        1.8076  -17.6559  -40.3359 H         1 UNK         0.0600 
    176 H176        0.5492  -18.0529  -42.4238 H         1 UNK         0.0600 
    177 H177        1.9661  -17.6808  -43.3957 H         1 UNK         0.0600 
    178 H178        1.9478  -19.1110  -42.3694 H         1 UNK         0.0600 
    179 H179        4.1030  -17.6415  -42.1423 H         1 UNK         0.3000 
    180 H180        6.4971  -17.1495  -39.5254 H         1 UNK         0.0600 
    181 H181        5.8172  -19.4757  -41.4040 H         1 UNK         0.0600 
    182 H182        6.0133  -19.5821  -39.6588 H         1 UNK         0.0600 
    183 H183        7.3888  -19.1655  -40.6694 H         1 UNK         0.0600 
    184 H184        6.2277  -17.2824  -42.4823 H         1 UNK         0.3000 
    185 H185        7.0862  -13.8704  -42.9126 H         1 UNK         0.0600 
    186 H186        8.9306  -14.7691  -44.3139 H         1 UNK         0.0600 
    187 H187        9.3522  -14.8704  -42.6118 H         1 UNK         0.0600 
    188 H188        8.8476  -16.3186  -43.4746 H         1 UNK         0.0600 
    189 H189        6.6946  -16.1649  -44.6534 H         1 UNK         0.3000 
    190 H190       -1.5358  -19.7912  -50.2906 H         1 UNK         0.3000 
    191 H191       -3.5700  -21.4426  -51.5257 H         1 UNK         0.0600 
    192 H192       -3.8696  -18.8875  -49.8588 H         1 UNK         0.0600 
    193 H193       -5.0852  -19.6064  -50.8987 H         1 UNK         0.0600 
    194 H194       -3.6145  -18.9377  -51.5983 H         1 UNK         0.0600 
    195 H195       -2.7036  -20.5056  -48.1748 H         1 UNK         0.3000 
    196 H196       -4.7492  -21.9011  -46.8199 H         1 UNK         0.0600 
    197 H197       -3.2734  -21.6462  -44.8351 H         1 UNK         0.0600 
    198 H198       -3.3182  -20.1574  -45.7691 H         1 UNK         0.0600 
    199 H199       -1.9163  -21.2184  -45.8680 H         1 UNK         0.0600 
    200 H200       -1.4290  -22.9890  -47.6990 H         1 UNK         0.3000 
    201 H201       -1.6133  -25.6219  -46.6670 H         1 UNK         0.0600 
    202 H202        0.5288  -24.5370  -47.2860 H         1 UNK         0.0600 
    203 H203        0.0601  -24.5136  -48.9849 H         1 UNK         0.0600 
    204 H204        0.3451  -26.0461  -48.1673 H         1 UNK         0.0600 
    205 H205       -2.6299  -24.2702  -49.7856 H         1 UNK         0.3000 
    206 H206       -3.4228  -26.8273  -50.9501 H         1 UNK         0.0600 
    207 H207       -2.5007  -24.9868  -52.3349 H         1 UNK         0.0600 
    208 H208       -4.1488  -25.3361  -52.8143 H         1 UNK         0.0600 
    209 H209       -3.8152  -23.9204  -51.8383 H         1 UNK         0.0600 
    210 H210       -4.7973  -25.0788  -48.5205 H         1 UNK         0.3000 
    211 H211       -6.7455  -24.8429  -47.5317 H         1 UNK         0.0600 
    212 H212       -7.6994  -27.2293  -49.2045 H         1 UNK         0.0600 
    213 H213       -8.3931  -26.6734  -47.6872 H         1 UNK         0.0600 
    214 H214       -6.7736  -27.3495  -47.7084 H         1 UNK         0.0600 
    215 H215       -6.2825  -23.3461  -49.9936 H         1 UNK         0.3000 
    216 H216       -7.1269  -22.0488  -51.5435 H         1 UNK         0.0600 
    217 H217       -9.2135  -20.8314  -51.0934 H         1 UNK         0.0600 
    218 H218       -8.3204  -21.0314  -49.5959 H         1 UNK         0.0600 
    219 H219       -9.7255  -22.0445  -49.9280 H         1 UNK         0.0600 
    220 H220       -7.5824  -25.0562  -51.7815 H         1 UNK         0.3000 
    221 H221       -9.8882  -25.1456  -53.6880 H         1 UNK         0.0600 
    222 H222       -8.6315  -27.3278  -51.9400 H         1 UNK         0.0600 
    223 H223      -10.1708  -26.5241  -51.6524 H         1 UNK         0.0600 
    224 H224       -9.9692  -27.5538  -53.0626 H         1 UNK         0.0600 
    225 H225       -6.5985  -26.5352  -53.0894 H         1 UNK         0.3000 
    226 H226       -6.4070  -27.5225  -55.8292 H         1 UNK         0.0600 
    227 H227       -5.4192  -28.7955  -53.9733 H         1 UNK         0.0600 
    228 H228       -4.1557  -28.2880  -55.0815 H         1 UNK         0.0600 
    229 H229       -4.3637  -27.4543  -53.5487 H         1 UNK         0.0600 
    230 H230       -5.6601  -24.5274  -54.2623 H         1 UNK         0.3000 
    231 H231       -4.8601  -23.1697  -56.6017 H         1 UNK         0.0600 
    232 H232       -2.6158  -24.2467  -56.1414 H         1 UNK         0.0600 
    233 H233       -2.6667  -23.6531  -54.4833 H         1 UNK         0.0600 
    234 H234       -2.5480  -22.5241  -55.8249 H         1 UNK         0.0600 
    235 H235       -4.4634  -20.8217  -55.9845 H         1 UNK         0.3000 
    236 H236       -5.0714  -19.9790  -53.2983 H         1 UNK         0.0600 
    237 H237       -7.0691  -18.6074  -53.9769 H         1 UNK         0.0600 
    238 H238       -7.0506  -19.3599  -55.5677 H         1 UNK         0.0600 
    239 H239       -7.3996  -20.3250  -54.1335 H         1 UNK         0.0600 
    240 H240       -4.6819  -17.6863  -53.0660 H         1 UNK         0.3000 
    241 H241       -2.6058  -16.6584  -54.8112 H         1 UNK         0.0600 
    242 H242       -4.2470  -14.1047  -56.6650 H         1 UNK         0.3800 
    243 H243       -2.7201  -14.8102  -56.2205 H         1 UNK         0.3800 
    244 H244       -2.6875  -14.6789  -53.1860 H         1 UNK         0.0800 
    245 H245       -3.9510  -15.5012  -52.3167 H         1 UNK         0.0800 
    246 H246       -0.2294  -15.6199  -53.5207 H         1 UNK         0.0800 
    247 H247       -0.4513  -14.6351  -52.0929 H         1 UNK         0.0800 
@<TRIPOS>BOND
     1    1    2 1    
     2    1  127 1    
     3    1  128 1    
     4    1  129 1    
     5    2    3 2    
     6    2    4 am   BACKBONE|DICT|INTERRES
     7    4    5 1    
     8    4  130 1    
     9    5    6 1    
    10    5   65 1    
    11    5  131 1    
    12    6    7 1    
    13    6  132 1    
    14    6  133 1    
    15    7    8 1    
    16    8    9 1    
    17    8  134 1    
    18    8  135 1    
    19    9   10 ar   
    20    9   14 ar   
    21   10   11 ar   
    22   10  136 1    
    23   11   12 ar   
    24   11  126 1    
    25   12   13 ar   
    26   12  137 1    
    27   13   14 ar   
    28   13   15 1    
    29   14  138 1    
    30   15   16 1    
    31   15  139 1    
    32   15  140 1    
    33   16   17 1    
    34   17   18 1    
    35   17  141 1    
    36   17  142 1    
    37   18   19 1    
    38   18   67 1    
    39   18  143 1    
    40   19   20 am   BACKBONE|DICT|INTERRES
    41   19  144 1    
    42   20   21 2    
    43   20   22 1    
    44   22   23 1    
    45   22   24 1    
    46   22  145 1    
    47   23  146 1    
    48   23  147 1    
    49   23  148 1    
    50   24   25 am   BACKBONE|DICT|INTERRES
    51   24  149 1    
    52   25   26 2    
    53   25   27 1    
    54   27   28 1    
    55   27   29 1    
    56   27  150 1    
    57   28  151 1    
    58   28  152 1    
    59   28  153 1    
    60   29   30 am   BACKBONE|DICT|INTERRES
    61   29  154 1    
    62   30   31 2    
    63   30   32 1    
    64   32   33 1    
    65   32   34 1    
    66   32  155 1    
    67   33  156 1    
    68   33  157 1    
    69   33  158 1    
    70   34   35 am   BACKBONE|DICT|INTERRES
    71   34  159 1    
    72   35   36 2    
    73   35   37 1    
    74   37   38 1    
    75   37   39 1    
    76   37  160 1    
    77   38  161 1    
    78   38  162 1    
    79   38  163 1    
    80   39   40 am   BACKBONE|DICT|INTERRES
    81   39  164 1    
    82   40   41 2    
    83   40   42 1    
    84   42   43 1    
    85   42   44 1    
    86   42  165 1    
    87   43  166 1    
    88   43  167 1    
    89   43  168 1    
    90   44   45 am   BACKBONE|DICT|INTERRES
    91   44  169 1    
    92   45   46 2    
    93   45   47 1    
    94   47   48 1    
    95   47   49 1    
    96   47  170 1    
    97   48  171 1    
    98   48  172 1    
    99   48  173 1    
   100   49   50 am   BACKBONE|DICT|INTERRES
   101   49  174 1    
   102   50   51 2    
   103   50   52 1    
   104   52   53 1    
   105   52   54 1    
   106   52  175 1    
   107   53  176 1    
   108   53  177 1    
   109   53  178 1    
   110   54   55 am   BACKBONE|DICT|INTERRES
   111   54  179 1    
   112   55   56 2    
   113   55   57 1    
   114   57   58 1    
   115   57   59 1    
   116   57  180 1    
   117   58  181 1    
   118   58  182 1    
   119   58  183 1    
   120   59   60 am   BACKBONE|DICT|INTERRES
   121   59  184 1    
   122   60   61 2    
   123   60   62 1    
   124   62   63 1    
   125   62   64 1    
   126   62  185 1    
   127   63  186 1    
   128   63  187 1    
   129   63  188 1    
   130   64   65 am   BACKBONE|DICT|INTERRES
   131   64  189 1    
   132   65   66 2    
   133   67   68 2    
   134   67   69 am   BACKBONE|DICT|INTERRES
   135   69   70 1    
   136   69  190 1    
   137   70   71 1    
   138   70   72 1    
   139   70  191 1    
   140   71  192 1    
   141   71  193 1    
   142   71  194 1    
   143   72   73 2    
   144   72   74 am   BACKBONE|DICT|INTERRES
   145   74   75 1    
   146   74  195 1    
   147   75   76 1    
   148   75   77 1    
   149   75  196 1    
   150   76  197 1    
   151   76  198 1    
   152   76  199 1    
   153   77   78 2    
   154   77   79 am   BACKBONE|DICT|INTERRES
   155   79   80 1    
   156   79  200 1    
   157   80   81 1    
   158   80   82 1    
   159   80  201 1    
   160   81  202 1    
   161   81  203 1    
   162   81  204 1    
   163   82   83 2    
   164   82   84 am   BACKBONE|DICT|INTERRES
   165   84   85 1    
   166   84  205 1    
   167   85   86 1    
   168   85   87 1    
   169   85  206 1    
   170   86  207 1    
   171   86  208 1    
   172   86  209 1    
   173   87   88 2    
   174   87   89 am   BACKBONE|DICT|INTERRES
   175   89   90 1    
   176   89  210 1    
   177   90   91 1    
   178   90   92 1    
   179   90  211 1    
   180   91  212 1    
   181   91  213 1    
   182   91  214 1    
   183   92   93 2    
   184   92   94 am   BACKBONE|DICT|INTERRES
   185   94   95 1    
   186   94  215 1    
   187   95   96 1    
   188   95   97 1    
   189   95  216 1    
   190   96  217 1    
   191   96  218 1    
   192   96  219 1    
   193   97   98 2    
   194   97   99 am   BACKBONE|DICT|INTERRES
   195   99  100 1    
   196   99  220 1    
   197  100  101 1    
   198  100  102 1    
   199  100  221 1    
   200  101  222 1    
   201  101  223 1    
   202  101  224 1    
   203  102  103 2    
   204  102  104 am   BACKBONE|DICT|INTERRES
   205  104  105 1    
   206  104  225 1    
   207  105  106 1    
   208  105  107 1    
   209  105  226 1    
   210  106  227 1    
   211  106  228 1    
   212  106  229 1    
   213  107  108 2    
   214  107  109 am   BACKBONE|DICT|INTERRES
   215  109  110 1    
   216  109  230 1    
   217  110  111 1    
   218  110  112 1    
   219  110  231 1    
   220  111  232 1    
   221  111  233 1    
   222  111  234 1    
   223  112  113 2    
   224  112  114 am   BACKBONE|DICT|INTERRES
   225  114  115 1    
   226  114  235 1    
   227  115  116 1    
   228  115  117 1    
   229  115  236 1    
   230  116  237 1    
   231  116  238 1    
   232  116  239 1    
   233  117  118 2    
   234  117  119 am   BACKBONE|DICT|INTERRES
   235  119  120 1    
   236  119  240 1    
   237  120  121 1    
   238  120  124 1    
   239  120  241 1    
   240  121  122 am   BACKBONE|DICT|INTERRES
   241  121  123 2    
   242  122  242 1    
   243  122  243 1    
   244  124  125 1    
   245  124  244 1    
   246  124  245 1    
   247  125  126 1    
   248  126  246 1    
   249  126  247 1    
@<TRIPOS>SUBSTRUCTURE
     1 UNK         1 GROUP             0       ****    0 ROOT    
