@<TRIPOS>MOLECULE
3R540
247   249    1
SMALL
USER_CHARGES


@<TRIPOS>ATOM
      1 CA          7.5149  -13.0167  -46.6575 C.3       0 UNK        -0.1800 
      2 C           6.1295  -12.5362  -46.2484 C.2       0 UNK         0.5000 
      3 O           5.9724  -11.9675  -45.1676 O.2       0 UNK        -0.5000 
      4 N           5.1272  -12.7716  -47.1025 N.am      1 UNK        -0.5000 
      5 CA          3.7376  -12.3534  -46.8970 C.3       1 UNK         0.1400 
      6 C6          2.7624  -13.0934  -47.8443 C.3       23 UNK        -0.0398 
      7 S7          2.7966  -14.9109  -47.6546 S.3       23 UNK        -0.2404 
      8 C8          3.3566  -15.4353  -49.3056 C.3       23 UNK        -0.0205 
      9 C9          2.8074  -16.7973  -49.7069 C.ar      23 UNK        -0.0193 
     10 C10         1.5684  -16.8876  -50.3544 C.ar      23 UNK        -0.1150 
     11 C11         1.1097  -18.1173  -50.8359 C.ar      23 UNK        -0.0193 
     12 C12         1.9019  -19.2524  -50.6730 C.ar      23 UNK        -0.1150 
     13 C13         3.1120  -19.1916  -49.9793 C.ar      23 UNK        -0.0193 
     14 C14         3.5623  -17.9577  -49.4971 C.ar      23 UNK        -0.1150 
     15 C15         3.9342  -20.4608  -49.7912 C.3       23 UNK        -0.0205 
     16 S16         3.4202  -21.4275  -48.3315 S.3       23 UNK        -0.2404 
     17 C17         1.6614  -21.7561  -48.6962 C.3       23 UNK        -0.0398 
     18 CA          1.0344  -22.8650  -47.8252 C.3       11 UNK         0.1400 
     19 N           1.0044  -22.5265  -46.4003 N.am      11 UNK        -0.5000 
     20 C           0.6438  -23.3745  -45.4273 C.2       10 UNK         0.5000 
     21 O           0.3358  -24.5510  -45.6249 O.2       10 UNK        -0.5000 
     22 CA          0.5738  -22.8050  -43.9997 C.3       10 UNK         0.1400 
     23 CB          1.9754  -22.7038  -43.3798 C.3       10 UNK        -0.1800 
     24 N          -0.0883  -21.5009  -43.9451 N.am      10 UNK        -0.5000 
     25 C          -1.3808  -21.2947  -44.2357 C.2       9 UNK         0.5000 
     26 O          -2.1604  -22.1934  -44.5523 O.2       9 UNK        -0.5000 
     27 CA         -1.8809  -19.8372  -44.2082 C.3       9 UNK         0.1400 
     28 CB         -2.1225  -19.3634  -42.7677 C.3       9 UNK        -0.1800 
     29 N          -0.9755  -18.9096  -44.8871 N.am      9 UNK        -0.5000 
     30 C          -0.6577  -18.9846  -46.1874 C.2       8 UNK         0.5000 
     31 O          -1.1117  -19.8265  -46.9573 O.2       8 UNK        -0.5000 
     32 CA          0.3790  -17.9788  -46.7091 C.3       8 UNK         0.1400 
     33 CB         -0.2861  -16.6185  -46.9809 C.3       8 UNK        -0.1800 
     34 N           1.5206  -17.8179  -45.8041 N.am      8 UNK        -0.5000 
     35 C           2.3201  -18.8167  -45.3983 C.2       7 UNK         0.5000 
     36 O           2.1901  -19.9872  -45.7481 O.2       7 UNK        -0.5000 
     37 CA          3.3964  -18.4620  -44.3586 C.3       7 UNK         0.1400 
     38 CB          4.4743  -17.5489  -44.9661 C.3       7 UNK        -0.1800 
     39 N           2.8198  -17.8250  -43.1748 N.am      7 UNK        -0.5000 
     40 C           1.9047  -18.3789  -42.3625 C.2       6 UNK         0.5000 
     41 O           1.5151  -19.5417  -42.4580 O.2       6 UNK        -0.5000 
     42 CA          1.2770  -17.4566  -41.2966 C.3       6 UNK         0.1400 
     43 CB          2.0579  -17.5455  -39.9774 C.3       6 UNK        -0.1800 
     44 N           1.2106  -16.0575  -41.7294 N.am      6 UNK        -0.5000 
     45 C           0.5219  -15.6295  -42.7958 C.2       5 UNK         0.5000 
     46 O          -0.2394  -16.3488  -43.4519 O.2       5 UNK        -0.5000 
     47 CA          0.7939  -14.1859  -43.2454 C.3       5 UNK         0.1400 
     48 CB          2.2736  -14.0414  -43.6732 C.3       5 UNK        -0.1800 
     49 N          -0.1220  -13.8826  -44.3439 N.am      5 UNK        -0.5000 
     50 C          -0.1604  -12.7894  -45.1113 C.2       4 UNK         0.5000 
     51 O           0.6329  -11.8498  -45.0023 O.2       4 UNK        -0.5000 
     52 CA         -1.2335  -12.7561  -46.2252 C.3       4 UNK         0.1400 
     53 CB         -2.5434  -13.4894  -45.8585 C.3       4 UNK        -0.1800 
     54 N          -1.4874  -11.3834  -46.6764 N.am      4 UNK        -0.5000 
     55 C          -2.0211  -10.3788  -45.9659 C.2       3 UNK         0.5000 
     56 O          -2.5895  -10.5180  -44.8811 O.2       3 UNK        -0.5000 
     57 CA         -1.7779   -8.9659  -46.5375 C.3       3 UNK         0.1400 
     58 CB         -2.6509   -7.8904  -45.8665 C.3       3 UNK        -0.1800 
     59 N          -0.3679   -8.6155  -46.3529 N.am      3 UNK        -0.5000 
     60 C           0.6365   -9.0693  -47.1137 C.2       2 UNK         0.5000 
     61 O           0.4560   -9.6726  -48.1746 O.2       2 UNK        -0.5000 
     62 CA          2.0709   -8.9119  -46.5790 C.3       2 UNK         0.1400 
     63 CB          2.1746   -8.1411  -45.2475 C.3       2 UNK        -0.1800 
     64 N           2.5796  -10.2654  -46.3823 N.am      2 UNK        -0.5000 
     65 C           3.5756  -10.8282  -47.0726 C.2       1 UNK         0.5000 
     66 O           4.3046  -10.2144  -47.8571 O.2       1 UNK        -0.5000 
     67 C          -0.3702  -23.2198  -48.3532 C.2       11 UNK         0.5000 
     68 O          -0.5124  -24.2258  -49.0466 O.2       11 UNK        -0.5000 
     69 N          -1.3855  -22.4215  -47.9911 N.am      12 UNK        -0.5000 
     70 CA         -2.7869  -22.6558  -48.3352 C.3       12 UNK         0.1400 
     71 CB         -3.6496  -21.4657  -47.8954 C.3       12 UNK        -0.1800 
     72 C          -3.3304  -23.9634  -47.7413 C.2       12 UNK         0.5000 
     73 O          -4.0198  -24.6951  -48.4487 O.2       12 UNK        -0.5000 
     74 N          -2.9841  -24.2587  -46.4804 N.am      13 UNK        -0.5000 
     75 CA         -3.3269  -25.5116  -45.8064 C.3       13 UNK         0.1400 
     76 CB         -2.9231  -25.4380  -44.3263 C.3       13 UNK        -0.1800 
     77 C          -2.7004  -26.7403  -46.4910 C.2       13 UNK         0.5000 
     78 O          -3.3974  -27.7328  -46.7042 O.2       13 UNK        -0.5000 
     79 N          -1.4180  -26.6347  -46.8685 N.am      14 UNK        -0.5000 
     80 CA         -0.6848  -27.6604  -47.6147 C.3       14 UNK         0.1400 
     81 CB          0.8060  -27.2922  -47.6585 C.3       14 UNK        -0.1800 
     82 C          -1.2373  -27.8824  -49.0370 C.2       14 UNK         0.5000 
     83 O          -1.3099  -29.0250  -49.4905 O.2       14 UNK        -0.5000 
     84 N          -1.6413  -26.7920  -49.7018 N.am      15 UNK        -0.5000 
     85 CA         -2.2494  -26.7898  -51.0340 C.3       15 UNK         0.1400 
     86 CB         -2.1050  -25.3826  -51.6393 C.3       15 UNK        -0.1800 
     87 C          -3.7310  -27.2170  -51.0471 C.2       15 UNK         0.5000 
     88 O          -4.2924  -27.3663  -52.1316 O.2       15 UNK        -0.5000 
     89 N          -4.3549  -27.3569  -49.8674 N.am      16 UNK        -0.5000 
     90 CA         -5.7865  -27.6028  -49.6492 C.3       16 UNK         0.1400 
     91 CB         -6.1875  -29.0093  -50.1402 C.3       16 UNK        -0.1800 
     92 C          -6.6673  -26.4757  -50.2351 C.2       16 UNK         0.5000 
     93 O          -7.7028  -26.7403  -50.8475 O.2       16 UNK        -0.5000 
     94 N          -6.2013  -25.2327  -50.0483 N.am      17 UNK        -0.5000 
     95 CA         -6.7667  -23.9543  -50.4875 C.3       17 UNK         0.1400 
     96 CB         -8.1579  -23.7174  -49.8673 C.3       17 UNK        -0.1800 
     97 C          -6.7604  -23.7220  -52.0132 C.2       17 UNK         0.5000 
     98 O          -7.3116  -22.7139  -52.4588 O.2       17 UNK        -0.5000 
     99 N          -6.1083  -24.6039  -52.7881 N.am      18 UNK        -0.5000 
    100 CA        -6.0547  -24.5645  -54.2558 C.3       18 UNK         0.1400 
    101 CB        -5.3465  -25.8238  -54.7745 C.3       18 UNK        -0.1800 
    102 C         -5.3922  -23.3010  -54.8402 C.2       18 UNK         0.5000 
    103 O         -5.7238  -22.9043  -55.9571 O.2       18 UNK        -0.5000 
    104 N         -4.5123  -22.6587  -54.0613 N.am      19 UNK        -0.5000 
    105 CA        -3.8589  -21.3833  -54.3685 C.3       19 UNK         0.1400 
    106 CB        -2.5320  -21.3245  -53.5879 C.3       19 UNK        -0.1800 
    107 C         -4.7623  -20.1613  -54.0722 C.2       19 UNK         0.5000 
    108 O         -4.2615  -19.1282  -53.6263 O.2       19 UNK        -0.5000 
    109 N         -6.0831  -20.3081  -54.2689 N.am      20 UNK        -0.5000 
    110 CA        -7.1522  -19.3487  -53.9500 C.3       20 UNK         0.1400 
    111 CB        -7.0967  -18.1414  -54.9081 C.3       20 UNK        -0.1800 
    112 C         -7.1469  -18.9345  -52.4617 C.2       20 UNK         0.5000 
    113 O         -7.3429  -17.7612  -52.1347 O.2       20 UNK        -0.5000 
    114 N         -6.8329  -19.9103  -51.5948 N.am      21 UNK        -0.5000 
    115 CA        -6.5689  -19.7880  -50.1550 C.3       21 UNK         0.1400 
    116 CB        -7.8789  -19.4859  -49.4004 C.3       21 UNK        -0.1800 
    117 C         -5.4404  -18.7916  -49.7886 C.2       21 UNK         0.5000 
    118 O         -5.3563  -18.3764  -48.6321 O.2       21 UNK        -0.5000 
    119 N         -4.6088  -18.4128  -50.7713 N.am      22 UNK        -0.5000 
    120 CA        -3.6053  -17.3378  -50.7052 C.3       22 UNK         0.1400 
    121 C         -4.2009  -15.9273  -50.4031 C.2       22 UNK         0.5000 
    122 N         -5.4652  -15.6708  -50.7247 N.am      22 UNK        -0.7600 
    123 O         -3.5107  -15.0428  -49.9041 O.2       22 UNK        -0.5000 
    124 C124       -2.3746  -17.7063  -49.8316 C.3       23 UNK        -0.0398 
    125 S125       -1.4591  -19.1126  -50.5448 S.3       23 UNK        -0.2404 
    126 C126       -0.2202  -18.2444  -51.5624 C.3       23 UNK        -0.0205 
    127 H127        7.9002  -13.7216  -45.9208 H         1 UNK         0.0600 
    128 H128        8.2024  -12.1728  -46.7162 H         1 UNK         0.0600 
    129 H129        7.5020  -13.5131  -47.6282 H         1 UNK         0.0600 
    130 H130        5.3207  -13.2264  -47.9821 H         1 UNK         0.3000 
    131 H131        3.4669  -12.6016  -45.8707 H         1 UNK         0.0600 
    132 H132        2.9660  -12.8176  -48.8800 H         1 UNK         0.0800 
    133 H133        1.7367  -12.7742  -47.6529 H         1 UNK         0.0800 
    134 H134        3.0498  -14.7086  -50.0588 H         1 UNK         0.0800 
    135 H135        4.4474  -15.4461  -49.3237 H         1 UNK         0.0800 
    136 H136        0.9759  -15.9963  -50.5056 H         1 UNK         0.1150 
    137 H137        1.5567  -20.1937  -51.0749 H         1 UNK         0.1150 
    138 H138        4.5124  -17.8955  -48.9853 H         1 UNK         0.1150 
    139 H139        3.8597  -21.0873  -50.6814 H         1 UNK         0.0800 
    140 H140        4.9902  -20.2073  -49.6886 H         1 UNK         0.0800 
    141 H141        1.5907  -22.0349  -49.7488 H         1 UNK         0.0800 
    142 H142        1.1018  -20.8270  -48.5725 H         1 UNK         0.0800 
    143 H143        1.6509  -23.7602  -47.9308 H         1 UNK         0.0600 
    144 H144        1.2916  -21.5813  -46.1530 H         1 UNK         0.3000 
    145 H145       -0.0119  -23.5008  -43.3954 H         1 UNK         0.0600 
    146 H146        2.4835  -23.6687  -43.4020 H         1 UNK         0.0600 
    147 H147        2.6024  -21.9889  -43.9136 H         1 UNK         0.0600 
    148 H148        1.9224  -22.3872  -42.3380 H         1 UNK         0.0600 
    149 H149        0.4891  -20.7114  -43.6707 H         1 UNK         0.3000 
    150 H150       -2.8354  -19.8058  -44.7375 H         1 UNK         0.0600 
    151 H151       -2.5011  -18.3412  -42.7453 H         1 UNK         0.0600 
    152 H152       -1.2095  -19.3959  -42.1743 H         1 UNK         0.0600 
    153 H153       -2.8583  -19.9957  -42.2695 H         1 UNK         0.0600 
    154 H154       -0.5743  -18.1621  -44.3305 H         1 UNK         0.3000 
    155 H155        0.7560  -18.3688  -47.6572 H         1 UNK         0.0600 
    156 H156       -1.3157  -16.7301  -47.3196 H         1 UNK         0.0600 
    157 H157        0.2394  -16.0721  -47.7610 H         1 UNK         0.0600 
    158 H158       -0.3114  -15.9961  -46.0900 H         1 UNK         0.0600 
    159 H159        1.6831  -16.8898  -45.4467 H         1 UNK         0.3000 
    160 H160        3.8738  -19.3915  -44.0413 H         1 UNK         0.0600 
    161 H161        4.9029  -17.9970  -45.8637 H         1 UNK         0.0600 
    162 H162        5.2916  -17.3841  -44.2639 H         1 UNK         0.0600 
    163 H163        4.0738  -16.5744  -45.2474 H         1 UNK         0.0600 
    164 H164        3.0859  -16.8678  -43.0042 H         1 UNK         0.3000 
    165 H165        0.2573  -17.8011  -41.1153 H         1 UNK         0.0600 
    166 H166        1.5816  -16.9530  -39.1961 H         1 UNK         0.0600 
    167 H167        2.1031  -18.5754  -39.6204 H         1 UNK         0.0600 
    168 H168        3.0835  -17.1919  -40.0905 H         1 UNK         0.0600 
    169 H169        1.7993  -15.4058  -41.2308 H         1 UNK         0.3000 
    170 H170        0.5786  -13.5174  -42.4103 H         1 UNK         0.0600 
    171 H171        2.5485  -12.9956  -43.7995 H         1 UNK         0.0600 
    172 H172        2.9602  -14.4363  -42.9244 H         1 UNK         0.0600 
    173 H173        2.4748  -14.5635  -44.6087 H         1 UNK         0.0600 
    174 H174       -0.7958  -14.6231  -44.4975 H         1 UNK         0.3000 
    175 H175       -0.7967  -13.2741  -47.0802 H         1 UNK         0.0600 
    176 H176       -3.2969  -13.3556  -46.6348 H         1 UNK         0.0600 
    177 H177       -2.9646  -13.1306  -44.9190 H         1 UNK         0.0600 
    178 H178       -2.3835  -14.5630  -45.7567 H         1 UNK         0.0600 
    179 H179       -0.9815  -11.1122  -47.5119 H         1 UNK         0.3000 
    180 H180       -2.0203   -8.9802  -47.6024 H         1 UNK         0.0600 
    181 H181       -2.4875   -6.9129  -46.3204 H         1 UNK         0.0600 
    182 H182       -2.4403   -7.8030  -44.7998 H         1 UNK         0.0600 
    183 H183       -3.7103   -8.1259  -45.9750 H         1 UNK         0.0600 
    184 H184       -0.1354   -8.1689  -45.4777 H         1 UNK         0.3000 
    185 H185        2.6437   -8.3762  -47.3384 H         1 UNK         0.0600 
    186 H186        1.6307   -8.6376  -44.4425 H         1 UNK         0.0600 
    187 H187        3.2149   -8.0558  -44.9330 H         1 UNK         0.0600 
    188 H188        1.7871   -7.1262  -45.3457 H         1 UNK         0.0600 
    189 H189        1.9872  -10.8593  -45.8032 H         1 UNK         0.3000 
    190 H190       -1.1921  -21.5740  -47.4597 H         1 UNK         0.3000 
    191 H191       -2.8509  -22.7330  -49.4223 H         1 UNK         0.0600 
    192 H192       -3.5750  -21.2886  -46.8222 H         1 UNK         0.0600 
    193 H193       -4.7013  -21.6348  -48.1270 H         1 UNK         0.0600 
    194 H194       -3.3443  -20.5521  -48.4051 H         1 UNK         0.0600 
    195 H195       -2.4565  -23.5785  -45.9411 H         1 UNK         0.3000 
    196 H196       -4.4120  -25.6254  -45.8536 H         1 UNK         0.0600 
    197 H197       -3.1832  -26.3594  -43.8040 H         1 UNK         0.0600 
    198 H198       -3.4363  -24.6209  -43.8192 H         1 UNK         0.0600 
    199 H199       -1.8508  -25.2835  -44.2063 H         1 UNK         0.0600 
    200 H200       -0.9044  -25.7931  -46.6245 H         1 UNK         0.3000 
    201 H201       -0.7843  -28.6022  -47.0713 H         1 UNK         0.0600 
    202 H202        1.2196  -27.2046  -46.6536 H         1 UNK         0.0600 
    203 H203        0.9729  -26.3445  -48.1709 H         1 UNK         0.0600 
    204 H204        1.3820  -28.0556  -48.1829 H         1 UNK         0.0600 
    205 H205       -1.4724  -25.8806  -49.2841 H         1 UNK         0.3000 
    206 H206       -1.7027  -27.4913  -51.6671 H         1 UNK         0.0600 
    207 H207       -2.4990  -25.3458  -52.6556 H         1 UNK         0.0600 
    208 H208       -2.6414  -24.6371  -51.0514 H         1 UNK         0.0600 
    209 H209       -1.0589  -25.0799  -51.6886 H         1 UNK         0.0600 
    210 H210       -3.8133  -27.1766  -49.0321 H         1 UNK         0.3000 
    211 H211       -5.9370  -27.5757  -48.5690 H         1 UNK         0.0600 
    212 H212       -6.1202  -29.0973  -51.2248 H         1 UNK         0.0600 
    213 H213       -7.2147  -29.2421  -49.8575 H         1 UNK         0.0600 
    214 H214       -5.5488  -29.7756  -49.7010 H         1 UNK         0.0600 
    215 H215       -5.3375  -25.1428  -49.5116 H         1 UNK         0.3000 
    216 H216       -6.0988  -23.1960  -50.0780 H         1 UNK         0.0600 
    217 H217       -8.5114  -22.7057  -50.0688 H         1 UNK         0.0600 
    218 H218       -8.1325  -23.8396  -48.7845 H         1 UNK         0.0600 
    219 H219       -8.9028  -24.4061  -50.2666 H         1 UNK         0.0600 
    220 H220       -5.6850  -25.4101  -52.3475 H         1 UNK         0.3000 
    221 H221       -7.0848  -24.5832  -54.6172 H         1 UNK         0.0600 
    222 H222       -4.3082  -25.8655  -54.4439 H         1 UNK         0.0600 
    223 H223       -5.8462  -26.7291  -54.4287 H         1 UNK         0.0600 
    224 H224       -5.3445  -25.8513  -55.8649 H         1 UNK         0.0600 
    225 H225       -4.3221  -23.0499  -53.1513 H         1 UNK         0.3000 
    226 H226       -3.6230  -21.3540  -55.4340 H         1 UNK         0.0600 
    227 H227       -1.8982  -22.1805  -53.8202 H         1 UNK         0.0600 
    228 H228       -1.9642  -20.4275  -53.8386 H         1 UNK         0.0600 
    229 H229       -2.7000  -21.3148  -52.5101 H         1 UNK         0.0600 
    230 H230       -6.3941  -21.1989  -54.6343 H         1 UNK         0.3000 
    231 H231       -8.0965  -19.8678  -54.1198 H         1 UNK         0.0600 
    232 H232       -6.1957  -17.5459  -54.7574 H         1 UNK         0.0600 
    233 H233       -7.1152  -18.4637  -55.9492 H         1 UNK         0.0600 
    234 H234       -7.9530  -17.4829  -54.7579 H         1 UNK         0.0600 
    235 H235       -6.7496  -20.8470  -51.9774 H         1 UNK         0.3000 
    236 H236       -6.2197  -20.7676  -49.8301 H         1 UNK         0.0600 
    237 H237       -8.2520  -18.4865  -49.6261 H         1 UNK         0.0600 
    238 H238       -8.6590  -20.2011  -49.6607 H         1 UNK         0.0600 
    239 H239       -7.7343  -19.5455  -48.3211 H         1 UNK         0.0600 
    240 H240       -4.7360  -18.8034  -51.6984 H         1 UNK         0.3000 
    241 H241       -3.2408  -17.2352  -51.7278 H         1 UNK         0.0600 
    242 H242       -5.8472  -14.7571  -50.5398 H         1 UNK         0.3800 
    243 H243       -6.0470  -16.3817  -51.1537 H         1 UNK         0.3800 
    244 H244       -1.6876  -16.8648  -49.7334 H         1 UNK         0.0800 
    245 H245       -2.6859  -17.9683  -48.8201 H         1 UNK         0.0800 
    246 H246       -0.5943  -17.2675  -51.8717 H         1 UNK         0.0800 
    247 H247       -0.0694  -18.8123  -52.4816 H         1 UNK         0.0800 
@<TRIPOS>BOND
     1    1    2 1    
     2    1  127 1    
     3    1  128 1    
     4    1  129 1    
     5    2    3 2    
     6    2    4 am   BACKBONE|DICT|INTERRES
     7    4    5 1    
     8    4  130 1    
     9    5    6 1    
    10    5   65 1    
    11    5  131 1    
    12    6    7 1    
    13    6  132 1    
    14    6  133 1    
    15    7    8 1    
    16    8    9 1    
    17    8  134 1    
    18    8  135 1    
    19    9   10 ar   
    20    9   14 ar   
    21   10   11 ar   
    22   10  136 1    
    23   11   12 ar   
    24   11  126 1    
    25   12   13 ar   
    26   12  137 1    
    27   13   14 ar   
    28   13   15 1    
    29   14  138 1    
    30   15   16 1    
    31   15  139 1    
    32   15  140 1    
    33   16   17 1    
    34   17   18 1    
    35   17  141 1    
    36   17  142 1    
    37   18   19 1    
    38   18   67 1    
    39   18  143 1    
    40   19   20 am   BACKBONE|DICT|INTERRES
    41   19  144 1    
    42   20   21 2    
    43   20   22 1    
    44   22   23 1    
    45   22   24 1    
    46   22  145 1    
    47   23  146 1    
    48   23  147 1    
    49   23  148 1    
    50   24   25 am   BACKBONE|DICT|INTERRES
    51   24  149 1    
    52   25   26 2    
    53   25   27 1    
    54   27   28 1    
    55   27   29 1    
    56   27  150 1    
    57   28  151 1    
    58   28  152 1    
    59   28  153 1    
    60   29   30 am   BACKBONE|DICT|INTERRES
    61   29  154 1    
    62   30   31 2    
    63   30   32 1    
    64   32   33 1    
    65   32   34 1    
    66   32  155 1    
    67   33  156 1    
    68   33  157 1    
    69   33  158 1    
    70   34   35 am   BACKBONE|DICT|INTERRES
    71   34  159 1    
    72   35   36 2    
    73   35   37 1    
    74   37   38 1    
    75   37   39 1    
    76   37  160 1    
    77   38  161 1    
    78   38  162 1    
    79   38  163 1    
    80   39   40 am   BACKBONE|DICT|INTERRES
    81   39  164 1    
    82   40   41 2    
    83   40   42 1    
    84   42   43 1    
    85   42   44 1    
    86   42  165 1    
    87   43  166 1    
    88   43  167 1    
    89   43  168 1    
    90   44   45 am   BACKBONE|DICT|INTERRES
    91   44  169 1    
    92   45   46 2    
    93   45   47 1    
    94   47   48 1    
    95   47   49 1    
    96   47  170 1    
    97   48  171 1    
    98   48  172 1    
    99   48  173 1    
   100   49   50 am   BACKBONE|DICT|INTERRES
   101   49  174 1    
   102   50   51 2    
   103   50   52 1    
   104   52   53 1    
   105   52   54 1    
   106   52  175 1    
   107   53  176 1    
   108   53  177 1    
   109   53  178 1    
   110   54   55 am   BACKBONE|DICT|INTERRES
   111   54  179 1    
   112   55   56 2    
   113   55   57 1    
   114   57   58 1    
   115   57   59 1    
   116   57  180 1    
   117   58  181 1    
   118   58  182 1    
   119   58  183 1    
   120   59   60 am   BACKBONE|DICT|INTERRES
   121   59  184 1    
   122   60   61 2    
   123   60   62 1    
   124   62   63 1    
   125   62   64 1    
   126   62  185 1    
   127   63  186 1    
   128   63  187 1    
   129   63  188 1    
   130   64   65 am   BACKBONE|DICT|INTERRES
   131   64  189 1    
   132   65   66 2    
   133   67   68 2    
   134   67   69 am   BACKBONE|DICT|INTERRES
   135   69   70 1    
   136   69  190 1    
   137   70   71 1    
   138   70   72 1    
   139   70  191 1    
   140   71  192 1    
   141   71  193 1    
   142   71  194 1    
   143   72   73 2    
   144   72   74 am   BACKBONE|DICT|INTERRES
   145   74   75 1    
   146   74  195 1    
   147   75   76 1    
   148   75   77 1    
   149   75  196 1    
   150   76  197 1    
   151   76  198 1    
   152   76  199 1    
   153   77   78 2    
   154   77   79 am   BACKBONE|DICT|INTERRES
   155   79   80 1    
   156   79  200 1    
   157   80   81 1    
   158   80   82 1    
   159   80  201 1    
   160   81  202 1    
   161   81  203 1    
   162   81  204 1    
   163   82   83 2    
   164   82   84 am   BACKBONE|DICT|INTERRES
   165   84   85 1    
   166   84  205 1    
   167   85   86 1    
   168   85   87 1    
   169   85  206 1    
   170   86  207 1    
   171   86  208 1    
   172   86  209 1    
   173   87   88 2    
   174   87   89 am   BACKBONE|DICT|INTERRES
   175   89   90 1    
   176   89  210 1    
   177   90   91 1    
   178   90   92 1    
   179   90  211 1    
   180   91  212 1    
   181   91  213 1    
   182   91  214 1    
   183   92   93 2    
   184   92   94 am   BACKBONE|DICT|INTERRES
   185   94   95 1    
   186   94  215 1    
   187   95   96 1    
   188   95   97 1    
   189   95  216 1    
   190   96  217 1    
   191   96  218 1    
   192   96  219 1    
   193   97   98 2    
   194   97   99 am   BACKBONE|DICT|INTERRES
   195   99  100 1    
   196   99  220 1    
   197  100  101 1    
   198  100  102 1    
   199  100  221 1    
   200  101  222 1    
   201  101  223 1    
   202  101  224 1    
   203  102  103 2    
   204  102  104 am   BACKBONE|DICT|INTERRES
   205  104  105 1    
   206  104  225 1    
   207  105  106 1    
   208  105  107 1    
   209  105  226 1    
   210  106  227 1    
   211  106  228 1    
   212  106  229 1    
   213  107  108 2    
   214  107  109 am   BACKBONE|DICT|INTERRES
   215  109  110 1    
   216  109  230 1    
   217  110  111 1    
   218  110  112 1    
   219  110  231 1    
   220  111  232 1    
   221  111  233 1    
   222  111  234 1    
   223  112  113 2    
   224  112  114 am   BACKBONE|DICT|INTERRES
   225  114  115 1    
   226  114  235 1    
   227  115  116 1    
   228  115  117 1    
   229  115  236 1    
   230  116  237 1    
   231  116  238 1    
   232  116  239 1    
   233  117  118 2    
   234  117  119 am   BACKBONE|DICT|INTERRES
   235  119  120 1    
   236  119  240 1    
   237  120  121 1    
   238  120  124 1    
   239  120  241 1    
   240  121  122 am   BACKBONE|DICT|INTERRES
   241  121  123 2    
   242  122  242 1    
   243  122  243 1    
   244  124  125 1    
   245  124  244 1    
   246  124  245 1    
   247  125  126 1    
   248  126  246 1    
   249  126  247 1    
@<TRIPOS>SUBSTRUCTURE
     1 UNK         1 GROUP             0       ****    0 ROOT    
