@<TRIPOS>MOLECULE
3R540
247   249    1
SMALL
USER_CHARGES


@<TRIPOS>ATOM
      1 CA          3.2557  -10.7713  -49.6180 C.3       0 UNK        -0.1800 
      2 C           2.2653  -11.7150  -48.9533 C.2       0 UNK         0.5000 
      3 O           1.5996  -11.3274  -47.9945 O.2       0 UNK        -0.5000 
      4 N           2.1462  -12.9451  -49.4682 N.am      1 UNK        -0.5000 
      5 CA          1.3011  -14.0278  -48.9383 C.3       1 UNK         0.1400 
      6 C6          1.5611  -15.3627  -49.6749 C.3       23 UNK        -0.0398 
      7 S7          3.2997  -15.9023  -49.5208 S.3       23 UNK        -0.2404 
      8 C8          3.1305  -17.4248  -48.5255 C.3       23 UNK        -0.0205 
      9 C9          2.7335  -18.6857  -49.2999 C.ar      23 UNK        -0.0193 
     10 C10         2.1495  -18.6476  -50.5721 C.ar      23 UNK        -0.1150 
     11 C11         1.8093  -19.8244  -51.2415 C.ar      23 UNK        -0.0193 
     12 C12         2.0446  -21.0563  -50.6267 C.ar      23 UNK        -0.1150 
     13 C13         2.6367  -21.1248  -49.3608 C.ar      23 UNK        -0.0193 
     14 C14         2.9719  -19.9297  -48.7076 C.ar      23 UNK        -0.1150 
     15 C15         2.8924  -22.5120  -48.7617 C.3       23 UNK        -0.0205 
     16 S16         3.9363  -22.5828  -47.2574 S.3       23 UNK        -0.2404 
     17 C17         2.7648  -22.0013  -45.9829 C.3       23 UNK        -0.0398 
     18 CA          2.1295  -23.1067  -45.1002 C.3       11 UNK         0.1400 
     19 N           1.3537  -22.4923  -44.0198 N.am      11 UNK        -0.5000 
     20 C           0.9059  -23.1137  -42.9218 C.2       10 UNK         0.5000 
     21 O           1.1556  -24.2883  -42.6501 O.2       10 UNK        -0.5000 
     22 CA          0.0096  -22.2835  -41.9802 C.3       10 UNK         0.1400 
     23 CB          0.8582  -21.4914  -40.9742 C.3       10 UNK        -0.1800 
     24 N          -0.8703  -21.3641  -42.7068 N.am      10 UNK        -0.5000 
     25 C          -1.8972  -21.7561  -43.4751 C.2       9 UNK         0.5000 
     26 O          -2.2586  -22.9279  -43.5789 O.2       9 UNK        -0.5000 
     27 CA         -2.6237  -20.6700  -44.2915 C.3       9 UNK         0.1400 
     28 CB         -3.7603  -20.0461  -43.4691 C.3       9 UNK        -0.1800 
     29 N          -1.7362  -19.6144  -44.7857 N.am      9 UNK        -0.5000 
     30 C          -0.7252  -19.8109  -45.6430 C.2       8 UNK         0.5000 
     31 O          -0.4254  -20.9131  -46.0921 O.2       8 UNK        -0.5000 
     32 CA          0.1499  -18.5964  -46.0031 C.3       8 UNK         0.1400 
     33 CB         -0.5566  -17.6572  -46.9913 C.3       8 UNK        -0.1800 
     34 N           0.5590  -17.8499  -44.8163 N.am      8 UNK        -0.5000 
     35 C           1.3059  -18.3561  -43.8247 C.2       7 UNK         0.5000 
     36 O           1.7885  -19.4889  -43.8380 O.2       7 UNK        -0.5000 
     37 CA          1.4946  -17.4641  -42.5875 C.3       7 UNK         0.1400 
     38 CB          2.6448  -16.4684  -42.7988 C.3       7 UNK        -0.1800 
     39 N           0.2661  -16.7410  -42.2561 N.am      7 UNK        -0.5000 
     40 C          -0.8364  -17.3196  -41.7578 C.2       6 UNK         0.5000 
     41 O          -0.9134  -18.5163  -41.4776 O.2       6 UNK        -0.5000 
     42 CA         -2.0706  -16.4145  -41.5845 C.3       6 UNK         0.1400 
     43 CB         -1.9776  -15.6112  -40.2788 C.3       6 UNK        -0.1800 
     44 N          -2.2529  -15.4956  -42.7102 N.am      6 UNK        -0.5000 
     45 C          -2.5762  -15.8823  -43.9525 C.2       5 UNK         0.5000 
     46 O          -2.8042  -17.0493  -44.2612 O.2       5 UNK        -0.5000 
     47 CA         -2.6117  -14.7995  -45.0445 C.3       5 UNK         0.1400 
     48 CB         -4.0294  -14.2367  -45.2157 C.3       5 UNK        -0.1800 
     49 N          -1.6801  -13.6974  -44.8120 N.am      5 UNK        -0.5000 
     50 C          -0.3460  -13.8043  -44.7825 C.2       4 UNK         0.5000 
     51 O           0.2482  -14.8830  -44.8416 O.2       4 UNK        -0.5000 
     52 CA          0.4391  -12.4801  -44.6750 C.3       4 UNK         0.1400 
     53 CB          1.9587  -12.6809  -44.8142 C.3       4 UNK        -0.1800 
     54 N          -0.0012  -11.5101  -45.6795 N.am      4 UNK        -0.5000 
     55 C          -1.0913  -10.7346  -45.6037 C.2       3 UNK         0.5000 
     56 O          -1.8590  -10.7334  -44.6407 O.2       3 UNK        -0.5000 
     57 CA         -1.4057   -9.8685  -46.8329 C.3       3 UNK         0.1400 
     58 CB         -0.4494   -8.6686  -46.9230 C.3       3 UNK        -0.1800 
     59 N          -1.3088  -10.6671  -48.0538 N.am      3 UNK        -0.5000 
     60 C          -2.3252  -11.3522  -48.5975 C.2       2 UNK         0.5000 
     61 O          -3.4798  -11.3168  -48.1718 O.2       2 UNK        -0.5000 
     62 CA         -2.0008  -12.2329  -49.8216 C.3       2 UNK         0.1400 
     63 CB         -2.2143  -11.4510  -51.1261 C.3       2 UNK        -0.1800 
     64 N          -0.6359  -12.7596  -49.7953 N.am      2 UNK        -0.5000 
     65 C          -0.2084  -13.7016  -48.9430 C.2       1 UNK         0.5000 
     66 O          -0.9537  -14.2991  -48.1692 O.2       1 UNK        -0.5000 
     67 C           1.2814  -24.0939  -45.9379 C.2       11 UNK         0.5000 
     68 O           1.8232  -25.0744  -46.4510 O.2       11 UNK        -0.5000 
     69 N          -0.0186  -23.8039  -46.0877 N.am      12 UNK        -0.5000 
     70 CA         -0.9696  -24.4256  -47.0122 C.3       12 UNK         0.1400 
     71 CB         -2.2162  -23.5329  -47.1099 C.3       12 UNK        -0.1800 
     72 C          -1.3494  -25.8971  -46.7330 C.2       12 UNK         0.5000 
     73 O          -2.5322  -26.2413  -46.7580 O.2       12 UNK        -0.5000 
     74 N          -0.3503  -26.7628  -46.5362 N.am      13 UNK        -0.5000 
     75 CA         -0.5139  -28.2153  -46.4610 C.3       13 UNK         0.1400 
     76 CB          0.7995  -28.8533  -45.9835 C.3       13 UNK        -0.1800 
     77 C          -0.9597  -28.8113  -47.8110 C.2       13 UNK         0.5000 
     78 O          -1.8622  -29.6485  -47.8401 O.2       13 UNK        -0.5000 
     79 N          -0.3368  -28.3406  -48.9011 N.am      14 UNK        -0.5000 
     80 CA         -0.6616  -28.7255  -50.2767 C.3       14 UNK         0.1400 
     81 CB          0.6435  -28.8657  -51.0758 C.3       14 UNK        -0.1800 
     82 C          -1.5953  -27.7094  -50.9606 C.2       14 UNK         0.5000 
     83 O          -2.4053  -28.1029  -51.7998 O.2       14 UNK        -0.5000 
     84 N          -1.4674  -26.4235  -50.5995 N.am      15 UNK        -0.5000 
     85 CA         -2.1992  -25.3060  -51.2093 C.3       15 UNK         0.1400 
     86 CB         -1.3514  -24.0294  -51.0838 C.3       15 UNK        -0.1800 
     87 C          -3.6131  -25.0875  -50.6307 C.2       15 UNK         0.5000 
     88 O          -4.3111  -24.1807  -51.0894 O.2       15 UNK        -0.5000 
     89 N          -3.9982  -25.8864  -49.6237 N.am      16 UNK        -0.5000 
     90 CA         -5.2898  -25.9660  -48.9224 C.3       16 UNK         0.1400 
     91 CB         -6.4196  -26.3604  -49.8921 C.3       16 UNK        -0.1800 
     92 C          -5.6822  -24.7210  -48.1000 C.2       16 UNK         0.5000 
     93 O          -6.1569  -24.8674  -46.9730 O.2       16 UNK        -0.5000 
     94 N          -5.4792  -23.5308  -48.6692 N.am      17 UNK        -0.5000 
     95 CA         -5.7194  -22.2312  -48.0464 C.3       17 UNK         0.1400 
     96 CB         -7.0839  -21.6893  -48.5025 C.3       17 UNK        -0.1800 
     97 C          -4.6018  -21.2246  -48.3645 C.2       17 UNK         0.5000 
     98 O          -4.3315  -20.3635  -47.5273 O.2       17 UNK        -0.5000 
     99 N          -3.9739  -21.3490  -49.5480 N.am      18 UNK        -0.5000 
    100 CA        -2.9678  -20.4314  -50.1001 C.3       18 UNK         0.1400 
    101 CB        -1.6377  -20.5458  -49.3251 C.3       18 UNK        -0.1800 
    102 C         -3.4976  -18.9825  -50.2199 C.2       18 UNK         0.5000 
    103 O         -4.6922  -18.7955  -50.4662 O.2       18 UNK        -0.5000 
    104 N         -2.6081  -17.9878  -50.0838 N.am      19 UNK        -0.5000 
    105 CA        -2.8651  -16.5504  -50.2084 C.3       19 UNK         0.1400 
    106 CB        -3.7373  -16.0494  -49.0343 C.3       19 UNK        -0.1800 
    107 C         -3.4283  -16.2152  -51.6037 C.2       19 UNK         0.5000 
    108 O         -2.6777  -16.2520  -52.5786 O.2       19 UNK        -0.5000 
    109 N         -4.7377  -15.9485  -51.6908 N.am      20 UNK        -0.5000 
    110 CA        -5.4637  -15.7396  -52.9444 C.3       20 UNK         0.1400 
    111 CB        -6.8695  -15.2098  -52.6251 C.3       20 UNK        -0.1800 
    112 C         -5.5497  -17.0051  -53.8235 C.2       20 UNK         0.5000 
    113 O         -5.6266  -16.8828  -55.0469 O.2       20 UNK        -0.5000 
    114 N         -5.5076  -18.1957  -53.2042 N.am      21 UNK        -0.5000 
    115 CA        -5.5522  -19.4902  -53.8928 C.3       21 UNK         0.1400 
    116 CB        -5.9203  -20.5968  -52.8909 C.3       21 UNK        -0.1800 
    117 C         -4.2461  -19.8387  -54.6360 C.2       21 UNK         0.5000 
    118 O         -4.2505  -20.7651  -55.4475 O.2       21 UNK        -0.5000 
    119 N         -3.1622  -19.0966  -54.3684 N.am      22 UNK        -0.5000 
    120 CA        -1.8799  -19.2015  -55.0845 C.3       22 UNK         0.1400 
    121 C         -1.9194  -18.6591  -56.5458 C.2       22 UNK         0.5000 
    122 N         -2.9437  -17.9216  -56.9618 N.am      22 UNK        -0.7600 
    123 O         -1.0019  -18.9176  -57.3199 O.2       22 UNK        -0.5000 
    124 C124       -0.7218  -18.5336  -54.3009 C.3       23 UNK        -0.0398 
    125 S125       -0.5087  -19.1938  -52.6119 S.3       23 UNK        -0.2404 
    126 C126        1.2233  -19.7481  -52.6434 C.3       23 UNK        -0.0205 
    127 H127        3.7619  -11.2423  -50.4609 H         1 UNK         0.0600 
    128 H128        2.7397   -9.8830  -49.9822 H         1 UNK         0.0600 
    129 H129        4.0117  -10.4568  -48.8986 H         1 UNK         0.0600 
    130 H130        2.7298  -13.2038  -50.2514 H         1 UNK         0.3000 
    131 H131        1.5764  -14.1661  -47.8906 H         1 UNK         0.0600 
    132 H132        0.9073  -16.1490  -49.2941 H         1 UNK         0.0800 
    133 H133        1.3260  -15.2649  -50.7363 H         1 UNK         0.0800 
    134 H134        2.4175  -17.2539  -47.7185 H         1 UNK         0.0800 
    135 H135        4.0938  -17.6015  -48.0446 H         1 UNK         0.0800 
    136 H136        1.9595  -17.7073  -51.0660 H         1 UNK         0.1150 
    137 H137        1.7815  -21.9684  -51.1442 H         1 UNK         0.1150 
    138 H138        3.4330  -19.9500  -47.7321 H         1 UNK         0.1150 
    139 H139        1.9318  -22.9865  -48.5593 H         1 UNK         0.0800 
    140 H140        3.3787  -23.1276  -49.5198 H         1 UNK         0.0800 
    141 H141        1.9911  -21.4044  -46.4619 H         1 UNK         0.0800 
    142 H142        3.3147  -21.3064  -45.3465 H         1 UNK         0.0800 
    143 H143        2.9377  -23.6802  -44.6417 H         1 UNK         0.0600 
    144 H144        1.1334  -21.5093  -44.1345 H         1 UNK         0.3000 
    145 H145       -0.6169  -22.9799  -41.4189 H         1 UNK         0.0600 
    146 H146        0.2284  -20.9466  -40.2705 H         1 UNK         0.0600 
    147 H147        1.4963  -22.1576  -40.3924 H         1 UNK         0.0600 
    148 H148        1.5054  -20.7686  -41.4712 H         1 UNK         0.0600 
    149 H149       -0.6706  -20.3741  -42.6252 H         1 UNK         0.3000 
    150 H150       -3.0660  -21.1582  -45.1621 H         1 UNK         0.0600 
    151 H151       -4.4368  -20.8129  -43.0895 H         1 UNK         0.0600 
    152 H152       -4.3536  -19.3627  -44.0769 H         1 UNK         0.0600 
    153 H153       -3.3777  -19.4890  -42.6133 H         1 UNK         0.0600 
    154 H154       -1.9596  -18.6657  -44.4934 H         1 UNK         0.3000 
    155 H155        1.0586  -18.9668  -46.4813 H         1 UNK         0.0600 
    156 H156       -1.5772  -17.4337  -46.6826 H         1 UNK         0.0600 
    157 H157       -0.6043  -18.1075  -47.9812 H         1 UNK         0.0600 
    158 H158       -0.0253  -16.7110  -47.0923 H         1 UNK         0.0600 
    159 H159        0.2449  -16.8872  -44.7448 H         1 UNK         0.3000 
    160 H160        1.7526  -18.1082  -41.7441 H         1 UNK         0.0600 
    161 H161        2.7951  -15.8448  -41.9175 H         1 UNK         0.0600 
    162 H162        2.4622  -15.8111  -43.6490 H         1 UNK         0.0600 
    163 H163        3.5814  -16.9938  -42.9891 H         1 UNK         0.0600 
    164 H164        0.2292  -15.7670  -42.5186 H         1 UNK         0.3000 
    165 H165       -2.9501  -17.0594  -41.5257 H         1 UNK         0.0600 
    166 H166       -2.8825  -15.0268  -40.1106 H         1 UNK         0.0600 
    167 H167       -1.8563  -16.2744  -39.4212 H         1 UNK         0.0600 
    168 H168       -1.1304  -14.9244  -40.2852 H         1 UNK         0.0600 
    169 H169       -2.0843  -14.5153  -42.5393 H         1 UNK         0.3000 
    170 H170       -2.3228  -15.2746  -45.9831 H         1 UNK         0.0600 
    171 H171       -4.7442  -15.0352  -45.4196 H         1 UNK         0.0600 
    172 H172       -4.3655  -13.7122  -44.3205 H         1 UNK         0.0600 
    173 H173       -4.0757  -13.5392  -46.0528 H         1 UNK         0.0600 
    174 H174       -2.0761  -12.7665  -44.7457 H         1 UNK         0.3000 
    175 H175        0.2476  -12.0708  -43.6812 H         1 UNK         0.0600 
    176 H176        2.2207  -13.1219  -45.7762 H         1 UNK         0.0600 
    177 H177        2.4907  -11.7335  -44.7263 H         1 UNK         0.0600 
    178 H178        2.3405  -13.3398  -44.0338 H         1 UNK         0.0600 
    179 H179        0.5685  -11.4578  -46.5220 H         1 UNK         0.3000 
    180 H180       -2.4204   -9.4796  -46.7241 H         1 UNK         0.0600 
    181 H181        0.5897   -8.9805  -47.0329 H         1 UNK         0.0600 
    182 H182       -0.5133   -8.0523  -46.0253 H         1 UNK         0.0600 
    183 H183       -0.6980   -8.0323  -47.7724 H         1 UNK         0.0600 
    184 H184       -0.3756  -10.8041  -48.4222 H         1 UNK         0.3000 
    185 H185       -2.6945  -13.0752  -49.8167 H         1 UNK         0.0600 
    186 H186       -3.2322  -11.0636  -51.1864 H         1 UNK         0.0600 
    187 H187       -1.5344  -10.6016  -51.2029 H         1 UNK         0.0600 
    188 H188       -2.0582  -12.0877  -51.9971 H         1 UNK         0.0600 
    189 H189        0.0374  -12.3213  -50.4068 H         1 UNK         0.3000 
    190 H190       -0.3422  -22.9448  -45.6577 H         1 UNK         0.3000 
    191 H191       -0.4876  -24.4218  -47.9899 H         1 UNK         0.0600 
    192 H192       -2.8101  -23.5633  -46.1960 H         1 UNK         0.0600 
    193 H193       -2.8531  -23.8553  -47.9301 H         1 UNK         0.0600 
    194 H194       -1.9601  -22.4956  -47.3031 H         1 UNK         0.0600 
    195 H195        0.5967  -26.3894  -46.5076 H         1 UNK         0.3000 
    196 H196       -1.2886  -28.4351  -45.7233 H         1 UNK         0.0600 
    197 H197        0.7026  -29.9373  -45.9095 H         1 UNK         0.0600 
    198 H198        1.0793  -28.4839  -44.9967 H         1 UNK         0.0600 
    199 H199        1.6241  -28.6419  -46.6654 H         1 UNK         0.0600 
    200 H200        0.4167  -27.6813  -48.7744 H         1 UNK         0.3000 
    201 H201       -1.1640  -29.6952  -50.2857 H         1 UNK         0.0600 
    202 H202        1.2932  -29.6232  -50.6371 H         1 UNK         0.0600 
    203 H203        1.1993  -27.9280  -51.1131 H         1 UNK         0.0600 
    204 H204        0.4413  -29.1688  -52.1041 H         1 UNK         0.0600 
    205 H205       -0.7716  -26.1851  -49.9114 H         1 UNK         0.3000 
    206 H206       -2.3266  -25.5119  -52.2742 H         1 UNK         0.0600 
    207 H207       -0.3690  -24.1600  -51.5379 H         1 UNK         0.0600 
    208 H208       -1.8275  -23.1874  -51.5881 H         1 UNK         0.0600 
    209 H209       -1.2051  -23.7462  -50.0440 H         1 UNK         0.0600 
    210 H210       -3.3106  -26.5471  -49.2905 H         1 UNK         0.3000 
    211 H211       -5.1765  -26.7816  -48.2062 H         1 UNK         0.0600 
    212 H212       -6.5983  -25.5916  -50.6444 H         1 UNK         0.0600 
    213 H213       -7.3567  -26.5142  -49.3556 H         1 UNK         0.0600 
    214 H214       -6.1859  -27.2899  -50.4113 H         1 UNK         0.0600 
    215 H215       -5.0913  -23.5428  -49.6087 H         1 UNK         0.3000 
    216 H216       -5.7365  -22.3444  -46.9602 H         1 UNK         0.0600 
    217 H217       -7.2882  -20.7168  -48.0528 H         1 UNK         0.0600 
    218 H218       -7.8920  -22.3600  -48.2103 H         1 UNK         0.0600 
    219 H219       -7.1242  -21.5658  -49.5857 H         1 UNK         0.0600 
    220 H220       -4.2835  -22.0697  -50.1841 H         1 UNK         0.3000 
    221 H221       -2.7816  -20.7650  -51.1217 H         1 UNK         0.0600 
    222 H222       -1.7533  -20.2106  -48.2969 H         1 UNK         0.0600 
    223 H223       -1.2799  -21.5725  -49.3028 H         1 UNK         0.0600 
    224 H224       -0.8415  -19.9568  -49.7782 H         1 UNK         0.0600 
    225 H225       -1.6408  -18.2437  -49.9538 H         1 UNK         0.3000 
    226 H226       -1.8976  -16.0519  -50.1397 H         1 UNK         0.0600 
    227 H227       -3.2312  -16.2139  -48.0837 H         1 UNK         0.0600 
    228 H228       -3.9281  -14.9790  -49.1104 H         1 UNK         0.0600 
    229 H229       -4.7013  -16.5556  -48.9802 H         1 UNK         0.0600 
    230 H230       -5.2909  -15.9860  -50.8470 H         1 UNK         0.3000 
    231 H231       -4.9335  -14.9768  -53.5185 H         1 UNK         0.0600 
    232 H232       -6.8217  -14.2725  -52.0705 H         1 UNK         0.0600 
    233 H233       -7.4431  -15.9234  -52.0322 H         1 UNK         0.0600 
    234 H234       -7.4313  -15.0165  -53.5400 H         1 UNK         0.0600 
    235 H235       -5.3973  -18.2277  -52.1940 H         1 UNK         0.3000 
    236 H236       -6.3461  -19.4433  -54.6412 H         1 UNK         0.0600 
    237 H237       -6.1177  -21.5372  -53.4070 H         1 UNK         0.0600 
    238 H238       -5.1160  -20.7839  -52.1816 H         1 UNK         0.0600 
    239 H239       -6.8167  -20.3420  -52.3254 H         1 UNK         0.0600 
    240 H240       -3.2335  -18.3459  -53.6955 H         1 UNK         0.3000 
    241 H241       -1.6427  -20.2640  -55.1669 H         1 UNK         0.0600 
    242 H242       -2.9553  -17.5823  -57.9108 H         1 UNK         0.3800 
    243 H243       -3.7075  -17.6962  -56.3409 H         1 UNK         0.3800 
    244 H244        0.2144  -18.6489  -54.8494 H         1 UNK         0.0800 
    245 H245       -0.8900  -17.4585  -54.2216 H         1 UNK         0.0800 
    246 H246        1.2833  -20.7144  -53.1465 H         1 UNK         0.0800 
    247 H247        1.8259  -19.0539  -53.2310 H         1 UNK         0.0800 
@<TRIPOS>BOND
     1    1    2 1    
     2    1  127 1    
     3    1  128 1    
     4    1  129 1    
     5    2    3 2    
     6    2    4 am   BACKBONE|DICT|INTERRES
     7    4    5 1    
     8    4  130 1    
     9    5    6 1    
    10    5   65 1    
    11    5  131 1    
    12    6    7 1    
    13    6  132 1    
    14    6  133 1    
    15    7    8 1    
    16    8    9 1    
    17    8  134 1    
    18    8  135 1    
    19    9   10 ar   
    20    9   14 ar   
    21   10   11 ar   
    22   10  136 1    
    23   11   12 ar   
    24   11  126 1    
    25   12   13 ar   
    26   12  137 1    
    27   13   14 ar   
    28   13   15 1    
    29   14  138 1    
    30   15   16 1    
    31   15  139 1    
    32   15  140 1    
    33   16   17 1    
    34   17   18 1    
    35   17  141 1    
    36   17  142 1    
    37   18   19 1    
    38   18   67 1    
    39   18  143 1    
    40   19   20 am   BACKBONE|DICT|INTERRES
    41   19  144 1    
    42   20   21 2    
    43   20   22 1    
    44   22   23 1    
    45   22   24 1    
    46   22  145 1    
    47   23  146 1    
    48   23  147 1    
    49   23  148 1    
    50   24   25 am   BACKBONE|DICT|INTERRES
    51   24  149 1    
    52   25   26 2    
    53   25   27 1    
    54   27   28 1    
    55   27   29 1    
    56   27  150 1    
    57   28  151 1    
    58   28  152 1    
    59   28  153 1    
    60   29   30 am   BACKBONE|DICT|INTERRES
    61   29  154 1    
    62   30   31 2    
    63   30   32 1    
    64   32   33 1    
    65   32   34 1    
    66   32  155 1    
    67   33  156 1    
    68   33  157 1    
    69   33  158 1    
    70   34   35 am   BACKBONE|DICT|INTERRES
    71   34  159 1    
    72   35   36 2    
    73   35   37 1    
    74   37   38 1    
    75   37   39 1    
    76   37  160 1    
    77   38  161 1    
    78   38  162 1    
    79   38  163 1    
    80   39   40 am   BACKBONE|DICT|INTERRES
    81   39  164 1    
    82   40   41 2    
    83   40   42 1    
    84   42   43 1    
    85   42   44 1    
    86   42  165 1    
    87   43  166 1    
    88   43  167 1    
    89   43  168 1    
    90   44   45 am   BACKBONE|DICT|INTERRES
    91   44  169 1    
    92   45   46 2    
    93   45   47 1    
    94   47   48 1    
    95   47   49 1    
    96   47  170 1    
    97   48  171 1    
    98   48  172 1    
    99   48  173 1    
   100   49   50 am   BACKBONE|DICT|INTERRES
   101   49  174 1    
   102   50   51 2    
   103   50   52 1    
   104   52   53 1    
   105   52   54 1    
   106   52  175 1    
   107   53  176 1    
   108   53  177 1    
   109   53  178 1    
   110   54   55 am   BACKBONE|DICT|INTERRES
   111   54  179 1    
   112   55   56 2    
   113   55   57 1    
   114   57   58 1    
   115   57   59 1    
   116   57  180 1    
   117   58  181 1    
   118   58  182 1    
   119   58  183 1    
   120   59   60 am   BACKBONE|DICT|INTERRES
   121   59  184 1    
   122   60   61 2    
   123   60   62 1    
   124   62   63 1    
   125   62   64 1    
   126   62  185 1    
   127   63  186 1    
   128   63  187 1    
   129   63  188 1    
   130   64   65 am   BACKBONE|DICT|INTERRES
   131   64  189 1    
   132   65   66 2    
   133   67   68 2    
   134   67   69 am   BACKBONE|DICT|INTERRES
   135   69   70 1    
   136   69  190 1    
   137   70   71 1    
   138   70   72 1    
   139   70  191 1    
   140   71  192 1    
   141   71  193 1    
   142   71  194 1    
   143   72   73 2    
   144   72   74 am   BACKBONE|DICT|INTERRES
   145   74   75 1    
   146   74  195 1    
   147   75   76 1    
   148   75   77 1    
   149   75  196 1    
   150   76  197 1    
   151   76  198 1    
   152   76  199 1    
   153   77   78 2    
   154   77   79 am   BACKBONE|DICT|INTERRES
   155   79   80 1    
   156   79  200 1    
   157   80   81 1    
   158   80   82 1    
   159   80  201 1    
   160   81  202 1    
   161   81  203 1    
   162   81  204 1    
   163   82   83 2    
   164   82   84 am   BACKBONE|DICT|INTERRES
   165   84   85 1    
   166   84  205 1    
   167   85   86 1    
   168   85   87 1    
   169   85  206 1    
   170   86  207 1    
   171   86  208 1    
   172   86  209 1    
   173   87   88 2    
   174   87   89 am   BACKBONE|DICT|INTERRES
   175   89   90 1    
   176   89  210 1    
   177   90   91 1    
   178   90   92 1    
   179   90  211 1    
   180   91  212 1    
   181   91  213 1    
   182   91  214 1    
   183   92   93 2    
   184   92   94 am   BACKBONE|DICT|INTERRES
   185   94   95 1    
   186   94  215 1    
   187   95   96 1    
   188   95   97 1    
   189   95  216 1    
   190   96  217 1    
   191   96  218 1    
   192   96  219 1    
   193   97   98 2    
   194   97   99 am   BACKBONE|DICT|INTERRES
   195   99  100 1    
   196   99  220 1    
   197  100  101 1    
   198  100  102 1    
   199  100  221 1    
   200  101  222 1    
   201  101  223 1    
   202  101  224 1    
   203  102  103 2    
   204  102  104 am   BACKBONE|DICT|INTERRES
   205  104  105 1    
   206  104  225 1    
   207  105  106 1    
   208  105  107 1    
   209  105  226 1    
   210  106  227 1    
   211  106  228 1    
   212  106  229 1    
   213  107  108 2    
   214  107  109 am   BACKBONE|DICT|INTERRES
   215  109  110 1    
   216  109  230 1    
   217  110  111 1    
   218  110  112 1    
   219  110  231 1    
   220  111  232 1    
   221  111  233 1    
   222  111  234 1    
   223  112  113 2    
   224  112  114 am   BACKBONE|DICT|INTERRES
   225  114  115 1    
   226  114  235 1    
   227  115  116 1    
   228  115  117 1    
   229  115  236 1    
   230  116  237 1    
   231  116  238 1    
   232  116  239 1    
   233  117  118 2    
   234  117  119 am   BACKBONE|DICT|INTERRES
   235  119  120 1    
   236  119  240 1    
   237  120  121 1    
   238  120  124 1    
   239  120  241 1    
   240  121  122 am   BACKBONE|DICT|INTERRES
   241  121  123 2    
   242  122  242 1    
   243  122  243 1    
   244  124  125 1    
   245  124  244 1    
   246  124  245 1    
   247  125  126 1    
   248  126  246 1    
   249  126  247 1    
@<TRIPOS>SUBSTRUCTURE
     1 UNK         1 GROUP             0       ****    0 ROOT    
