@<TRIPOS>MOLECULE
3R540
247   249    1
SMALL
USER_CHARGES


@<TRIPOS>ATOM
      1 CA         -1.2682   -9.4758  -47.7199 C.3       0 UNK        -0.1800 
      2 C           0.0868   -9.9464  -47.2113 C.2       0 UNK         0.5000 
      3 O           0.7300   -9.2424  -46.4332 O.2       0 UNK        -0.5000 
      4 N           0.5173  -11.1410  -47.6359 N.am      1 UNK        -0.5000 
      5 CA          1.7941  -11.7627  -47.2581 C.3       1 UNK         0.1400 
      6 C6          2.3225  -12.7106  -48.3655 C.3       23 UNK        -0.0398 
      7 S7          1.2532  -14.1506  -48.7193 S.3       23 UNK        -0.2404 
      8 C8          0.5228  -13.7037  -50.3253 C.3       23 UNK        -0.0205 
      9 C9         -0.2465  -14.8780  -50.9109 C.ar      23 UNK        -0.0193 
     10 C10         0.2659  -15.5878  -52.0025 C.ar      23 UNK        -0.1150 
     11 C11        -0.4258  -16.6872  -52.5202 C.ar      23 UNK        -0.0193 
     12 C12        -1.6241  -17.0837  -51.9258 C.ar      23 UNK        -0.1150 
     13 C13        -2.1514  -16.3823  -50.8402 C.ar      23 UNK        -0.0193 
     14 C14        -1.4658  -15.2679  -50.3477 C.ar      23 UNK        -0.1150 
     15 C15        -3.4469  -16.8509  -50.1913 C.3       23 UNK        -0.0205 
     16 S16        -3.2253  -17.2927  -48.4389 S.3       23 UNK        -0.2404 
     17 C17        -1.8505  -18.5020  -48.5102 C.3       23 UNK        -0.0398 
     18 CA         -2.1044  -19.7963  -47.7031 C.3       11 UNK         0.1400 
     19 N          -2.5524  -19.5202  -46.3328 N.am      11 UNK        -0.5000 
     20 C          -2.7918  -20.4268  -45.3768 C.2       10 UNK         0.5000 
     21 O          -2.7528  -21.6416  -45.5760 O.2       10 UNK        -0.5000 
     22 CA         -3.1310  -19.8871  -43.9722 C.3       10 UNK         0.1400 
     23 CB         -2.9632  -20.9594  -42.8810 C.3       10 UNK        -0.1800 
     24 N          -2.2973  -18.7358  -43.6277 N.am      10 UNK        -0.5000 
     25 C          -2.6102  -17.4521  -43.8407 C.2       9 UNK         0.5000 
     26 O          -3.6707  -17.0825  -44.3438 O.2       9 UNK        -0.5000 
     27 CA         -1.5331  -16.4151  -43.4775 C.3       9 UNK         0.1400 
     28 CB         -1.4644  -16.1878  -41.9596 C.3       9 UNK        -0.1800 
     29 N          -0.2150  -16.8065  -43.9769 N.am      9 UNK        -0.5000 
     30 C           0.1395  -16.7820  -45.2702 C.2       8 UNK         0.5000 
     31 O          -0.5810  -16.3353  -46.1597 O.2       8 UNK        -0.5000 
     32 CA          1.5153  -17.3690  -45.6343 C.3       8 UNK         0.1400 
     33 CB          2.6049  -16.2860  -45.6147 C.3       8 UNK        -0.1800 
     34 N           1.8879  -18.4533  -44.7261 N.am      8 UNK        -0.5000 
     35 C           1.4526  -19.7157  -44.8477 C.2       7 UNK         0.5000 
     36 O           0.7742  -20.1114  -45.7934 O.2       7 UNK        -0.5000 
     37 CA          1.8225  -20.7043  -43.7239 C.3       7 UNK         0.1400 
     38 CB          3.0648  -21.5188  -44.1138 C.3       7 UNK        -0.1800 
     39 N           2.0626  -20.0522  -42.4344 N.am      7 UNK        -0.5000 
     40 C           1.1140  -19.4646  -41.6915 C.2       6 UNK         0.5000 
     41 O          -0.0769  -19.4541  -41.9964 O.2       6 UNK        -0.5000 
     42 CA          1.5840  -18.7031  -40.4360 C.3       6 UNK         0.1400 
     43 CB          1.6121  -19.6372  -39.2176 C.3       6 UNK        -0.1800 
     44 N           2.9003  -18.0773  -40.6024 N.am      6 UNK        -0.5000 
     45 C           3.1801  -17.1336  -41.5108 C.2       5 UNK         0.5000 
     46 O           2.3449  -16.6692  -42.2901 O.2       5 UNK        -0.5000 
     47 CA          4.6503  -16.7163  -41.6299 C.3       5 UNK         0.1400 
     48 CB          5.4277  -17.7992  -42.4092 C.3       5 UNK        -0.1800 
     49 N           4.7353  -15.4318  -42.3210 N.am      5 UNK        -0.5000 
     50 C           5.8455  -14.6964  -42.4583 C.2       4 UNK         0.5000 
     51 O           6.9300  -14.9925  -41.9543 O.2       4 UNK        -0.5000 
     52 CA          5.7376  -13.4163  -43.3054 C.3       4 UNK         0.1400 
     53 CB          5.8510  -13.7531  -44.8005 C.3       4 UNK        -0.1800 
     54 N           4.5089  -12.6585  -43.0639 N.am      4 UNK        -0.5000 
     55 C           4.2629  -11.9606  -41.9438 C.2       3 UNK         0.5000 
     56 O           5.0344  -11.9271  -40.9841 O.2       3 UNK        -0.5000 
     57 CA          2.9608  -11.1336  -41.8776 C.3       3 UNK         0.1400 
     58 CB          3.2589   -9.6457  -42.1201 C.3       3 UNK        -0.1800 
     59 N           1.9386  -11.5648  -42.8296 N.am      3 UNK        -0.5000 
     60 C           1.2502  -12.7090  -42.7410 C.2       2 UNK         0.5000 
     61 O           1.3504  -13.4879  -41.7938 O.2       2 UNK        -0.5000 
     62 CA          0.3003  -13.0521  -43.9061 C.3       2 UNK         0.1400 
     63 CB         -1.1490  -12.7142  -43.5231 C.3       2 UNK        -0.1800 
     64 N           0.5990  -12.4092  -45.1908 N.am      2 UNK        -0.5000 
     65 C           1.7581  -12.4396  -45.8662 C.2       1 UNK         0.5000 
     66 O           2.7821  -12.9585  -45.4237 O.2       1 UNK        -0.5000 
     67 C          -3.0026  -20.7787  -48.4803 C.2       11 UNK         0.5000 
     68 O          -2.4821  -21.6374  -49.1905 O.2       11 UNK        -0.5000 
     69 N          -4.3247  -20.6705  -48.2975 N.am      12 UNK        -0.5000 
     70 CA         -5.3202  -21.5473  -48.9152 C.3       12 UNK         0.1400 
     71 CB         -6.7156  -20.9604  -48.6597 C.3       12 UNK        -0.1800 
     72 C          -5.2397  -23.0068  -48.4253 C.2       12 UNK         0.5000 
     73 O          -5.4945  -23.9270  -49.2061 O.2       12 UNK        -0.5000 
     74 N          -4.8725  -23.1859  -47.1490 N.am      13 UNK        -0.5000 
     75 CA         -4.6664  -24.4867  -46.5162 C.3       13 UNK         0.1400 
     76 CB         -4.9009  -24.3647  -45.0031 C.3       13 UNK        -0.1800 
     77 C          -3.2619  -25.0393  -46.8079 C.2       13 UNK         0.5000 
     78 O          -3.1223  -26.2453  -47.0057 O.2       13 UNK        -0.5000 
     79 N          -2.2559  -24.1541  -46.8654 N.am      14 UNK        -0.5000 
     80 CA         -0.8723  -24.4813  -47.2179 C.3       14 UNK         0.1400 
     81 CB          0.0321  -23.2738  -46.9315 C.3       14 UNK        -0.1800 
     82 C          -0.7295  -24.9435  -48.6807 C.2       14 UNK         0.5000 
     83 O           0.0061  -25.8943  -48.9476 O.2       14 UNK        -0.5000 
     84 N          -1.4697  -24.2957  -49.5928 N.am      15 UNK        -0.5000 
     85 CA         -1.6151  -24.7032  -50.9929 C.3       15 UNK         0.1400 
     86 CB         -2.2554  -23.5523  -51.7851 C.3       15 UNK        -0.1800 
     87 C          -2.4511  -25.9889  -51.1579 C.2       15 UNK         0.5000 
     88 O          -2.3160  -26.6723  -52.1723 O.2       15 UNK        -0.5000 
     89 N          -3.3083  -26.2757  -50.1657 N.am      16 UNK        -0.5000 
     90 CA         -4.2059  -27.4303  -50.0211 C.3       16 UNK         0.1400 
     91 CB         -3.4093  -28.7503  -50.0001 C.3       16 UNK        -0.1800 
     92 C          -5.3737  -27.4716  -51.0287 C.2       16 UNK         0.5000 
     93 O          -6.1541  -28.4246  -51.0139 O.2       16 UNK        -0.5000 
     94 N          -5.4965  -26.4356  -51.8654 N.am      17 UNK        -0.5000 
     95 CA         -6.5398  -26.2889  -52.8778 C.3       17 UNK         0.1400 
     96 CB         -5.9657  -25.4618  -54.0393 C.3       17 UNK        -0.1800 
     97 C          -7.8103  -25.6128  -52.3323 C.2       17 UNK         0.5000 
     98 O          -8.8228  -25.6038  -53.0331 O.2       17 UNK        -0.5000 
     99 N          -7.7224  -25.0163  -51.1306 N.am      18 UNK        -0.5000 
    100 CA        -8.6993  -24.0931  -50.5373 C.3       18 UNK         0.1400 
    101 CB       -10.0464  -24.7902  -50.2541 C.3       18 UNK        -0.1800 
    102 C         -8.8391  -22.7992  -51.3722 C.2       18 UNK         0.5000 
    103 O         -9.9203  -22.2136  -51.4491 O.2       18 UNK        -0.5000 
    104 N         -7.7245  -22.3878  -51.9865 N.am      19 UNK        -0.5000 
    105 CA        -7.5740  -21.2559  -52.8889 C.3       19 UNK         0.1400 
    106 CB        -8.1463  -21.6125  -54.2734 C.3       19 UNK        -0.1800 
    107 C         -6.0767  -20.9294  -52.9826 C.2       19 UNK         0.5000 
    108 O         -5.2441  -21.7501  -52.5854 O.2       19 UNK        -0.5000 
    109 N         -5.7552  -19.7500  -53.5256 N.am      20 UNK        -0.5000 
    110 CA        -4.4052  -19.1929  -53.6699 C.3       20 UNK         0.1400 
    111 CB        -4.5417  -17.6743  -53.8940 C.3       20 UNK        -0.1800 
    112 C         -3.5457  -19.8742  -54.7632 C.2       20 UNK         0.5000 
    113 O         -2.9081  -19.1936  -55.5695 O.2       20 UNK        -0.5000 
    114 N         -3.5413  -21.2104  -54.7833 N.am      21 UNK        -0.5000 
    115 CA        -2.8650  -22.0560  -55.7649 C.3       21 UNK         0.1400 
    116 CB        -3.6111  -23.3997  -55.8459 C.3       21 UNK        -0.1800 
    117 C         -1.3630  -22.2255  -55.4539 C.2       21 UNK         0.5000 
    118 O         -0.9008  -23.3449  -55.2258 O.2       21 UNK        -0.5000 
    119 N         -0.6222  -21.1105  -55.4512 N.am      22 UNK        -0.5000 
    120 CA         0.8421  -21.0849  -55.2711 C.3       22 UNK         0.1400 
    121 C          1.6544  -21.6198  -56.4897 C.2       22 UNK         0.5000 
    122 N          1.0640  -21.7909  -57.6667 N.am      22 UNK        -0.7600 
    123 O          2.8457  -21.8894  -56.3624 O.2       22 UNK        -0.5000 
    124 C124        1.3621  -19.6847  -54.8574 C.3       23 UNK        -0.0398 
    125 S125        0.6866  -19.1092  -53.2636 S.3       23 UNK        -0.2404 
    126 C126        0.1052  -17.4485  -53.7245 C.3       23 UNK        -0.0205 
    127 H127       -1.9480   -9.3152  -46.8831 H         1 UNK         0.0600 
    128 H128       -1.1600   -8.5343  -48.2582 H         1 UNK         0.0600 
    129 H129       -1.7234  -10.2022  -48.3937 H         1 UNK         0.0600 
    130 H130       -0.0625  -11.6884  -48.2556 H         1 UNK         0.3000 
    131 H131        2.5330  -10.9637  -47.1663 H         1 UNK         0.0600 
    132 H132        3.3102  -13.0880  -48.0946 H         1 UNK         0.0800 
    133 H133        2.4778  -12.1427  -49.2835 H         1 UNK         0.0800 
    134 H134        1.3119  -13.3887  -51.0098 H         1 UNK         0.0800 
    135 H135       -0.1457  -12.8506  -50.2041 H         1 UNK         0.0800 
    136 H136        1.2047  -15.2873  -52.4461 H         1 UNK         0.1150 
    137 H137       -2.1340  -17.9539  -52.3071 H         1 UNK         0.1150 
    138 H138       -1.8611  -14.7287  -49.4981 H         1 UNK         0.1150 
    139 H139       -4.1911  -16.0571  -50.2667 H         1 UNK         0.0800 
    140 H140       -3.8599  -17.7124  -50.7178 H         1 UNK         0.0800 
    141 H141       -0.9600  -18.0065  -48.1240 H         1 UNK         0.0800 
    142 H142       -1.6087  -18.7452  -49.5460 H         1 UNK         0.0800 
    143 H143       -1.1402  -20.2954  -47.6050 H         1 UNK         0.0600 
    144 H144       -2.6358  -18.5415  -46.0934 H         1 UNK         0.3000 
    145 H145       -4.1813  -19.5896  -43.9868 H         1 UNK         0.0600 
    146 H146       -3.1773  -20.5533  -41.8923 H         1 UNK         0.0600 
    147 H147       -3.6451  -21.7948  -43.0416 H         1 UNK         0.0600 
    148 H148       -1.9485  -21.3596  -42.8650 H         1 UNK         0.0600 
    149 H149       -1.4077  -18.9527  -43.1832 H         1 UNK         0.3000 
    150 H150       -1.8117  -15.4721  -43.9496 H         1 UNK         0.0600 
    151 H151       -2.4112  -15.7994  -41.5831 H         1 UNK         0.0600 
    152 H152       -0.6894  -15.4655  -41.7024 H         1 UNK         0.0600 
    153 H153       -1.2515  -17.1093  -41.4184 H         1 UNK         0.0600 
    154 H154        0.4599  -17.1289  -43.2951 H         1 UNK         0.3000 
    155 H155        1.4544  -17.7617  -46.6517 H         1 UNK         0.0600 
    156 H156        2.6375  -15.7496  -44.6673 H         1 UNK         0.0600 
    157 H157        2.4230  -15.5462  -46.3930 H         1 UNK         0.0600 
    158 H158        3.5925  -16.7095  -45.7969 H         1 UNK         0.0600 
    159 H159        2.4019  -18.1869  -43.8981 H         1 UNK         0.3000 
    160 H160        0.9838  -21.3943  -43.6066 H         1 UNK         0.0600 
    161 H161        3.2934  -22.2743  -43.3620 H         1 UNK         0.0600 
    162 H162        3.9431  -20.8826  -44.2309 H         1 UNK         0.0600 
    163 H163        2.9079  -22.0402  -45.0593 H         1 UNK         0.0600 
    164 H164        3.0177  -20.0205  -42.1104 H         1 UNK         0.3000 
    165 H165        0.8597  -17.9094  -40.2420 H         1 UNK         0.0600 
    166 H166        1.8625  -19.0913  -38.3077 H         1 UNK         0.0600 
    167 H167        0.6373  -20.1005  -39.0589 H         1 UNK         0.0600 
    168 H168        2.3409  -20.4393  -39.3403 H         1 UNK         0.0600 
    169 H169        3.6393  -18.4191  -40.0047 H         1 UNK         0.3000 
    170 H170        5.0649  -16.6070  -40.6258 H         1 UNK         0.0600 
    171 H171        5.3352  -18.7757  -41.9327 H         1 UNK         0.0600 
    172 H172        5.0608  -17.8966  -43.4319 H         1 UNK         0.0600 
    173 H173        6.4930  -17.5757  -42.4590 H         1 UNK         0.0600 
    174 H174        3.8610  -15.1102  -42.7182 H         1 UNK         0.3000 
    175 H175        6.5828  -12.7754  -43.0452 H         1 UNK         0.0600 
    176 H176        5.0460  -14.4120  -45.1280 H         1 UNK         0.0600 
    177 H177        5.8157  -12.8521  -45.4131 H         1 UNK         0.0600 
    178 H178        6.7937  -14.2575  -45.0161 H         1 UNK         0.0600 
    179 H179        3.8246  -12.6568  -43.8153 H         1 UNK         0.3000 
    180 H180        2.5564  -11.2407  -40.8689 H         1 UNK         0.0600 
    181 H181        3.6543   -9.4733  -43.1220 H         1 UNK         0.0600 
    182 H182        3.9957   -9.2725  -41.4075 H         1 UNK         0.0600 
    183 H183        2.3608   -9.0388  -42.0038 H         1 UNK         0.0600 
    184 H184        1.7976  -10.9838  -43.6431 H         1 UNK         0.3000 
    185 H185        0.3791  -14.1265  -44.0639 H         1 UNK         0.0600 
    186 H186       -1.4333  -13.1972  -42.5875 H         1 UNK         0.0600 
    187 H187       -1.2870  -11.6404  -43.3907 H         1 UNK         0.0600 
    188 H188       -1.8499  -13.0495  -44.2877 H         1 UNK         0.0600 
    189 H189       -0.1744  -11.9408  -45.6384 H         1 UNK         0.3000 
    190 H190       -4.6678  -19.9340  -47.6980 H         1 UNK         0.3000 
    191 H191       -5.1396  -21.5545  -49.9905 H         1 UNK         0.0600 
    192 H192       -6.9230  -20.8653  -47.5932 H         1 UNK         0.0600 
    193 H193       -7.4949  -21.5888  -49.0862 H         1 UNK         0.0600 
    194 H194       -6.8149  -19.9730  -49.1110 H         1 UNK         0.0600 
    195 H195       -4.6127  -22.3765  -46.6016 H         1 UNK         0.3000 
    196 H196       -5.3965  -25.1951  -46.9140 H         1 UNK         0.0600 
    197 H197       -4.8007  -25.3351  -44.5152 H         1 UNK         0.0600 
    198 H198       -5.9033  -23.9944  -44.7878 H         1 UNK         0.0600 
    199 H199       -4.1853  -23.6888  -44.5351 H         1 UNK         0.0600 
    200 H200       -2.4456  -23.1881  -46.6118 H         1 UNK         0.3000 
    201 H201       -0.5516  -25.3037  -46.5751 H         1 UNK         0.0600 
    202 H202       -0.0597  -22.9447  -45.8961 H         1 UNK         0.0600 
    203 H203       -0.2124  -22.4280  -47.5731 H         1 UNK         0.0600 
    204 H204        1.0801  -23.5214  -47.1034 H         1 UNK         0.0600 
    205 H205       -1.9797  -23.4617  -49.3112 H         1 UNK         0.3000 
    206 H206       -0.6221  -24.8950  -51.4043 H         1 UNK         0.0600 
    207 H207       -1.6397  -22.6534  -51.7462 H         1 UNK         0.0600 
    208 H208       -2.3713  -23.8188  -52.8353 H         1 UNK         0.0600 
    209 H209       -3.2434  -23.2977  -51.3989 H         1 UNK         0.0600 
    210 H210       -3.3339  -25.6277  -49.3911 H         1 UNK         0.3000 
    211 H211       -4.6718  -27.3166  -49.0415 H         1 UNK         0.0600 
    212 H212       -2.9654  -28.9737  -50.9704 H         1 UNK         0.0600 
    213 H213       -4.0514  -29.5910  -49.7354 H         1 UNK         0.0600 
    214 H214       -2.6070  -28.7122  -49.2630 H         1 UNK         0.0600 
    215 H215       -4.8085  -25.6998  -51.8073 H         1 UNK         0.3000 
    216 H216       -6.8211  -27.2721  -53.2607 H         1 UNK         0.0600 
    217 H217       -6.6925  -25.3579  -54.8460 H         1 UNK         0.0600 
    218 H218       -5.0803  -25.9376  -54.4613 H         1 UNK         0.0600 
    219 H219       -5.6885  -24.4569  -53.7178 H         1 UNK         0.0600 
    220 H220       -6.8411  -25.0794  -50.6352 H         1 UNK         0.3000 
    221 H221       -8.2843  -23.7941  -49.5745 H         1 UNK         0.0600 
    222 H222      -10.5818  -25.0364  -51.1712 H         1 UNK         0.0600 
    223 H223       -9.9024  -25.7121  -49.6907 H         1 UNK         0.0600 
    224 H224      -10.6985  -24.1471  -49.6621 H         1 UNK         0.0600 
    225 H225       -6.8597  -22.8919  -51.8333 H         1 UNK         0.3000 
    226 H226       -8.0971  -20.3917  -52.4749 H         1 UNK         0.0600 
    227 H227       -7.6407  -22.4782  -54.7038 H         1 UNK         0.0600 
    228 H228       -9.2100  -21.8437  -54.2160 H         1 UNK         0.0600 
    229 H229       -8.0350  -20.7840  -54.9737 H         1 UNK         0.0600 
    230 H230       -6.5031  -19.1626  -53.8651 H         1 UNK         0.3000 
    231 H231       -3.8814  -19.3509  -52.7257 H         1 UNK         0.0600 
    232 H232       -5.0397  -17.1940  -53.0517 H         1 UNK         0.0600 
    233 H233       -5.1178  -17.4548  -54.7936 H         1 UNK         0.0600 
    234 H234       -3.5708  -17.1923  -54.0099 H         1 UNK         0.0600 
    235 H235       -4.0577  -21.6846  -54.0475 H         1 UNK         0.3000 
    236 H236       -2.9388  -21.5825  -56.7461 H         1 UNK         0.0600 
    237 H237       -3.1791  -24.0421  -56.6142 H         1 UNK         0.0600 
    238 H238       -3.5649  -23.9414  -54.9016 H         1 UNK         0.0600 
    239 H239       -4.6619  -23.2546  -56.0979 H         1 UNK         0.0600 
    240 H240       -1.0858  -20.2237  -55.6121 H         1 UNK         0.3000 
    241 H241        1.0742  -21.7652  -54.4492 H         1 UNK         0.0600 
    242 H242        1.6013  -22.1415  -58.4444 H         1 UNK         0.3800 
    243 H243        0.0896  -21.5693  -57.7915 H         1 UNK         0.3800 
    244 H244        2.4487  -19.6936  -54.7536 H         1 UNK         0.0800 
    245 H245        1.1410  -18.9587  -55.6415 H         1 UNK         0.0800 
    246 H246        0.9219  -16.8970  -54.1931 H         1 UNK         0.0800 
    247 H247       -0.6838  -17.5355  -54.4735 H         1 UNK         0.0800 
@<TRIPOS>BOND
     1    1    2 1    
     2    1  127 1    
     3    1  128 1    
     4    1  129 1    
     5    2    3 2    
     6    2    4 am   BACKBONE|DICT|INTERRES
     7    4    5 1    
     8    4  130 1    
     9    5    6 1    
    10    5   65 1    
    11    5  131 1    
    12    6    7 1    
    13    6  132 1    
    14    6  133 1    
    15    7    8 1    
    16    8    9 1    
    17    8  134 1    
    18    8  135 1    
    19    9   10 ar   
    20    9   14 ar   
    21   10   11 ar   
    22   10  136 1    
    23   11   12 ar   
    24   11  126 1    
    25   12   13 ar   
    26   12  137 1    
    27   13   14 ar   
    28   13   15 1    
    29   14  138 1    
    30   15   16 1    
    31   15  139 1    
    32   15  140 1    
    33   16   17 1    
    34   17   18 1    
    35   17  141 1    
    36   17  142 1    
    37   18   19 1    
    38   18   67 1    
    39   18  143 1    
    40   19   20 am   BACKBONE|DICT|INTERRES
    41   19  144 1    
    42   20   21 2    
    43   20   22 1    
    44   22   23 1    
    45   22   24 1    
    46   22  145 1    
    47   23  146 1    
    48   23  147 1    
    49   23  148 1    
    50   24   25 am   BACKBONE|DICT|INTERRES
    51   24  149 1    
    52   25   26 2    
    53   25   27 1    
    54   27   28 1    
    55   27   29 1    
    56   27  150 1    
    57   28  151 1    
    58   28  152 1    
    59   28  153 1    
    60   29   30 am   BACKBONE|DICT|INTERRES
    61   29  154 1    
    62   30   31 2    
    63   30   32 1    
    64   32   33 1    
    65   32   34 1    
    66   32  155 1    
    67   33  156 1    
    68   33  157 1    
    69   33  158 1    
    70   34   35 am   BACKBONE|DICT|INTERRES
    71   34  159 1    
    72   35   36 2    
    73   35   37 1    
    74   37   38 1    
    75   37   39 1    
    76   37  160 1    
    77   38  161 1    
    78   38  162 1    
    79   38  163 1    
    80   39   40 am   BACKBONE|DICT|INTERRES
    81   39  164 1    
    82   40   41 2    
    83   40   42 1    
    84   42   43 1    
    85   42   44 1    
    86   42  165 1    
    87   43  166 1    
    88   43  167 1    
    89   43  168 1    
    90   44   45 am   BACKBONE|DICT|INTERRES
    91   44  169 1    
    92   45   46 2    
    93   45   47 1    
    94   47   48 1    
    95   47   49 1    
    96   47  170 1    
    97   48  171 1    
    98   48  172 1    
    99   48  173 1    
   100   49   50 am   BACKBONE|DICT|INTERRES
   101   49  174 1    
   102   50   51 2    
   103   50   52 1    
   104   52   53 1    
   105   52   54 1    
   106   52  175 1    
   107   53  176 1    
   108   53  177 1    
   109   53  178 1    
   110   54   55 am   BACKBONE|DICT|INTERRES
   111   54  179 1    
   112   55   56 2    
   113   55   57 1    
   114   57   58 1    
   115   57   59 1    
   116   57  180 1    
   117   58  181 1    
   118   58  182 1    
   119   58  183 1    
   120   59   60 am   BACKBONE|DICT|INTERRES
   121   59  184 1    
   122   60   61 2    
   123   60   62 1    
   124   62   63 1    
   125   62   64 1    
   126   62  185 1    
   127   63  186 1    
   128   63  187 1    
   129   63  188 1    
   130   64   65 am   BACKBONE|DICT|INTERRES
   131   64  189 1    
   132   65   66 2    
   133   67   68 2    
   134   67   69 am   BACKBONE|DICT|INTERRES
   135   69   70 1    
   136   69  190 1    
   137   70   71 1    
   138   70   72 1    
   139   70  191 1    
   140   71  192 1    
   141   71  193 1    
   142   71  194 1    
   143   72   73 2    
   144   72   74 am   BACKBONE|DICT|INTERRES
   145   74   75 1    
   146   74  195 1    
   147   75   76 1    
   148   75   77 1    
   149   75  196 1    
   150   76  197 1    
   151   76  198 1    
   152   76  199 1    
   153   77   78 2    
   154   77   79 am   BACKBONE|DICT|INTERRES
   155   79   80 1    
   156   79  200 1    
   157   80   81 1    
   158   80   82 1    
   159   80  201 1    
   160   81  202 1    
   161   81  203 1    
   162   81  204 1    
   163   82   83 2    
   164   82   84 am   BACKBONE|DICT|INTERRES
   165   84   85 1    
   166   84  205 1    
   167   85   86 1    
   168   85   87 1    
   169   85  206 1    
   170   86  207 1    
   171   86  208 1    
   172   86  209 1    
   173   87   88 2    
   174   87   89 am   BACKBONE|DICT|INTERRES
   175   89   90 1    
   176   89  210 1    
   177   90   91 1    
   178   90   92 1    
   179   90  211 1    
   180   91  212 1    
   181   91  213 1    
   182   91  214 1    
   183   92   93 2    
   184   92   94 am   BACKBONE|DICT|INTERRES
   185   94   95 1    
   186   94  215 1    
   187   95   96 1    
   188   95   97 1    
   189   95  216 1    
   190   96  217 1    
   191   96  218 1    
   192   96  219 1    
   193   97   98 2    
   194   97   99 am   BACKBONE|DICT|INTERRES
   195   99  100 1    
   196   99  220 1    
   197  100  101 1    
   198  100  102 1    
   199  100  221 1    
   200  101  222 1    
   201  101  223 1    
   202  101  224 1    
   203  102  103 2    
   204  102  104 am   BACKBONE|DICT|INTERRES
   205  104  105 1    
   206  104  225 1    
   207  105  106 1    
   208  105  107 1    
   209  105  226 1    
   210  106  227 1    
   211  106  228 1    
   212  106  229 1    
   213  107  108 2    
   214  107  109 am   BACKBONE|DICT|INTERRES
   215  109  110 1    
   216  109  230 1    
   217  110  111 1    
   218  110  112 1    
   219  110  231 1    
   220  111  232 1    
   221  111  233 1    
   222  111  234 1    
   223  112  113 2    
   224  112  114 am   BACKBONE|DICT|INTERRES
   225  114  115 1    
   226  114  235 1    
   227  115  116 1    
   228  115  117 1    
   229  115  236 1    
   230  116  237 1    
   231  116  238 1    
   232  116  239 1    
   233  117  118 2    
   234  117  119 am   BACKBONE|DICT|INTERRES
   235  119  120 1    
   236  119  240 1    
   237  120  121 1    
   238  120  124 1    
   239  120  241 1    
   240  121  122 am   BACKBONE|DICT|INTERRES
   241  121  123 2    
   242  122  242 1    
   243  122  243 1    
   244  124  125 1    
   245  124  244 1    
   246  124  245 1    
   247  125  126 1    
   248  126  246 1    
   249  126  247 1    
@<TRIPOS>SUBSTRUCTURE
     1 UNK         1 GROUP             0       ****    0 ROOT    
