@<TRIPOS>MOLECULE
3R540
247   249    1
SMALL
USER_CHARGES


@<TRIPOS>ATOM
      1 CA          0.7754  -12.2178  -49.2095 C.3       0 UNK        -0.1800 
      2 C           2.2211  -12.2509  -48.7357 C.2       0 UNK         0.5000 
      3 O           2.9427  -11.2670  -48.8992 O.2       0 UNK        -0.5000 
      4 N           2.6458  -13.3782  -48.1502 N.am      1 UNK        -0.5000 
      5 CA          4.0191  -13.6032  -47.6685 C.3       1 UNK         0.1400 
      6 C6          4.3507  -15.1059  -47.4785 C.3       23 UNK        -0.0398 
      7 S7          4.0941  -16.0800  -49.0032 S.3       23 UNK        -0.2404 
      8 C8          2.9673  -17.3780  -48.4105 C.3       23 UNK        -0.0205 
      9 C9          2.2183  -18.0348  -49.5572 C.ar      23 UNK        -0.0193 
     10 C10         1.0800  -17.4171  -50.0812 C.ar      23 UNK        -0.1150 
     11 C11         0.3668  -18.0072  -51.1261 C.ar      23 UNK        -0.0193 
     12 C12         0.8061  -19.2224  -51.6541 C.ar      23 UNK        -0.1150 
     13 C13         1.9476  -19.8488  -51.1459 C.ar      23 UNK        -0.0193 
     14 C14         2.6495  -19.2521  -50.0933 C.ar      23 UNK        -0.1150 
     15 C15         2.4379  -21.1511  -51.7619 C.3       23 UNK        -0.0205 
     16 S16         2.0572  -22.6042  -50.7343 S.3       23 UNK        -0.2404 
     17 C17         0.2313  -22.6351  -50.7555 C.3       23 UNK        -0.0398 
     18 CA         -0.3588  -22.7229  -49.3308 C.3       11 UNK         0.1400 
     19 N           0.0896  -21.6379  -48.4512 N.am      11 UNK        -0.5000 
     20 C           0.0510  -21.7166  -47.1153 C.2       10 UNK         0.5000 
     21 O          -0.4122  -22.6787  -46.5048 O.2       10 UNK        -0.5000 
     22 CA          0.5870  -20.5121  -46.3249 C.3       10 UNK         0.1400 
     23 CB          2.1232  -20.5474  -46.3108 C.3       10 UNK        -0.1800 
     24 N           0.1206  -19.1992  -46.7869 N.am      10 UNK        -0.5000 
     25 C          -1.1532  -18.8531  -47.0379 C.2       9 UNK         0.5000 
     26 O          -2.0889  -19.6529  -47.0429 O.2       9 UNK        -0.5000 
     27 CA         -1.4220  -17.3570  -47.2769 C.3       9 UNK         0.1400 
     28 CB         -2.9198  -17.0024  -47.2707 C.3       9 UNK        -0.1800 
     29 N          -0.7481  -16.5881  -46.2370 N.am      9 UNK        -0.5000 
     30 C           0.0641  -15.5443  -46.4385 C.2       8 UNK         0.5000 
     31 O           0.3132  -15.0670  -47.5439 O.2       8 UNK        -0.5000 
     32 CA          0.7668  -14.9493  -45.2038 C.3       8 UNK         0.1400 
     33 CB          0.0185  -13.7018  -44.7133 C.3       8 UNK        -0.1800 
     34 N           0.9229  -15.8989  -44.1023 N.am      8 UNK        -0.5000 
     35 C           1.6362  -17.0311  -44.1701 C.2       7 UNK         0.5000 
     36 O           2.3567  -17.3116  -45.1260 O.2       7 UNK        -0.5000 
     37 CA          1.4927  -18.0420  -43.0170 C.3       7 UNK         0.1400 
     38 CB          2.7523  -18.0585  -42.1417 C.3       7 UNK        -0.1800 
     39 N           0.3098  -17.8391  -42.1741 N.am      7 UNK        -0.5000 
     40 C          -0.9574  -18.0209  -42.5767 C.2       6 UNK         0.5000 
     41 O          -1.2734  -18.2747  -43.7386 O.2       6 UNK        -0.5000 
     42 CA         -2.0482  -17.8816  -41.5018 C.3       6 UNK         0.1400 
     43 CB         -2.1182  -19.1501  -40.6375 C.3       6 UNK        -0.1800 
     44 N          -1.8117  -16.7185  -40.6451 N.am      6 UNK        -0.5000 
     45 C          -2.2401  -15.4811  -40.9297 C.2       5 UNK         0.5000 
     46 O          -2.9399  -15.2036  -41.9042 O.2       5 UNK        -0.5000 
     47 CA         -1.7811  -14.3553  -39.9801 C.3       5 UNK         0.1400 
     48 CB         -2.6751  -14.3005  -38.7316 C.3       5 UNK        -0.1800 
     49 N          -0.3747  -14.4528  -39.5685 N.am      5 UNK        -0.5000 
     50 C           0.6636  -14.4748  -40.4142 C.2       4 UNK         0.5000 
     51 O           0.5383  -14.4735  -41.6410 O.2       4 UNK        -0.5000 
     52 CA          2.0726  -14.5316  -39.8036 C.3       4 UNK         0.1400 
     53 CB          2.2771  -15.8370  -39.0057 C.3       4 UNK        -0.1800 
     54 N           3.0223  -14.4246  -40.9095 N.am      4 UNK        -0.5000 
     55 C           4.3490  -14.2777  -40.8447 C.2       3 UNK         0.5000 
     56 O           4.9864  -14.2348  -39.7919 O.2       3 UNK        -0.5000 
     57 CA          5.0910  -14.1398  -42.1895 C.3       3 UNK         0.1400 
     58 CB          5.5108  -15.5136  -42.7341 C.3       3 UNK        -0.1800 
     59 N           4.3163  -13.4414  -43.2190 N.am      3 UNK        -0.5000 
     60 C           4.0896  -12.1206  -43.2319 C.2       2 UNK         0.5000 
     61 O           4.4610  -11.3670  -42.3306 O.2       2 UNK        -0.5000 
     62 CA          3.3208  -11.5393  -44.4424 C.3       2 UNK         0.1400 
     63 CB          3.7976  -10.1182  -44.8076 C.3       2 UNK        -0.1800 
     64 N           3.2995  -12.3884  -45.6438 N.am      2 UNK        -0.5000 
     65 C           4.3421  -12.8073  -46.3815 C.2       1 UNK         0.5000 
     66 O           5.5185  -12.5941  -46.0883 O.2       1 UNK        -0.5000 
     67 C          -1.8947  -22.8524  -49.3727 C.2       11 UNK         0.5000 
     68 O          -2.3918  -23.9391  -49.6690 O.2       11 UNK        -0.5000 
     69 N          -2.6267  -21.7764  -49.0548 N.am      12 UNK        -0.5000 
     70 CA         -4.0780  -21.8114  -48.8908 C.3       12 UNK         0.1400 
     71 CB         -4.6692  -20.4167  -49.1234 C.3       12 UNK        -0.1800 
     72 C          -4.4590  -22.3551  -47.5059 C.2       12 UNK         0.5000 
     73 O          -5.3636  -23.1831  -47.4122 O.2       12 UNK        -0.5000 
     74 N          -3.7263  -21.9302  -46.4663 N.am      13 UNK        -0.5000 
     75 CA         -3.8665  -22.4024  -45.0862 C.3       13 UNK         0.1400 
     76 CB         -2.9637  -21.5646  -44.1664 C.3       13 UNK        -0.1800 
     77 C          -3.5680  -23.9078  -44.9355 C.2       13 UNK         0.5000 
     78 O          -4.2733  -24.5994  -44.2006 O.2       13 UNK        -0.5000 
     79 N          -2.5593  -24.3938  -45.6716 N.am      14 UNK        -0.5000 
     80 CA         -2.1968  -25.8086  -45.7822 C.3       14 UNK         0.1400 
     81 CB         -0.7537  -25.9046  -46.3035 C.3       14 UNK        -0.1800 
     82 C          -3.1407  -26.6228  -46.6927 C.2       14 UNK         0.5000 
     83 O          -3.0336  -27.8495  -46.7132 O.2       14 UNK        -0.5000 
     84 N          -4.0191  -25.9385  -47.4430 N.am      15 UNK        -0.5000 
     85 CA         -4.9521  -26.4740  -48.4418 C.3       15 UNK         0.1400 
     86 CB         -6.0213  -27.3668  -47.7794 C.3       15 UNK        -0.1800 
     87 C          -4.2482  -27.1529  -49.6376 C.2       15 UNK         0.5000 
     88 O          -4.7993  -28.0755  -50.2401 O.2       15 UNK        -0.5000 
     89 N          -3.0435  -26.6720  -49.9662 N.am      16 UNK        -0.5000 
     90 CA         -2.2216  -27.1386  -51.0797 C.3       16 UNK         0.1400 
     91 CB         -0.7404  -26.9594  -50.7101 C.3       16 UNK        -0.1800 
     92 C          -2.5453  -26.3855  -52.3815 C.2       16 UNK         0.5000 
     93 O          -2.4767  -26.9826  -53.4563 O.2       16 UNK        -0.5000 
     94 N          -2.8928  -25.0968  -52.2645 N.am      17 UNK        -0.5000 
     95 CA         -3.2015  -24.2060  -53.3843 C.3       17 UNK         0.1400 
     96 CB         -1.9217  -23.4897  -53.8510 C.3       17 UNK        -0.1800 
     97 C          -4.3330  -23.2260  -53.0272 C.2       17 UNK         0.5000 
     98 O          -4.3607  -22.1034  -53.5414 O.2       17 UNK        -0.5000 
     99 N          -5.2563  -23.6691  -52.1621 N.am      18 UNK        -0.5000 
    100 CA        -6.4560  -22.9322  -51.7653 C.3       18 UNK         0.1400 
    101 CB        -7.2020  -23.7123  -50.6723 C.3       18 UNK        -0.1800 
    102 C         -7.3721  -22.6604  -52.9707 C.2       18 UNK         0.5000 
    103 O         -7.7952  -23.6053  -53.6393 O.2       18 UNK        -0.5000 
    104 N         -7.6130  -21.3711  -53.2345 N.am      19 UNK        -0.5000 
    105 CA        -8.3460  -20.7936  -54.3657 C.3       19 UNK         0.1400 
    106 CB        -9.8000  -21.3069  -54.4202 C.3       19 UNK        -0.1800 
    107 C         -7.6211  -20.9276  -55.7231 C.2       19 UNK         0.5000 
    108 O         -8.1996  -20.5587  -56.7466 O.2       19 UNK        -0.5000 
    109 N         -6.3731  -21.4159  -55.7184 N.am      20 UNK        -0.5000 
    110 CA        -5.5107  -21.5185  -56.8931 C.3       20 UNK         0.1400 
    111 CB        -4.8855  -22.9218  -56.9603 C.3       20 UNK        -0.1800 
    112 C         -4.4326  -20.4274  -56.8420 C.2       20 UNK         0.5000 
    113 O         -4.3046  -19.6600  -57.7969 O.2       20 UNK        -0.5000 
    114 N         -3.6963  -20.3613  -55.7243 N.am      21 UNK        -0.5000 
    115 CA        -2.6711  -19.3477  -55.4770 C.3       21 UNK         0.1400 
    116 CB        -1.4809  -19.9906  -54.7500 C.3       21 UNK        -0.1800 
    117 C         -3.2304  -18.1779  -54.6536 C.2       21 UNK         0.5000 
    118 O         -2.9163  -17.0241  -54.9475 O.2       21 UNK        -0.5000 
    119 N         -4.0454  -18.4934  -53.6421 N.am      22 UNK        -0.5000 
    120 CA        -4.6490  -17.5439  -52.6997 C.3       22 UNK         0.1400 
    121 C         -5.8187  -18.1957  -51.9145 C.2       22 UNK         0.5000 
    122 N         -6.5554  -17.4300  -51.1220 N.am      22 UNK        -0.7600 
    123 O         -6.0857  -19.3897  -52.0278 O.2       22 UNK        -0.5000 
    124 C124       -3.6100  -16.8290  -51.7830 C.3       23 UNK        -0.0398 
    125 S125       -2.3976  -17.9293  -50.9630 S.3       23 UNK        -0.2404 
    126 C126       -0.8549  -17.3152  -51.7058 C.3       23 UNK        -0.0205 
    127 H127        0.1324  -11.8118  -48.4287 H         1 UNK         0.0600 
    128 H128        0.4187  -13.2151  -49.4673 H         1 UNK         0.0600 
    129 H129        0.6788  -11.5899  -50.0953 H         1 UNK         0.0600 
    130 H130        1.9954  -14.1532  -48.0599 H         1 UNK         0.3000 
    131 H131        4.6957  -13.2225  -48.4370 H         1 UNK         0.0600 
    132 H132        3.7639  -15.5290  -46.6626 H         1 UNK         0.0800 
    133 H133        5.3958  -15.2282  -47.1882 H         1 UNK         0.0800 
    134 H134        2.2427  -16.9466  -47.7235 H         1 UNK         0.0800 
    135 H135        3.5330  -18.1154  -47.8393 H         1 UNK         0.0800 
    136 H136        0.7558  -16.4670  -49.6817 H         1 UNK         0.1150 
    137 H137        0.2633  -19.6757  -52.4697 H         1 UNK         0.1150 
    138 H138        3.5347  -19.7317  -49.6994 H         1 UNK         0.1150 
    139 H139        2.0110  -21.2936  -52.7560 H         1 UNK         0.0800 
    140 H140        3.5182  -21.0956  -51.9028 H         1 UNK         0.0800 
    141 H141       -0.0692  -23.5047  -51.3424 H         1 UNK         0.0800 
    142 H142       -0.1617  -21.7651  -51.2806 H         1 UNK         0.0800 
    143 H143        0.0070  -23.6585  -48.9016 H         1 UNK         0.0600 
    144 H144        0.4868  -20.8202  -48.8916 H         1 UNK         0.3000 
    145 H145        0.2378  -20.6221  -45.2965 H         1 UNK         0.0600 
    146 H146        2.5394  -20.3547  -47.2995 H         1 UNK         0.0600 
    147 H147        2.5378  -19.8144  -45.6219 H         1 UNK         0.0600 
    148 H148        2.4886  -21.5237  -45.9893 H         1 UNK         0.0600 
    149 H149        0.8121  -18.4635  -46.7784 H         1 UNK         0.3000 
    150 H150       -1.0200  -17.1143  -48.2602 H         1 UNK         0.0600 
    151 H151       -3.4490  -17.5218  -48.0695 H         1 UNK         0.0600 
    152 H152       -3.0708  -15.9343  -47.4266 H         1 UNK         0.0600 
    153 H153       -3.3926  -17.2750  -46.3263 H         1 UNK         0.0600 
    154 H154       -0.8614  -16.9512  -45.2953 H         1 UNK         0.3000 
    155 H155        1.7660  -14.6511  -45.5183 H         1 UNK         0.0600 
    156 H156       -0.1393  -12.9901  -45.5248 H         1 UNK         0.0600 
    157 H157        0.5788  -13.1851  -43.9354 H         1 UNK         0.0600 
    158 H158       -0.9601  -13.9580  -44.3046 H         1 UNK         0.0600 
    159 H159        0.4213  -15.6845  -43.2468 H         1 UNK         0.3000 
    160 H160        1.3958  -19.0283  -43.4751 H         1 UNK         0.0600 
    161 H161        2.9451  -17.0838  -41.6980 H         1 UNK         0.0600 
    162 H162        3.6299  -18.3289  -42.7304 H         1 UNK         0.0600 
    163 H163        2.6685  -18.7878  -41.3359 H         1 UNK         0.0600 
    164 H164        0.4798  -17.6108  -41.2077 H         1 UNK         0.3000 
    165 H165       -3.0083  -17.7738  -42.0116 H         1 UNK         0.0600 
    166 H166       -2.9322  -19.0880  -39.9151 H         1 UNK         0.0600 
    167 H167       -2.2988  -20.0318  -41.2540 H         1 UNK         0.0600 
    168 H168       -1.1928  -19.3192  -40.0856 H         1 UNK         0.0600 
    169 H169       -1.2550  -16.8572  -39.8149 H         1 UNK         0.3000 
    170 H170       -1.8960  -13.4122  -40.5185 H         1 UNK         0.0600 
    171 H171       -3.7267  -14.2111  -39.0077 H         1 UNK         0.0600 
    172 H172       -2.5712  -15.1981  -38.1210 H         1 UNK         0.0600 
    173 H173       -2.4306  -13.4400  -38.1086 H         1 UNK         0.0600 
    174 H174       -0.1977  -14.4622  -38.5744 H         1 UNK         0.3000 
    175 H175        2.2028  -13.6694  -39.1472 H         1 UNK         0.0600 
    176 H176        2.0599  -16.7205  -39.6042 H         1 UNK         0.0600 
    177 H177        3.2962  -15.9305  -38.6320 H         1 UNK         0.0600 
    178 H178        1.6213  -15.8689  -38.1353 H         1 UNK         0.0600 
    179 H179        2.5654  -14.3996  -41.8133 H         1 UNK         0.3000 
    180 H180        6.0004  -13.5661  -41.9975 H         1 UNK         0.0600 
    181 H181        4.6537  -16.0894  -43.0809 H         1 UNK         0.0600 
    182 H182        6.0214  -16.1031  -41.9714 H         1 UNK         0.0600 
    183 H183        6.1974  -15.4064  -43.5742 H         1 UNK         0.0600 
    184 H184        3.9916  -13.9911  -43.9988 H         1 UNK         0.3000 
    185 H185        2.2838  -11.4557  -44.1160 H         1 UNK         0.0600 
    186 H186        3.2293   -9.7153  -45.6461 H         1 UNK         0.0600 
    187 H187        3.6678   -9.4304  -43.9712 H         1 UNK         0.0600 
    188 H188        4.8530  -10.1046  -45.0813 H         1 UNK         0.0600 
    189 H189        2.3809  -12.5923  -46.0082 H         1 UNK         0.3000 
    190 H190       -2.1598  -20.9324  -48.7464 H         1 UNK         0.3000 
    191 H191       -4.4983  -22.4800  -49.6424 H         1 UNK         0.0600 
    192 H192       -4.3500  -20.0214  -50.0859 H         1 UNK         0.0600 
    193 H193       -5.7591  -20.4510  -49.1292 H         1 UNK         0.0600 
    194 H194       -4.3678  -19.7083  -48.3531 H         1 UNK         0.0600 
    195 H195       -3.0256  -21.2112  -46.6331 H         1 UNK         0.3000 
    196 H196       -4.9033  -22.2390  -44.7858 H         1 UNK         0.0600 
    197 H197       -3.0822  -21.8637  -43.1244 H         1 UNK         0.0600 
    198 H198       -3.2081  -20.5039  -44.2313 H         1 UNK         0.0600 
    199 H199       -1.9102  -21.6774  -44.4226 H         1 UNK         0.0600 
    200 H200       -1.9661  -23.7367  -46.1720 H         1 UNK         0.3000 
    201 H201       -2.2327  -26.2564  -44.7871 H         1 UNK         0.0600 
    202 H202       -0.0612  -25.3750  -45.6489 H         1 UNK         0.0600 
    203 H203       -0.6604  -25.4805  -47.3040 H         1 UNK         0.0600 
    204 H204       -0.4212  -26.9422  -46.3548 H         1 UNK         0.0600 
    205 H205       -4.0532  -24.9339  -47.3257 H         1 UNK         0.3000 
    206 H206       -5.4669  -25.6089  -48.8576 H         1 UNK         0.0600 
    207 H207       -5.5964  -28.2956  -47.3984 H         1 UNK         0.0600 
    208 H208       -6.5033  -26.8515  -46.9484 H         1 UNK         0.0600 
    209 H209       -6.8035  -27.6336  -48.4909 H         1 UNK         0.0600 
    210 H210       -2.7041  -25.8531  -49.4726 H         1 UNK         0.3000 
    211 H211       -2.4042  -28.2021  -51.2481 H         1 UNK         0.0600 
    212 H212       -0.0919  -27.3129  -51.5127 H         1 UNK         0.0600 
    213 H213       -0.4881  -27.5266  -49.8139 H         1 UNK         0.0600 
    214 H214       -0.4927  -25.9139  -50.5237 H         1 UNK         0.0600 
    215 H215       -2.8928  -24.6759  -51.3388 H         1 UNK         0.3000 
    216 H216       -3.5804  -24.7983  -54.2195 H         1 UNK         0.0600 
    217 H217       -2.0993  -22.9417  -54.7762 H         1 UNK         0.0600 
    218 H218       -1.1164  -24.1975  -54.0474 H         1 UNK         0.0600 
    219 H219       -1.5703  -22.7760  -53.1069 H         1 UNK         0.0600 
    220 H220       -5.1841  -24.6219  -51.8390 H         1 UNK         0.3000 
    221 H221       -6.1377  -21.9782  -51.3416 H         1 UNK         0.0600 
    222 H222       -7.4683  -24.7173  -51.0018 H         1 UNK         0.0600 
    223 H223       -6.5996  -23.8002  -49.7702 H         1 UNK         0.0600 
    224 H224       -8.1247  -23.2030  -50.3915 H         1 UNK         0.0600 
    225 H225       -7.1353  -20.6781  -52.6565 H         1 UNK         0.3000 
    226 H226       -8.3888  -19.7227  -54.1623 H         1 UNK         0.0600 
    227 H227      -10.2919  -21.2040  -53.4529 H         1 UNK         0.0600 
    228 H228      -10.3871  -20.7389  -55.1427 H         1 UNK         0.0600 
    229 H229       -9.8520  -22.3550  -54.7153 H         1 UNK         0.0600 
    230 H230       -5.9571  -21.6651  -54.8292 H         1 UNK         0.3000 
    231 H231       -6.0893  -21.3734  -57.8078 H         1 UNK         0.0600 
    232 H232       -4.2627  -23.1376  -56.0937 H         1 UNK         0.0600 
    233 H233       -4.2581  -23.0245  -57.8465 H         1 UNK         0.0600 
    234 H234       -5.6559  -23.6910  -57.0161 H         1 UNK         0.0600 
    235 H235       -3.8784  -21.0187  -54.9707 H         1 UNK         0.3000 
    236 H236       -2.3023  -18.9470  -56.4237 H         1 UNK         0.0600 
    237 H237       -1.0562  -20.8069  -55.3339 H         1 UNK         0.0600 
    238 H238       -0.6865  -19.2603  -54.5942 H         1 UNK         0.0600 
    239 H239       -1.7676  -20.3838  -53.7739 H         1 UNK         0.0600 
    240 H240       -4.2816  -19.4607  -53.4620 H         1 UNK         0.3000 
    241 H241       -5.1285  -16.7776  -53.3115 H         1 UNK         0.0600 
    242 H242       -7.3183  -17.8510  -50.6163 H         1 UNK         0.3800 
    243 H243       -6.3846  -16.4421  -51.0215 H         1 UNK         0.3800 
    244 H244       -3.0702  -16.0936  -52.3799 H         1 UNK         0.0800 
    245 H245       -4.1055  -16.2410  -51.0097 H         1 UNK         0.0800 
    246 H246       -0.8866  -17.4628  -52.7859 H         1 UNK         0.0800 
    247 H247       -0.7808  -16.2384  -51.5450 H         1 UNK         0.0800 
@<TRIPOS>BOND
     1    1    2 1    
     2    1  127 1    
     3    1  128 1    
     4    1  129 1    
     5    2    3 2    
     6    2    4 am   BACKBONE|DICT|INTERRES
     7    4    5 1    
     8    4  130 1    
     9    5    6 1    
    10    5   65 1    
    11    5  131 1    
    12    6    7 1    
    13    6  132 1    
    14    6  133 1    
    15    7    8 1    
    16    8    9 1    
    17    8  134 1    
    18    8  135 1    
    19    9   10 ar   
    20    9   14 ar   
    21   10   11 ar   
    22   10  136 1    
    23   11   12 ar   
    24   11  126 1    
    25   12   13 ar   
    26   12  137 1    
    27   13   14 ar   
    28   13   15 1    
    29   14  138 1    
    30   15   16 1    
    31   15  139 1    
    32   15  140 1    
    33   16   17 1    
    34   17   18 1    
    35   17  141 1    
    36   17  142 1    
    37   18   19 1    
    38   18   67 1    
    39   18  143 1    
    40   19   20 am   BACKBONE|DICT|INTERRES
    41   19  144 1    
    42   20   21 2    
    43   20   22 1    
    44   22   23 1    
    45   22   24 1    
    46   22  145 1    
    47   23  146 1    
    48   23  147 1    
    49   23  148 1    
    50   24   25 am   BACKBONE|DICT|INTERRES
    51   24  149 1    
    52   25   26 2    
    53   25   27 1    
    54   27   28 1    
    55   27   29 1    
    56   27  150 1    
    57   28  151 1    
    58   28  152 1    
    59   28  153 1    
    60   29   30 am   BACKBONE|DICT|INTERRES
    61   29  154 1    
    62   30   31 2    
    63   30   32 1    
    64   32   33 1    
    65   32   34 1    
    66   32  155 1    
    67   33  156 1    
    68   33  157 1    
    69   33  158 1    
    70   34   35 am   BACKBONE|DICT|INTERRES
    71   34  159 1    
    72   35   36 2    
    73   35   37 1    
    74   37   38 1    
    75   37   39 1    
    76   37  160 1    
    77   38  161 1    
    78   38  162 1    
    79   38  163 1    
    80   39   40 am   BACKBONE|DICT|INTERRES
    81   39  164 1    
    82   40   41 2    
    83   40   42 1    
    84   42   43 1    
    85   42   44 1    
    86   42  165 1    
    87   43  166 1    
    88   43  167 1    
    89   43  168 1    
    90   44   45 am   BACKBONE|DICT|INTERRES
    91   44  169 1    
    92   45   46 2    
    93   45   47 1    
    94   47   48 1    
    95   47   49 1    
    96   47  170 1    
    97   48  171 1    
    98   48  172 1    
    99   48  173 1    
   100   49   50 am   BACKBONE|DICT|INTERRES
   101   49  174 1    
   102   50   51 2    
   103   50   52 1    
   104   52   53 1    
   105   52   54 1    
   106   52  175 1    
   107   53  176 1    
   108   53  177 1    
   109   53  178 1    
   110   54   55 am   BACKBONE|DICT|INTERRES
   111   54  179 1    
   112   55   56 2    
   113   55   57 1    
   114   57   58 1    
   115   57   59 1    
   116   57  180 1    
   117   58  181 1    
   118   58  182 1    
   119   58  183 1    
   120   59   60 am   BACKBONE|DICT|INTERRES
   121   59  184 1    
   122   60   61 2    
   123   60   62 1    
   124   62   63 1    
   125   62   64 1    
   126   62  185 1    
   127   63  186 1    
   128   63  187 1    
   129   63  188 1    
   130   64   65 am   BACKBONE|DICT|INTERRES
   131   64  189 1    
   132   65   66 2    
   133   67   68 2    
   134   67   69 am   BACKBONE|DICT|INTERRES
   135   69   70 1    
   136   69  190 1    
   137   70   71 1    
   138   70   72 1    
   139   70  191 1    
   140   71  192 1    
   141   71  193 1    
   142   71  194 1    
   143   72   73 2    
   144   72   74 am   BACKBONE|DICT|INTERRES
   145   74   75 1    
   146   74  195 1    
   147   75   76 1    
   148   75   77 1    
   149   75  196 1    
   150   76  197 1    
   151   76  198 1    
   152   76  199 1    
   153   77   78 2    
   154   77   79 am   BACKBONE|DICT|INTERRES
   155   79   80 1    
   156   79  200 1    
   157   80   81 1    
   158   80   82 1    
   159   80  201 1    
   160   81  202 1    
   161   81  203 1    
   162   81  204 1    
   163   82   83 2    
   164   82   84 am   BACKBONE|DICT|INTERRES
   165   84   85 1    
   166   84  205 1    
   167   85   86 1    
   168   85   87 1    
   169   85  206 1    
   170   86  207 1    
   171   86  208 1    
   172   86  209 1    
   173   87   88 2    
   174   87   89 am   BACKBONE|DICT|INTERRES
   175   89   90 1    
   176   89  210 1    
   177   90   91 1    
   178   90   92 1    
   179   90  211 1    
   180   91  212 1    
   181   91  213 1    
   182   91  214 1    
   183   92   93 2    
   184   92   94 am   BACKBONE|DICT|INTERRES
   185   94   95 1    
   186   94  215 1    
   187   95   96 1    
   188   95   97 1    
   189   95  216 1    
   190   96  217 1    
   191   96  218 1    
   192   96  219 1    
   193   97   98 2    
   194   97   99 am   BACKBONE|DICT|INTERRES
   195   99  100 1    
   196   99  220 1    
   197  100  101 1    
   198  100  102 1    
   199  100  221 1    
   200  101  222 1    
   201  101  223 1    
   202  101  224 1    
   203  102  103 2    
   204  102  104 am   BACKBONE|DICT|INTERRES
   205  104  105 1    
   206  104  225 1    
   207  105  106 1    
   208  105  107 1    
   209  105  226 1    
   210  106  227 1    
   211  106  228 1    
   212  106  229 1    
   213  107  108 2    
   214  107  109 am   BACKBONE|DICT|INTERRES
   215  109  110 1    
   216  109  230 1    
   217  110  111 1    
   218  110  112 1    
   219  110  231 1    
   220  111  232 1    
   221  111  233 1    
   222  111  234 1    
   223  112  113 2    
   224  112  114 am   BACKBONE|DICT|INTERRES
   225  114  115 1    
   226  114  235 1    
   227  115  116 1    
   228  115  117 1    
   229  115  236 1    
   230  116  237 1    
   231  116  238 1    
   232  116  239 1    
   233  117  118 2    
   234  117  119 am   BACKBONE|DICT|INTERRES
   235  119  120 1    
   236  119  240 1    
   237  120  121 1    
   238  120  124 1    
   239  120  241 1    
   240  121  122 am   BACKBONE|DICT|INTERRES
   241  121  123 2    
   242  122  242 1    
   243  122  243 1    
   244  124  125 1    
   245  124  244 1    
   246  124  245 1    
   247  125  126 1    
   248  126  246 1    
   249  126  247 1    
@<TRIPOS>SUBSTRUCTURE
     1 UNK         1 GROUP             0       ****    0 ROOT    
