@<TRIPOS>MOLECULE
3R540
247   249    1
SMALL
USER_CHARGES


@<TRIPOS>ATOM
      1 CA          4.5333  -12.8939  -47.5322 C.3       0 UNK        -0.1800 
      2 C           3.0907  -13.1743  -47.1391 C.2       0 UNK         0.5000 
      3 O           2.7444  -13.0605  -45.9635 O.2       0 UNK        -0.5000 
      4 N           2.2436  -13.5160  -48.1212 N.am      1 UNK        -0.5000 
      5 CA          0.8338  -13.9169  -47.9700 C.3       1 UNK         0.1400 
      6 C6          0.2104  -14.3585  -49.3152 C.3       23 UNK        -0.0398 
      7 S7          1.0633  -15.7942  -50.0556 S.3       23 UNK        -0.2404 
      8 C8          0.0030  -17.1665  -49.5021 C.3       23 UNK        -0.0205 
      9 C9          0.2139  -18.4069  -50.3566 C.ar      23 UNK        -0.0193 
     10 C10        -0.5895  -18.6174  -51.4799 C.ar      23 UNK        -0.1150 
     11 C11        -0.3942  -19.7347  -52.2937 C.ar      23 UNK        -0.0193 
     12 C12         0.6115  -20.6497  -51.9687 C.ar      23 UNK        -0.1150 
     13 C13         1.4208  -20.4658  -50.8426 C.ar      23 UNK        -0.0193 
     14 C14         1.2098  -19.3360  -50.0371 C.ar      23 UNK        -0.1150 
     15 C15         2.4855  -21.5260  -50.5408 C.3       23 UNK        -0.0205 
     16 S16         3.9242  -20.9567  -49.5737 S.3       23 UNK        -0.2404 
     17 C17         3.2924  -21.0761  -47.8667 C.3       23 UNK        -0.0398 
     18 CA          3.9996  -22.1639  -47.0164 C.3       11 UNK         0.1400 
     19 N           4.0142  -21.7749  -45.6028 N.am      11 UNK        -0.5000 
     20 C           4.8607  -22.2358  -44.6740 C.2       10 UNK         0.5000 
     21 O           5.7518  -23.0538  -44.9035 O.2       10 UNK        -0.5000 
     22 CA          4.6618  -21.7009  -43.2431 C.3       10 UNK         0.1400 
     23 CB          5.3221  -20.3235  -43.0783 C.3       10 UNK        -0.1800 
     24 N           3.2495  -21.6095  -42.8661 N.am      10 UNK        -0.5000 
     25 C           2.4559  -22.6667  -42.6424 C.2       9 UNK         0.5000 
     26 O           2.8354  -23.8354  -42.7177 O.2       9 UNK        -0.5000 
     27 CA          0.9829  -22.3717  -42.3039 C.3       9 UNK         0.1400 
     28 CB          0.8322  -22.0064  -40.8196 C.3       9 UNK        -0.1800 
     29 N           0.4095  -21.3087  -43.1293 N.am      9 UNK        -0.5000 
     30 C           0.2474  -21.3838  -44.4578 C.2       8 UNK         0.5000 
     31 O           0.5304  -22.3748  -45.1277 O.2       8 UNK        -0.5000 
     32 CA         -0.2600  -20.1208  -45.1727 C.3       8 UNK         0.1400 
     33 CB         -1.7852  -20.0153  -45.0643 C.3       8 UNK        -0.1800 
     34 N           0.3632  -18.8954  -44.6752 N.am      8 UNK        -0.5000 
     35 C           1.6804  -18.6519  -44.7122 C.2       7 UNK         0.5000 
     36 O           2.5088  -19.4350  -45.1711 O.2       7 UNK        -0.5000 
     37 CA          2.1605  -17.3330  -44.0987 C.3       7 UNK         0.1400 
     38 CB          1.9490  -16.1747  -45.0785 C.3       7 UNK        -0.1800 
     39 N           1.4904  -17.0535  -42.8314 N.am      7 UNK        -0.5000 
     40 C           1.7479  -17.7091  -41.6912 C.2       6 UNK         0.5000 
     41 O           2.6196  -18.5719  -41.5780 O.2       6 UNK        -0.5000 
     42 CA          0.8489  -17.3720  -40.4883 C.3       6 UNK         0.1400 
     43 CB          1.3513  -16.1124  -39.7681 C.3       6 UNK        -0.1800 
     44 N          -0.5521  -17.1886  -40.8707 N.am      6 UNK        -0.5000 
     45 C          -1.3386  -18.1717  -41.3317 C.2       5 UNK         0.5000 
     46 O          -0.9676  -19.3372  -41.4666 O.2       5 UNK        -0.5000 
     47 CA         -2.7682  -17.7861  -41.7533 C.3       5 UNK         0.1400 
     48 CB         -3.7246  -17.8807  -40.5556 C.3       5 UNK        -0.1800 
     49 N          -2.8796  -16.4555  -42.3541 N.am      5 UNK        -0.5000 
     50 C          -2.2138  -16.0264  -43.4350 C.2       4 UNK         0.5000 
     51 O          -1.3734  -16.7020  -44.0305 O.2       4 UNK        -0.5000 
     52 CA         -2.5303  -14.6080  -43.9449 C.3       4 UNK         0.1400 
     53 CB         -3.7406  -13.9373  -43.2572 C.3       4 UNK        -0.1800 
     54 N          -1.3638  -13.7270  -43.8907 N.am      4 UNK        -0.5000 
     55 C          -0.6475  -13.3761  -42.8107 C.2       3 UNK         0.5000 
     56 O          -0.8344  -13.8500  -41.6887 O.2       3 UNK        -0.5000 
     57 CA          0.4586  -12.3117  -43.0004 C.3       3 UNK         0.1400 
     58 CB          1.8363  -12.8653  -42.6066 C.3       3 UNK        -0.1800 
     59 N           0.5272  -11.7737  -44.3634 N.am      3 UNK        -0.5000 
     60 C          -0.3188  -10.8602  -44.8673 C.2       2 UNK         0.5000 
     61 O          -1.1854  -10.2977  -44.1975 O.2       2 UNK        -0.5000 
     62 CA         -0.2155  -10.5450  -46.3768 C.3       2 UNK         0.1400 
     63 CB          0.5796   -9.2500  -46.6013 C.3       2 UNK        -0.1800 
     64 N           0.3938  -11.6169  -47.1687 N.am      2 UNK        -0.5000 
     65 C          -0.0689  -12.8709  -47.2751 C.2       1 UNK         0.5000 
     66 O          -1.1463  -13.2319  -46.8017 O.2       1 UNK        -0.5000 
     67 C           3.3805  -23.5652  -47.2426 C.2       11 UNK         0.5000 
     68 O           3.5797  -24.1469  -48.3093 O.2       11 UNK        -0.5000 
     69 N           2.6433  -24.0746  -46.2427 N.am      12 UNK        -0.5000 
     70 CA          1.8494  -25.3086  -46.2438 C.3       12 UNK         0.1400 
     71 CB          2.7476  -26.5539  -46.3961 C.3       12 UNK        -0.1800 
     72 C           0.6938  -25.2505  -47.2659 C.2       12 UNK         0.5000 
     73 O           0.4414  -26.2186  -47.9860 O.2       12 UNK        -0.5000 
     74 N           0.0245  -24.0944  -47.3119 N.am      13 UNK        -0.5000 
     75 CA         -1.1020  -23.7999  -48.1888 C.3       13 UNK         0.1400 
     76 CB         -1.0376  -22.3142  -48.5707 C.3       13 UNK        -0.1800 
     77 C          -2.4340  -24.0896  -47.4818 C.2       13 UNK         0.5000 
     78 O          -2.5326  -23.9574  -46.2586 O.2       13 UNK        -0.5000 
     79 N          -3.4638  -24.3987  -48.2756 N.am      14 UNK        -0.5000 
     80 CA         -4.8612  -24.4888  -47.8555 C.3       14 UNK         0.1400 
     81 CB         -5.6141  -25.4192  -48.8236 C.3       14 UNK        -0.1800 
     82 C          -5.4701  -23.0736  -47.7899 C.2       14 UNK         0.5000 
     83 O          -6.3097  -22.7205  -48.6197 O.2       14 UNK        -0.5000 
     84 N          -4.9819  -22.2884  -46.8183 N.am      15 UNK        -0.5000 
     85 CA         -5.1779  -20.8478  -46.6185 C.3       15 UNK         0.1400 
     86 CB         -6.6727  -20.4761  -46.5318 C.3       15 UNK        -0.1800 
     87 C          -4.4404  -19.9974  -47.6735 C.2       15 UNK         0.5000 
     88 O          -4.0260  -20.4972  -48.7222 O.2       15 UNK        -0.5000 
     89 N          -4.2885  -18.7005  -47.3767 N.am      16 UNK        -0.5000 
     90 CA         -3.6184  -17.7092  -48.2244 C.3       16 UNK         0.1400 
     91 CB         -3.1019  -16.5631  -47.3343 C.3       16 UNK        -0.1800 
     92 C          -4.5269  -17.2173  -49.3735 C.2       16 UNK         0.5000 
     93 O          -4.7300  -16.0135  -49.5420 O.2       16 UNK        -0.5000 
     94 N          -5.0872  -18.1736  -50.1186 N.am      17 UNK        -0.5000 
     95 CA         -5.9806  -17.9686  -51.2537 C.3       17 UNK         0.1400 
     96 CB         -6.9017  -19.1979  -51.3496 C.3       17 UNK        -0.1800 
     97 C          -5.1968  -17.7386  -52.5625 C.2       17 UNK         0.5000 
     98 O          -3.9652  -17.6696  -52.5536 O.2       17 UNK        -0.5000 
     99 N          -5.9341  -17.6338  -53.6758 N.am      18 UNK        -0.5000 
    100 CA        -5.3981  -17.5781  -55.0380 C.3       18 UNK         0.1400 
    101 CB        -6.5549  -17.2733  -56.0029 C.3       18 UNK        -0.1800 
    102 C         -4.7021  -18.8925  -55.4438 C.2       18 UNK         0.5000 
    103 O         -4.9742  -19.9379  -54.8511 O.2       18 UNK        -0.5000 
    104 N         -3.8564  -18.8285  -56.4809 N.am      19 UNK        -0.5000 
    105 CA        -3.0222  -19.9302  -56.9827 C.3       19 UNK         0.1400 
    106 CB        -2.2109  -19.4291  -58.1872 C.3       19 UNK        -0.1800 
    107 C         -3.7750  -21.2274  -57.3473 C.2       19 UNK         0.5000 
    108 O         -3.2008  -22.3114  -57.2421 O.2       19 UNK        -0.5000 
    109 N         -5.0417  -21.0972  -57.7598 N.am      20 UNK        -0.5000 
    110 CA        -5.9273  -22.2159  -58.0844 C.3       20 UNK         0.1400 
    111 CB        -6.9649  -21.7296  -59.1092 C.3       20 UNK        -0.1800 
    112 C         -6.6370  -22.8157  -56.8520 C.2       20 UNK         0.5000 
    113 O         -7.1925  -23.9097  -56.9620 O.2       20 UNK        -0.5000 
    114 N         -6.6444  -22.0933  -55.7238 N.am      21 UNK        -0.5000 
    115 CA        -7.4142  -22.4209  -54.5224 C.3       21 UNK         0.1400 
    116 CB        -8.2930  -21.2104  -54.1699 C.3       21 UNK        -0.1800 
    117 C         -6.5285  -22.8047  -53.3242 C.2       21 UNK         0.5000 
    118 O         -6.9813  -23.5702  -52.4731 O.2       21 UNK        -0.5000 
    119 N         -5.2992  -22.2763  -53.2656 N.am      22 UNK        -0.5000 
    120 CA        -4.3395  -22.4778  -52.1657 C.3       22 UNK         0.1400 
    121 C         -3.7518  -23.9157  -52.0232 C.2       22 UNK         0.5000 
    122 N         -3.9843  -24.8319  -52.9547 N.am      22 UNK        -0.7600 
    123 O         -3.0759  -24.2080  -51.0413 O.2       22 UNK        -0.5000 
    124 C124       -3.2288  -21.3957  -52.1839 C.3       23 UNK        -0.0398 
    125 S125       -2.0879  -21.5348  -53.6028 S.3       23 UNK        -0.2404 
    126 C126       -1.2412  -19.9243  -53.5458 C.3       23 UNK        -0.0205 
    127 H127        4.8028  -11.8724  -47.2644 H         1 UNK         0.0600 
    128 H128        4.6941  -13.0201  -48.6031 H         1 UNK         0.0600 
    129 H129        5.2025  -13.5737  -47.0048 H         1 UNK         0.0600 
    130 H130        2.6012  -13.5845  -49.0637 H         1 UNK         0.3000 
    131 H131        0.8296  -14.7863  -47.3120 H         1 UNK         0.0600 
    132 H132       -0.8477  -14.5977  -49.1974 H         1 UNK         0.0800 
    133 H133        0.2476  -13.5373  -50.0329 H         1 UNK         0.0800 
    134 H134        0.2007  -17.3856  -48.4514 H         1 UNK         0.0800 
    135 H135       -1.0408  -16.8617  -49.5683 H         1 UNK         0.0800 
    136 H136       -1.3578  -17.8991  -51.7310 H         1 UNK         0.1150 
    137 H137        0.7625  -21.5134  -52.6012 H         1 UNK         0.1150 
    138 H138        1.8208  -19.1597  -49.1653 H         1 UNK         0.1150 
    139 H139        2.0222  -22.3762  -50.0392 H         1 UNK         0.0800 
    140 H140        2.8736  -21.9124  -51.4844 H         1 UNK         0.0800 
    141 H141        3.4787  -20.0922  -47.4363 H         1 UNK         0.0800 
    142 H142        2.2077  -21.2004  -47.8529 H         1 UNK         0.0800 
    143 H143        5.0416  -22.2238  -47.3381 H         1 UNK         0.0600 
    144 H144        3.3522  -21.0490  -45.3342 H         1 UNK         0.3000 
    145 H145        5.1523  -22.3947  -42.5572 H         1 UNK         0.0600 
    146 H146        5.2423  -19.9693  -42.0503 H         1 UNK         0.0600 
    147 H147        4.8631  -19.5746  -43.7245 H         1 UNK         0.0600 
    148 H148        6.3831  -20.3666  -43.3269 H         1 UNK         0.0600 
    149 H149        2.8601  -20.6797  -42.7819 H         1 UNK         0.3000 
    150 H150        0.4111  -23.2833  -42.4898 H         1 UNK         0.0600 
    151 H151        1.2572  -22.7807  -40.1795 H         1 UNK         0.0600 
    152 H152       -0.2175  -21.8991  -40.5461 H         1 UNK         0.0600 
    153 H153        1.3362  -21.0683  -40.5830 H         1 UNK         0.0600 
    154 H154        0.1016  -20.4721  -42.6418 H         1 UNK         0.3000 
    155 H155        0.0027  -20.2072  -46.2287 H         1 UNK         0.0600 
    156 H156       -2.2622  -20.8834  -45.5199 H         1 UNK         0.0600 
    157 H157       -2.1553  -19.1267  -45.5732 H         1 UNK         0.0600 
    158 H158       -2.1116  -19.9700  -44.0262 H         1 UNK         0.0600 
    159 H159       -0.2570  -18.1741  -44.3147 H         1 UNK         0.3000 
    160 H160        3.2333  -17.4255  -43.9153 H         1 UNK         0.0600 
    161 H161        0.8969  -15.9092  -45.1809 H         1 UNK         0.0600 
    162 H162        2.3286  -16.4214  -46.0711 H         1 UNK         0.0600 
    163 H163        2.4914  -15.2952  -44.7425 H         1 UNK         0.0600 
    164 H164        0.7044  -16.4196  -42.8602 H         1 UNK         0.3000 
    165 H165        0.9030  -18.2090  -39.7888 H         1 UNK         0.0600 
    166 H166        0.7670  -15.9124  -38.8699 H         1 UNK         0.0600 
    167 H167        2.3917  -16.2264  -39.4608 H         1 UNK         0.0600 
    168 H168        1.2919  -15.2323  -40.4086 H         1 UNK         0.0600 
    169 H169       -0.9218  -16.2480  -40.8279 H         1 UNK         0.3000 
    170 H170       -3.0957  -18.5077  -42.5029 H         1 UNK         0.0600 
    171 H171       -3.6818  -18.8704  -40.0987 H         1 UNK         0.0600 
    172 H172       -3.4761  -17.1514  -39.7836 H         1 UNK         0.0600 
    173 H173       -4.7574  -17.7099  -40.8600 H         1 UNK         0.0600 
    174 H174       -3.5306  -15.8203  -41.9161 H         1 UNK         0.3000 
    175 H175       -2.7760  -14.7178  -45.0014 H         1 UNK         0.0600 
    176 H176       -3.5703  -13.7643  -42.1940 H         1 UNK         0.0600 
    177 H177       -3.9563  -12.9713  -43.7141 H         1 UNK         0.0600 
    178 H178       -4.6409  -14.5447  -43.3598 H         1 UNK         0.0600 
    179 H179       -1.1057  -13.3263  -44.7856 H         1 UNK         0.3000 
    180 H180        0.2272  -11.4908  -42.3187 H         1 UNK         0.0600 
    181 H181        1.8539  -13.1610  -41.5574 H         1 UNK         0.0600 
    182 H182        2.6172  -12.1172  -42.7439 H         1 UNK         0.0600 
    183 H183        2.1031  -13.7388  -43.1976 H         1 UNK         0.0600 
    184 H184        1.2303  -12.1824  -44.9730 H         1 UNK         0.3000 
    185 H185       -1.2311  -10.3949  -46.7485 H         1 UNK         0.0600 
    186 H186        0.1385   -8.4191  -46.0490 H         1 UNK         0.0600 
    187 H187        1.6141   -9.3519  -46.2705 H         1 UNK         0.0600 
    188 H188        0.5888   -8.9693  -47.6547 H         1 UNK         0.0600 
    189 H189        1.2982  -11.4178  -47.5705 H         1 UNK         0.3000 
    190 H190        2.5067  -23.4860  -45.4312 H         1 UNK         0.3000 
    191 H191        1.3802  -25.3632  -45.2603 H         1 UNK         0.0600 
    192 H192        2.1710  -27.4684  -46.2532 H         1 UNK         0.0600 
    193 H193        3.5467  -26.5551  -45.6548 H         1 UNK         0.0600 
    194 H194        3.2054  -26.6095  -47.3839 H         1 UNK         0.0600 
    195 H195        0.2344  -23.3967  -46.6007 H         1 UNK         0.3000 
    196 H196       -1.0349  -24.4013  -49.0980 H         1 UNK         0.0600 
    197 H197       -0.0956  -22.0690  -49.0553 H         1 UNK         0.0600 
    198 H198       -1.8366  -22.0591  -49.2644 H         1 UNK         0.0600 
    199 H199       -1.1475  -21.6673  -47.7013 H         1 UNK         0.0600 
    200 H200       -3.3059  -24.4116  -49.2832 H         1 UNK         0.3000 
    201 H201       -4.9158  -24.9287  -46.8575 H         1 UNK         0.0600 
    202 H202       -6.6573  -25.5292  -48.5250 H         1 UNK         0.0600 
    203 H203       -5.1721  -26.4155  -48.8360 H         1 UNK         0.0600 
    204 H204       -5.6044  -25.0369  -49.8450 H         1 UNK         0.0600 
    205 H205       -4.2499  -22.6996  -46.2497 H         1 UNK         0.3000 
    206 H206       -4.7252  -20.6232  -45.6520 H         1 UNK         0.0600 
    207 H207       -7.2032  -21.1288  -45.8386 H         1 UNK         0.0600 
    208 H208       -6.8015  -19.4541  -46.1745 H         1 UNK         0.0600 
    209 H209       -7.1681  -20.5403  -47.5010 H         1 UNK         0.0600 
    210 H210       -4.6908  -18.3468  -46.5213 H         1 UNK         0.3000 
    211 H211       -2.7524  -18.1842  -48.6890 H         1 UNK         0.0600 
    212 H212       -3.9151  -16.0786  -46.7933 H         1 UNK         0.0600 
    213 H213       -2.6003  -15.7954  -47.9238 H         1 UNK         0.0600 
    214 H214       -2.3790  -16.9259  -46.6043 H         1 UNK         0.0600 
    215 H215       -4.8273  -19.1323  -49.9104 H         1 UNK         0.3000 
    216 H216       -6.5962  -17.0860  -51.0688 H         1 UNK         0.0600 
    217 H217       -7.3659  -19.4209  -50.3884 H         1 UNK         0.0600 
    218 H218       -6.3550  -20.0864  -51.6666 H         1 UNK         0.0600 
    219 H219       -7.7117  -19.0318  -52.0590 H         1 UNK         0.0600 
    220 H220       -6.9368  -17.7129  -53.6000 H         1 UNK         0.3000 
    221 H221       -4.6672  -16.7685  -55.0871 H         1 UNK         0.0600 
    222 H222       -7.0463  -16.3348  -55.7455 H         1 UNK         0.0600 
    223 H223       -6.1991  -17.1782  -57.0296 H         1 UNK         0.0600 
    224 H224       -7.3089  -18.0617  -55.9888 H         1 UNK         0.0600 
    225 H225       -3.7164  -17.9352  -56.9305 H         1 UNK         0.3000 
    226 H226       -2.3175  -20.1859  -56.1926 H         1 UNK         0.0600 
    227 H227       -1.5761  -18.5862  -57.9134 H         1 UNK         0.0600 
    228 H228       -1.5571  -20.2128  -58.5727 H         1 UNK         0.0600 
    229 H229       -2.8599  -19.1115  -59.0042 H         1 UNK         0.0600 
    230 H230       -5.4346  -20.1697  -57.8227 H         1 UNK         0.3000 
    231 H231       -5.3442  -23.0146  -58.5479 H         1 UNK         0.0600 
    232 H232       -7.6285  -22.5412  -59.4108 H         1 UNK         0.0600 
    233 H233       -6.4820  -21.3552  -60.0121 H         1 UNK         0.0600 
    234 H234       -7.5870  -20.9305  -58.7040 H         1 UNK         0.0600 
    235 H235       -6.0999  -21.2376  -55.6822 H         1 UNK         0.3000 
    236 H236       -8.0771  -23.2678  -54.7110 H         1 UNK         0.0600 
    237 H237       -7.6961  -20.3060  -54.0536 H         1 UNK         0.0600 
    238 H238       -9.0305  -21.0224  -54.9502 H         1 UNK         0.0600 
    239 H239       -8.8377  -21.3727  -53.2388 H         1 UNK         0.0600 
    240 H240       -5.0177  -21.6078  -53.9769 H         1 UNK         0.3000 
    241 H241       -4.9030  -22.3185  -51.2438 H         1 UNK         0.0600 
    242 H242       -4.5340  -24.6032  -53.7666 H         1 UNK         0.3800 
    243 H243       -3.5986  -25.7564  -52.8490 H         1 UNK         0.3800 
    244 H244       -2.6431  -21.4356  -51.2664 H         1 UNK         0.0800 
    245 H245       -3.6835  -20.4050  -52.1966 H         1 UNK         0.0800 
    246 H246       -1.9848  -19.1320  -53.6411 H         1 UNK         0.0800 
    247 H247       -0.5911  -19.8399  -54.4173 H         1 UNK         0.0800 
@<TRIPOS>BOND
     1    1    2 1    
     2    1  127 1    
     3    1  128 1    
     4    1  129 1    
     5    2    3 2    
     6    2    4 am   BACKBONE|DICT|INTERRES
     7    4    5 1    
     8    4  130 1    
     9    5    6 1    
    10    5   65 1    
    11    5  131 1    
    12    6    7 1    
    13    6  132 1    
    14    6  133 1    
    15    7    8 1    
    16    8    9 1    
    17    8  134 1    
    18    8  135 1    
    19    9   10 ar   
    20    9   14 ar   
    21   10   11 ar   
    22   10  136 1    
    23   11   12 ar   
    24   11  126 1    
    25   12   13 ar   
    26   12  137 1    
    27   13   14 ar   
    28   13   15 1    
    29   14  138 1    
    30   15   16 1    
    31   15  139 1    
    32   15  140 1    
    33   16   17 1    
    34   17   18 1    
    35   17  141 1    
    36   17  142 1    
    37   18   19 1    
    38   18   67 1    
    39   18  143 1    
    40   19   20 am   BACKBONE|DICT|INTERRES
    41   19  144 1    
    42   20   21 2    
    43   20   22 1    
    44   22   23 1    
    45   22   24 1    
    46   22  145 1    
    47   23  146 1    
    48   23  147 1    
    49   23  148 1    
    50   24   25 am   BACKBONE|DICT|INTERRES
    51   24  149 1    
    52   25   26 2    
    53   25   27 1    
    54   27   28 1    
    55   27   29 1    
    56   27  150 1    
    57   28  151 1    
    58   28  152 1    
    59   28  153 1    
    60   29   30 am   BACKBONE|DICT|INTERRES
    61   29  154 1    
    62   30   31 2    
    63   30   32 1    
    64   32   33 1    
    65   32   34 1    
    66   32  155 1    
    67   33  156 1    
    68   33  157 1    
    69   33  158 1    
    70   34   35 am   BACKBONE|DICT|INTERRES
    71   34  159 1    
    72   35   36 2    
    73   35   37 1    
    74   37   38 1    
    75   37   39 1    
    76   37  160 1    
    77   38  161 1    
    78   38  162 1    
    79   38  163 1    
    80   39   40 am   BACKBONE|DICT|INTERRES
    81   39  164 1    
    82   40   41 2    
    83   40   42 1    
    84   42   43 1    
    85   42   44 1    
    86   42  165 1    
    87   43  166 1    
    88   43  167 1    
    89   43  168 1    
    90   44   45 am   BACKBONE|DICT|INTERRES
    91   44  169 1    
    92   45   46 2    
    93   45   47 1    
    94   47   48 1    
    95   47   49 1    
    96   47  170 1    
    97   48  171 1    
    98   48  172 1    
    99   48  173 1    
   100   49   50 am   BACKBONE|DICT|INTERRES
   101   49  174 1    
   102   50   51 2    
   103   50   52 1    
   104   52   53 1    
   105   52   54 1    
   106   52  175 1    
   107   53  176 1    
   108   53  177 1    
   109   53  178 1    
   110   54   55 am   BACKBONE|DICT|INTERRES
   111   54  179 1    
   112   55   56 2    
   113   55   57 1    
   114   57   58 1    
   115   57   59 1    
   116   57  180 1    
   117   58  181 1    
   118   58  182 1    
   119   58  183 1    
   120   59   60 am   BACKBONE|DICT|INTERRES
   121   59  184 1    
   122   60   61 2    
   123   60   62 1    
   124   62   63 1    
   125   62   64 1    
   126   62  185 1    
   127   63  186 1    
   128   63  187 1    
   129   63  188 1    
   130   64   65 am   BACKBONE|DICT|INTERRES
   131   64  189 1    
   132   65   66 2    
   133   67   68 2    
   134   67   69 am   BACKBONE|DICT|INTERRES
   135   69   70 1    
   136   69  190 1    
   137   70   71 1    
   138   70   72 1    
   139   70  191 1    
   140   71  192 1    
   141   71  193 1    
   142   71  194 1    
   143   72   73 2    
   144   72   74 am   BACKBONE|DICT|INTERRES
   145   74   75 1    
   146   74  195 1    
   147   75   76 1    
   148   75   77 1    
   149   75  196 1    
   150   76  197 1    
   151   76  198 1    
   152   76  199 1    
   153   77   78 2    
   154   77   79 am   BACKBONE|DICT|INTERRES
   155   79   80 1    
   156   79  200 1    
   157   80   81 1    
   158   80   82 1    
   159   80  201 1    
   160   81  202 1    
   161   81  203 1    
   162   81  204 1    
   163   82   83 2    
   164   82   84 am   BACKBONE|DICT|INTERRES
   165   84   85 1    
   166   84  205 1    
   167   85   86 1    
   168   85   87 1    
   169   85  206 1    
   170   86  207 1    
   171   86  208 1    
   172   86  209 1    
   173   87   88 2    
   174   87   89 am   BACKBONE|DICT|INTERRES
   175   89   90 1    
   176   89  210 1    
   177   90   91 1    
   178   90   92 1    
   179   90  211 1    
   180   91  212 1    
   181   91  213 1    
   182   91  214 1    
   183   92   93 2    
   184   92   94 am   BACKBONE|DICT|INTERRES
   185   94   95 1    
   186   94  215 1    
   187   95   96 1    
   188   95   97 1    
   189   95  216 1    
   190   96  217 1    
   191   96  218 1    
   192   96  219 1    
   193   97   98 2    
   194   97   99 am   BACKBONE|DICT|INTERRES
   195   99  100 1    
   196   99  220 1    
   197  100  101 1    
   198  100  102 1    
   199  100  221 1    
   200  101  222 1    
   201  101  223 1    
   202  101  224 1    
   203  102  103 2    
   204  102  104 am   BACKBONE|DICT|INTERRES
   205  104  105 1    
   206  104  225 1    
   207  105  106 1    
   208  105  107 1    
   209  105  226 1    
   210  106  227 1    
   211  106  228 1    
   212  106  229 1    
   213  107  108 2    
   214  107  109 am   BACKBONE|DICT|INTERRES
   215  109  110 1    
   216  109  230 1    
   217  110  111 1    
   218  110  112 1    
   219  110  231 1    
   220  111  232 1    
   221  111  233 1    
   222  111  234 1    
   223  112  113 2    
   224  112  114 am   BACKBONE|DICT|INTERRES
   225  114  115 1    
   226  114  235 1    
   227  115  116 1    
   228  115  117 1    
   229  115  236 1    
   230  116  237 1    
   231  116  238 1    
   232  116  239 1    
   233  117  118 2    
   234  117  119 am   BACKBONE|DICT|INTERRES
   235  119  120 1    
   236  119  240 1    
   237  120  121 1    
   238  120  124 1    
   239  120  241 1    
   240  121  122 am   BACKBONE|DICT|INTERRES
   241  121  123 2    
   242  122  242 1    
   243  122  243 1    
   244  124  125 1    
   245  124  244 1    
   246  124  245 1    
   247  125  126 1    
   248  126  246 1    
   249  126  247 1    
@<TRIPOS>SUBSTRUCTURE
     1 UNK         1 GROUP             0       ****    0 ROOT    
