@<TRIPOS>MOLECULE
3R540
247   249    1
SMALL
USER_CHARGES


@<TRIPOS>ATOM
      1 CA          5.6986  -11.3621  -50.1868 C.3       0 UNK        -0.1800 
      2 C           4.2177  -11.0170  -50.3326 C.2       0 UNK         0.5000 
      3 O           3.9036   -9.8782  -50.6732 O.2       0 UNK        -0.5000 
      4 N           3.2712  -11.9398  -50.1126 N.am      1 UNK        -0.5000 
      5 CA          3.4051  -13.3074  -49.6008 C.3       1 UNK         0.1400 
      6 C6          2.1785  -14.1926  -49.9732 C.3       23 UNK        -0.0398 
      7 S7          0.5476  -13.3568  -49.9042 S.3       23 UNK        -0.2404 
      8 C8         -0.4593  -14.4032  -51.0063 C.3       23 UNK        -0.0205 
      9 C9         -0.9222  -15.6781  -50.3159 C.ar      23 UNK        -0.0193 
     10 C10        -2.1749  -15.7301  -49.6936 C.ar      23 UNK        -0.1150 
     11 C11        -2.6001  -16.8979  -49.0524 C.ar      23 UNK        -0.0193 
     12 C12        -1.7648  -18.0164  -49.0373 C.ar      23 UNK        -0.1150 
     13 C13        -0.5067  -17.9727  -49.6426 C.ar      23 UNK        -0.0193 
     14 C14        -0.0975  -16.8069  -50.2954 C.ar      23 UNK        -0.1150 
     15 C15         0.4090  -19.1833  -49.5944 C.3       23 UNK        -0.0205 
     16 S16         1.5348  -19.1548  -48.1574 S.3       23 UNK        -0.2404 
     17 C17         0.4443  -19.4747  -46.7238 C.3       23 UNK        -0.0398 
     18 CA          0.2616  -20.9837  -46.4219 C.3       11 UNK         0.1400 
     19 N          -0.1009  -21.2371  -45.0266 N.am      11 UNK        -0.5000 
     20 C          -0.1883  -22.4574  -44.4746 C.2       10 UNK         0.5000 
     21 O           0.1065  -23.5014  -45.0577 O.2       10 UNK        -0.5000 
     22 CA         -0.7545  -22.5241  -43.0474 C.3       10 UNK         0.1400 
     23 CB          0.3342  -22.2059  -42.0132 C.3       10 UNK        -0.1800 
     24 N          -1.8912  -21.6185  -42.8716 N.am      10 UNK        -0.5000 
     25 C          -3.0880  -21.7953  -43.4504 C.2       9 UNK         0.5000 
     26 O          -3.3624  -22.7500  -44.1758 O.2       9 UNK        -0.5000 
     27 CA         -4.1443  -20.7029  -43.2091 C.3       9 UNK         0.1400 
     28 CB         -4.8530  -20.9206  -41.8640 C.3       9 UNK        -0.1800 
     29 N          -3.5820  -19.3533  -43.2499 N.am      9 UNK        -0.5000 
     30 C          -3.0589  -18.7857  -44.3449 C.2       8 UNK         0.5000 
     31 O          -2.9924  -19.3361  -45.4429 O.2       8 UNK        -0.5000 
     32 CA         -2.4647  -17.3805  -44.1735 C.3       8 UNK         0.1400 
     33 CB         -3.5661  -16.3132  -44.2500 C.3       8 UNK        -0.1800 
     34 N          -1.6976  -17.2100  -42.9338 N.am      8 UNK        -0.5000 
     35 C          -0.6341  -17.9390  -42.5681 C.2       7 UNK         0.5000 
     36 O          -0.1799  -18.8661  -43.2423 O.2       7 UNK        -0.5000 
     37 CA          0.0123  -17.5769  -41.2216 C.3       7 UNK         0.1400 
     38 CB          0.4484  -18.8311  -40.4397 C.3       7 UNK        -0.1800 
     39 N           1.1560  -16.6907  -41.4294 N.am      7 UNK        -0.5000 
     40 C           1.6725  -15.8892  -40.4861 C.2       6 UNK         0.5000 
     41 O           1.2117  -15.7947  -39.3474 O.2       6 UNK        -0.5000 
     42 CA          2.8987  -15.0372  -40.8686 C.3       6 UNK         0.1400 
     43 CB          4.1528  -15.9041  -41.0645 C.3       6 UNK        -0.1800 
     44 N           2.6560  -14.2353  -42.0647 N.am      6 UNK        -0.5000 
     45 C           1.8680  -13.1505  -42.1068 C.2       5 UNK         0.5000 
     46 O           1.3536  -12.6369  -41.1126 O.2       5 UNK        -0.5000 
     47 CA          1.5715  -12.5627  -43.5017 C.3       5 UNK         0.1400 
     48 CB          2.6273  -11.5225  -43.9048 C.3       5 UNK        -0.1800 
     49 N           1.4836  -13.6047  -44.5259 N.am      5 UNK        -0.5000 
     50 C           0.5302  -14.5467  -44.5477 C.2       4 UNK         0.5000 
     51 O          -0.4415  -14.5461  -43.7934 O.2       4 UNK        -0.5000 
     52 CA          0.7069  -15.7014  -45.5446 C.3       4 UNK         0.1400 
     53 CB         -0.0310  -15.4036  -46.8488 C.3       4 UNK        -0.1800 
     54 N           2.1103  -15.9944  -45.8241 N.am      4 UNK        -0.5000 
     55 C           2.8994  -16.6922  -44.9961 C.2       3 UNK         0.5000 
     56 O           2.5138  -17.1656  -43.9286 O.2       3 UNK        -0.5000 
     57 CA          4.3772  -16.8401  -45.4007 C.3       3 UNK         0.1400 
     58 CB          4.5765  -18.0533  -46.3196 C.3       3 UNK        -0.1800 
     59 N           4.8983  -15.6418  -46.0585 N.am      3 UNK        -0.5000 
     60 C           5.0394  -14.4544  -45.4543 C.2       2 UNK         0.5000 
     61 O           4.7984  -14.2650  -44.2622 O.2       2 UNK        -0.5000 
     62 CA          5.4747  -13.2742  -46.3411 C.3       2 UNK         0.1400 
     63 CB          7.0048  -13.1449  -46.3549 C.3       2 UNK        -0.1800 
     64 N           4.9855  -13.3678  -47.7208 N.am      2 UNK        -0.5000 
     65 C           3.6966  -13.2883  -48.0836 C.2       1 UNK         0.5000 
     66 O           2.7736  -13.1942  -47.2731 O.2       1 UNK        -0.5000 
     67 C          -0.7514  -21.6410  -47.3788 C.2       11 UNK         0.5000 
     68 O          -0.3456  -22.3974  -48.2595 O.2       11 UNK        -0.5000 
     69 N          -2.0490  -21.3765  -47.1684 N.am      12 UNK        -0.5000 
     70 CA         -3.1453  -21.9102  -47.9757 C.3       12 UNK         0.1400 
     71 CB         -4.4685  -21.2698  -47.5408 C.3       12 UNK        -0.1800 
     72 C          -3.2471  -23.4431  -47.9411 C.2       12 UNK         0.5000 
     73 O          -3.5244  -24.0418  -48.9775 O.2       12 UNK        -0.5000 
     74 N          -2.9890  -24.0552  -46.7775 N.am      13 UNK        -0.5000 
     75 CA         -2.9409  -25.5086  -46.6092 C.3       13 UNK         0.1400 
     76 CB         -2.8359  -25.8507  -45.1153 C.3       13 UNK        -0.1800 
     77 C          -1.7945  -26.1706  -47.3977 C.2       13 UNK         0.5000 
     78 O          -1.9793  -27.2685  -47.9243 O.2       13 UNK        -0.5000 
     79 N          -0.6407  -25.4941  -47.4708 N.am      14 UNK        -0.5000 
     80 CA          0.5303  -25.9461  -48.2187 C.3       14 UNK         0.1400 
     81 CB          1.7837  -25.2457  -47.6698 C.3       14 UNK        -0.1800 
     82 C           0.3843  -25.7040  -49.7319 C.2       14 UNK         0.5000 
     83 O           0.6652  -26.6050  -50.5233 O.2       14 UNK        -0.5000 
     84 N          -0.0312  -24.4871  -50.1042 N.am      15 UNK        -0.5000 
     85 CA         -0.1281  -24.0241  -51.4879 C.3       15 UNK         0.1400 
     86 CB         -0.1537  -22.4901  -51.4874 C.3       15 UNK        -0.1800 
     87 C          -1.3507  -24.5762  -52.2399 C.2       15 UNK         0.5000 
     88 O          -1.2618  -24.7972  -53.4490 O.2       15 UNK        -0.5000 
     89 N          -2.4692  -24.7697  -51.5253 N.am      16 UNK        -0.5000 
     90 CA         -3.7665  -25.2299  -52.0235 C.3       16 UNK         0.1400 
     91 CB         -3.7025  -26.7372  -52.3568 C.3       16 UNK        -0.1800 
     92 C          -4.2753  -24.3397  -53.1761 C.2       16 UNK         0.5000 
     93 O          -4.5050  -23.1456  -52.9651 O.2       16 UNK        -0.5000 
     94 N          -4.4016  -24.9187  -54.3770 N.am      17 UNK        -0.5000 
     95 CA         -4.8401  -24.2599  -55.6065 C.3       17 UNK         0.1400 
     96 CB         -4.9669  -25.3122  -56.7179 C.3       17 UNK        -0.1800 
     97 C          -3.9359  -23.0994  -56.0655 C.2       17 UNK         0.5000 
     98 O          -4.4345  -22.1916  -56.7299 O.2       17 UNK        -0.5000 
     99 N          -2.6496  -23.1093  -55.6813 N.am      18 UNK        -0.5000 
    100 CA        -1.7021  -22.0309  -55.9844 C.3       18 UNK         0.1400 
    101 CB        -0.2651  -22.5200  -55.7506 C.3       18 UNK        -0.1800 
    102 C         -1.9841  -20.7372  -55.1925 C.2       18 UNK         0.5000 
    103 O         -1.6594  -19.6530  -55.6769 O.2       18 UNK        -0.5000 
    104 N         -2.6102  -20.8690  -54.0146 N.am      19 UNK        -0.5000 
    105 CA        -3.1189  -19.7545  -53.2090 C.3       19 UNK         0.1400 
    106 CB        -2.8692  -20.0687  -51.7264 C.3       19 UNK        -0.1800 
    107 C         -4.6193  -19.4991  -53.4545 C.2       19 UNK         0.5000 
    108 O         -5.1621  -18.5326  -52.9214 O.2       19 UNK        -0.5000 
    109 N         -5.2657  -20.3845  -54.2277 N.am      20 UNK        -0.5000 
    110 CA        -6.7071  -20.4775  -54.4760 C.3       20 UNK         0.1400 
    111 CB        -7.2273  -19.2321  -55.2242 C.3       20 UNK        -0.1800 
    112 C         -7.5210  -20.8104  -53.2049 C.2       20 UNK         0.5000 
    113 O         -8.7005  -20.4630  -53.1363 O.2       20 UNK        -0.5000 
    114 N         -6.8781  -21.5026  -52.2477 N.am      21 UNK        -0.5000 
    115 CA        -7.4041  -21.9928  -50.9694 C.3       21 UNK         0.1400 
    116 CB        -8.3207  -23.2076  -51.2154 C.3       21 UNK        -0.1800 
    117 C         -8.0887  -20.8932  -50.1272 C.2       21 UNK         0.5000 
    118 O         -9.3188  -20.8287  -50.0793 O.2       21 UNK        -0.5000 
    119 N         -7.2729  -20.0399  -49.4915 N.am      22 UNK        -0.5000 
    120 CA        -7.7041  -18.8766  -48.6877 C.3       22 UNK         0.1400 
    121 C         -8.6575  -19.1828  -47.4922 C.2       22 UNK         0.5000 
    122 N         -8.6892  -20.3988  -46.9605 N.am      22 UNK        -0.7600 
    123 O         -9.3735  -18.2957  -47.0357 O.2       22 UNK        -0.5000 
    124 C124       -6.5078  -18.0354  -48.1646 C.3       23 UNK        -0.0398 
    125 S125       -5.2349  -17.6606  -49.4154 S.3       23 UNK        -0.2404 
    126 C126       -3.9439  -16.9556  -48.3455 C.3       23 UNK        -0.0205 
    127 H127        6.0190  -11.2339  -49.1533 H         1 UNK         0.0600 
    128 H128        6.2984  -10.6907  -50.8015 H         1 UNK         0.0600 
    129 H129        5.9255  -12.3763  -50.5107 H         1 UNK         0.0600 
    130 H130        2.3072  -11.6553  -50.2203 H         1 UNK         0.3000 
    131 H131        4.2620  -13.7752  -50.0870 H         1 UNK         0.0600 
    132 H132        2.3164  -14.5488  -50.9948 H         1 UNK         0.0800 
    133 H133        2.1401  -15.0926  -49.3568 H         1 UNK         0.0800 
    134 H134       -1.3265  -13.8275  -51.3330 H         1 UNK         0.0800 
    135 H135        0.0991  -14.6428  -51.9123 H         1 UNK         0.0800 
    136 H136       -2.8153  -14.8595  -49.7012 H         1 UNK         0.1150 
    137 H137       -2.0962  -18.9188  -48.5446 H         1 UNK         0.1150 
    138 H138        0.8720  -16.7731  -50.7714 H         1 UNK         0.1150 
    139 H139       -0.1788  -20.0985  -49.6044 H         1 UNK         0.0800 
    140 H140        1.0130  -19.2162  -50.5022 H         1 UNK         0.0800 
    141 H141        0.9316  -18.9998  -45.8711 H         1 UNK         0.0800 
    142 H142       -0.5077  -18.9558  -46.8268 H         1 UNK         0.0800 
    143 H143        1.2236  -21.4768  -46.5790 H         1 UNK         0.0600 
    144 H144       -0.3207  -20.4273  -44.4540 H         1 UNK         0.3000 
    145 H145       -1.1031  -23.5439  -42.8702 H         1 UNK         0.0600 
    146 H146       -0.0610  -22.2310  -40.9976 H         1 UNK         0.0600 
    147 H147        1.1429  -22.9357  -42.0665 H         1 UNK         0.0600 
    148 H148        0.7731  -21.2233  -42.1829 H         1 UNK         0.0600 
    149 H149       -1.7282  -20.7793  -42.3362 H         1 UNK         0.3000 
    150 H150       -4.8898  -20.7813  -44.0034 H         1 UNK         0.0600 
    151 H151       -5.2961  -21.9162  -41.8137 H         1 UNK         0.0600 
    152 H152       -5.6591  -20.2004  -41.7223 H         1 UNK         0.0600 
    153 H153       -4.1646  -20.8246  -41.0235 H         1 UNK         0.0600 
    154 H154       -3.5876  -18.8274  -42.3885 H         1 UNK         0.3000 
    155 H155       -1.7963  -17.2243  -45.0183 H         1 UNK         0.0600 
    156 H156       -3.1404  -15.3096  -44.2577 H         1 UNK         0.0600 
    157 H157       -4.2533  -16.3803  -43.4059 H         1 UNK         0.0600 
    158 H158       -4.1546  -16.4205  -45.1621 H         1 UNK         0.0600 
    159 H159       -1.9733  -16.4344  -42.3485 H         1 UNK         0.3000 
    160 H160       -0.7391  -17.0537  -40.6263 H         1 UNK         0.0600 
    161 H161        1.3007  -19.3189  -40.9132 H         1 UNK         0.0600 
    162 H162       -0.3613  -19.5589  -40.3762 H         1 UNK         0.0600 
    163 H163        0.7368  -18.5811  -39.4188 H         1 UNK         0.0600 
    164 H164        1.5993  -16.7503  -42.3448 H         1 UNK         0.3000 
    165 H165        3.1001  -14.3554  -40.0395 H         1 UNK         0.0600 
    166 H166        4.0407  -16.6101  -41.8863 H         1 UNK         0.0600 
    167 H167        5.0270  -15.2874  -41.2744 H         1 UNK         0.0600 
    168 H168        4.3697  -16.4818  -40.1653 H         1 UNK         0.0600 
    169 H169        3.0891  -14.5506  -42.9238 H         1 UNK         0.3000 
    170 H170        0.6036  -12.0593  -43.4535 H         1 UNK         0.0600 
    171 H171        2.6240  -10.6809  -43.2113 H         1 UNK         0.0600 
    172 H172        3.6328  -11.9410  -43.9005 H         1 UNK         0.0600 
    173 H173        2.4322  -11.1253  -44.9013 H         1 UNK         0.0600 
    174 H174        2.2075  -13.6247  -45.2337 H         1 UNK         0.3000 
    175 H175        0.2709  -16.5959  -45.1038 H         1 UNK         0.0600 
    176 H176       -1.1048  -15.3108  -46.6825 H         1 UNK         0.0600 
    177 H177        0.3140  -14.4727  -47.2950 H         1 UNK         0.0600 
    178 H178        0.1223  -16.2039  -47.5687 H         1 UNK         0.0600 
    179 H179        2.5046  -15.5876  -46.6589 H         1 UNK         0.3000 
    180 H180        4.9525  -17.0063  -44.4872 H         1 UNK         0.0600 
    181 H181        4.1052  -17.9031  -47.2910 H         1 UNK         0.0600 
    182 H182        4.1463  -18.9545  -45.8802 H         1 UNK         0.0600 
    183 H183        5.6356  -18.2480  -46.4891 H         1 UNK         0.0600 
    184 H184        5.1275  -15.7173  -47.0383 H         1 UNK         0.3000 
    185 H185        5.0619  -12.3639  -45.9017 H         1 UNK         0.0600 
    186 H186        7.3214  -12.2606  -46.9084 H         1 UNK         0.0600 
    187 H187        7.3974  -13.0495  -45.3415 H         1 UNK         0.0600 
    188 H188        7.4796  -14.0150  -46.8102 H         1 UNK         0.0600 
    189 H189        5.6940  -13.4587  -48.4340 H         1 UNK         0.3000 
    190 H190       -2.3140  -20.7325  -46.4257 H         1 UNK         0.3000 
    191 H191       -2.9563  -21.6214  -49.0114 H         1 UNK         0.0600 
    192 H192       -5.3043  -21.6607  -48.1210 H         1 UNK         0.0600 
    193 H193       -4.4376  -20.1919  -47.6891 H         1 UNK         0.0600 
    194 H194       -4.6804  -21.4589  -46.4880 H         1 UNK         0.0600 
    195 H195       -2.8363  -23.4935  -45.9455 H         1 UNK         0.3000 
    196 H196       -3.8799  -25.9199  -46.9855 H         1 UNK         0.0600 
    197 H197       -2.7943  -26.9297  -44.9620 H         1 UNK         0.0600 
    198 H198       -3.6997  -25.4782  -44.5647 H         1 UNK         0.0600 
    199 H199       -1.9408  -25.4190  -44.6661 H         1 UNK         0.0600 
    200 H200       -0.5655  -24.6009  -46.9993 H         1 UNK         0.3000 
    201 H201        0.6534  -27.0198  -48.0613 H         1 UNK         0.0600 
    202 H202        1.9296  -25.4733  -46.6137 H         1 UNK         0.0600 
    203 H203        1.7196  -24.1615  -47.7692 H         1 UNK         0.0600 
    204 H204        2.6785  -25.5728  -48.2008 H         1 UNK         0.0600 
    205 H205       -0.2120  -23.7906  -49.3826 H         1 UNK         0.3000 
    206 H206        0.7648  -24.3485  -52.0265 H         1 UNK         0.0600 
    207 H207        0.7617  -22.0814  -51.0593 H         1 UNK         0.0600 
    208 H208       -0.2521  -22.0861  -52.4944 H         1 UNK         0.0600 
    209 H209       -0.9916  -22.1192  -50.8984 H         1 UNK         0.0600 
    210 H210       -2.4709  -24.5143  -50.5426 H         1 UNK         0.3000 
    211 H211       -4.4816  -25.1032  -51.2101 H         1 UNK         0.0600 
    212 H212       -2.9820  -26.9581  -53.1451 H         1 UNK         0.0600 
    213 H213       -4.6758  -27.1145  -52.6734 H         1 UNK         0.0600 
    214 H214       -3.4094  -27.3121  -51.4780 H         1 UNK         0.0600 
    215 H215       -4.1530  -25.8939  -54.4582 H         1 UNK         0.3000 
    216 H216       -5.8311  -23.8422  -55.4172 H         1 UNK         0.0600 
    217 H217       -4.0094  -25.7895  -56.9303 H         1 UNK         0.0600 
    218 H218       -5.6786  -26.0916  -56.4449 H         1 UNK         0.0600 
    219 H219       -5.3221  -24.8612  -57.6456 H         1 UNK         0.0600 
    220 H220       -2.3068  -23.8724  -55.1074 H         1 UNK         0.3000 
    221 H221       -1.7985  -21.7876  -57.0448 H         1 UNK         0.0600 
    222 H222       -0.0464  -23.4023  -56.3522 H         1 UNK         0.0600 
    223 H223        0.4575  -21.7511  -56.0268 H         1 UNK         0.0600 
    224 H224       -0.0863  -22.7749  -54.7075 H         1 UNK         0.0600 
    225 H225       -2.8632  -21.7969  -53.6989 H         1 UNK         0.3000 
    226 H226       -2.5893  -18.8313  -53.4530 H         1 UNK         0.0600 
    227 H227       -3.2792  -21.0380  -51.4411 H         1 UNK         0.0600 
    228 H228       -1.8026  -20.0665  -51.5106 H         1 UNK         0.0600 
    229 H229       -3.3229  -19.3165  -51.0812 H         1 UNK         0.0600 
    230 H230       -4.7135  -21.1223  -54.6404 H         1 UNK         0.3000 
    231 H231       -6.8373  -21.3316  -55.1417 H         1 UNK         0.0600 
    232 H232       -8.2540  -19.3793  -55.5608 H         1 UNK         0.0600 
    233 H233       -6.6247  -19.0237  -56.1083 H         1 UNK         0.0600 
    234 H234       -7.2170  -18.3437  -54.5925 H         1 UNK         0.0600 
    235 H235       -5.9216  -21.7771  -52.4472 H         1 UNK         0.3000 
    236 H236       -6.5450  -22.3465  -50.3968 H         1 UNK         0.0600 
    237 H237       -7.7844  -24.0056  -51.7292 H         1 UNK         0.0600 
    238 H238       -8.6881  -23.6165  -50.2734 H         1 UNK         0.0600 
    239 H239       -9.1894  -22.9457  -51.8205 H         1 UNK         0.0600 
    240 H240       -6.2767  -20.1212  -49.6290 H         1 UNK         0.3000 
    241 H241       -8.2724  -18.2416  -49.3699 H         1 UNK         0.0600 
    242 H242       -8.1185  -21.1390  -47.3339 H         1 UNK         0.3800 
    243 H243       -9.3117  -20.5856  -46.1903 H         1 UNK         0.3800 
    244 H244       -6.8663  -17.0858  -47.7630 H         1 UNK         0.0800 
    245 H245       -6.0266  -18.5495  -47.3311 H         1 UNK         0.0800 
    246 H246       -3.8445  -17.5592  -47.4422 H         1 UNK         0.0800 
    247 H247       -4.2468  -15.9597  -48.0189 H         1 UNK         0.0800 
@<TRIPOS>BOND
     1    1    2 1    
     2    1  127 1    
     3    1  128 1    
     4    1  129 1    
     5    2    3 2    
     6    2    4 am   BACKBONE|DICT|INTERRES
     7    4    5 1    
     8    4  130 1    
     9    5    6 1    
    10    5   65 1    
    11    5  131 1    
    12    6    7 1    
    13    6  132 1    
    14    6  133 1    
    15    7    8 1    
    16    8    9 1    
    17    8  134 1    
    18    8  135 1    
    19    9   10 ar   
    20    9   14 ar   
    21   10   11 ar   
    22   10  136 1    
    23   11   12 ar   
    24   11  126 1    
    25   12   13 ar   
    26   12  137 1    
    27   13   14 ar   
    28   13   15 1    
    29   14  138 1    
    30   15   16 1    
    31   15  139 1    
    32   15  140 1    
    33   16   17 1    
    34   17   18 1    
    35   17  141 1    
    36   17  142 1    
    37   18   19 1    
    38   18   67 1    
    39   18  143 1    
    40   19   20 am   BACKBONE|DICT|INTERRES
    41   19  144 1    
    42   20   21 2    
    43   20   22 1    
    44   22   23 1    
    45   22   24 1    
    46   22  145 1    
    47   23  146 1    
    48   23  147 1    
    49   23  148 1    
    50   24   25 am   BACKBONE|DICT|INTERRES
    51   24  149 1    
    52   25   26 2    
    53   25   27 1    
    54   27   28 1    
    55   27   29 1    
    56   27  150 1    
    57   28  151 1    
    58   28  152 1    
    59   28  153 1    
    60   29   30 am   BACKBONE|DICT|INTERRES
    61   29  154 1    
    62   30   31 2    
    63   30   32 1    
    64   32   33 1    
    65   32   34 1    
    66   32  155 1    
    67   33  156 1    
    68   33  157 1    
    69   33  158 1    
    70   34   35 am   BACKBONE|DICT|INTERRES
    71   34  159 1    
    72   35   36 2    
    73   35   37 1    
    74   37   38 1    
    75   37   39 1    
    76   37  160 1    
    77   38  161 1    
    78   38  162 1    
    79   38  163 1    
    80   39   40 am   BACKBONE|DICT|INTERRES
    81   39  164 1    
    82   40   41 2    
    83   40   42 1    
    84   42   43 1    
    85   42   44 1    
    86   42  165 1    
    87   43  166 1    
    88   43  167 1    
    89   43  168 1    
    90   44   45 am   BACKBONE|DICT|INTERRES
    91   44  169 1    
    92   45   46 2    
    93   45   47 1    
    94   47   48 1    
    95   47   49 1    
    96   47  170 1    
    97   48  171 1    
    98   48  172 1    
    99   48  173 1    
   100   49   50 am   BACKBONE|DICT|INTERRES
   101   49  174 1    
   102   50   51 2    
   103   50   52 1    
   104   52   53 1    
   105   52   54 1    
   106   52  175 1    
   107   53  176 1    
   108   53  177 1    
   109   53  178 1    
   110   54   55 am   BACKBONE|DICT|INTERRES
   111   54  179 1    
   112   55   56 2    
   113   55   57 1    
   114   57   58 1    
   115   57   59 1    
   116   57  180 1    
   117   58  181 1    
   118   58  182 1    
   119   58  183 1    
   120   59   60 am   BACKBONE|DICT|INTERRES
   121   59  184 1    
   122   60   61 2    
   123   60   62 1    
   124   62   63 1    
   125   62   64 1    
   126   62  185 1    
   127   63  186 1    
   128   63  187 1    
   129   63  188 1    
   130   64   65 am   BACKBONE|DICT|INTERRES
   131   64  189 1    
   132   65   66 2    
   133   67   68 2    
   134   67   69 am   BACKBONE|DICT|INTERRES
   135   69   70 1    
   136   69  190 1    
   137   70   71 1    
   138   70   72 1    
   139   70  191 1    
   140   71  192 1    
   141   71  193 1    
   142   71  194 1    
   143   72   73 2    
   144   72   74 am   BACKBONE|DICT|INTERRES
   145   74   75 1    
   146   74  195 1    
   147   75   76 1    
   148   75   77 1    
   149   75  196 1    
   150   76  197 1    
   151   76  198 1    
   152   76  199 1    
   153   77   78 2    
   154   77   79 am   BACKBONE|DICT|INTERRES
   155   79   80 1    
   156   79  200 1    
   157   80   81 1    
   158   80   82 1    
   159   80  201 1    
   160   81  202 1    
   161   81  203 1    
   162   81  204 1    
   163   82   83 2    
   164   82   84 am   BACKBONE|DICT|INTERRES
   165   84   85 1    
   166   84  205 1    
   167   85   86 1    
   168   85   87 1    
   169   85  206 1    
   170   86  207 1    
   171   86  208 1    
   172   86  209 1    
   173   87   88 2    
   174   87   89 am   BACKBONE|DICT|INTERRES
   175   89   90 1    
   176   89  210 1    
   177   90   91 1    
   178   90   92 1    
   179   90  211 1    
   180   91  212 1    
   181   91  213 1    
   182   91  214 1    
   183   92   93 2    
   184   92   94 am   BACKBONE|DICT|INTERRES
   185   94   95 1    
   186   94  215 1    
   187   95   96 1    
   188   95   97 1    
   189   95  216 1    
   190   96  217 1    
   191   96  218 1    
   192   96  219 1    
   193   97   98 2    
   194   97   99 am   BACKBONE|DICT|INTERRES
   195   99  100 1    
   196   99  220 1    
   197  100  101 1    
   198  100  102 1    
   199  100  221 1    
   200  101  222 1    
   201  101  223 1    
   202  101  224 1    
   203  102  103 2    
   204  102  104 am   BACKBONE|DICT|INTERRES
   205  104  105 1    
   206  104  225 1    
   207  105  106 1    
   208  105  107 1    
   209  105  226 1    
   210  106  227 1    
   211  106  228 1    
   212  106  229 1    
   213  107  108 2    
   214  107  109 am   BACKBONE|DICT|INTERRES
   215  109  110 1    
   216  109  230 1    
   217  110  111 1    
   218  110  112 1    
   219  110  231 1    
   220  111  232 1    
   221  111  233 1    
   222  111  234 1    
   223  112  113 2    
   224  112  114 am   BACKBONE|DICT|INTERRES
   225  114  115 1    
   226  114  235 1    
   227  115  116 1    
   228  115  117 1    
   229  115  236 1    
   230  116  237 1    
   231  116  238 1    
   232  116  239 1    
   233  117  118 2    
   234  117  119 am   BACKBONE|DICT|INTERRES
   235  119  120 1    
   236  119  240 1    
   237  120  121 1    
   238  120  124 1    
   239  120  241 1    
   240  121  122 am   BACKBONE|DICT|INTERRES
   241  121  123 2    
   242  122  242 1    
   243  122  243 1    
   244  124  125 1    
   245  124  244 1    
   246  124  245 1    
   247  125  126 1    
   248  126  246 1    
   249  126  247 1    
@<TRIPOS>SUBSTRUCTURE
     1 UNK         1 GROUP             0       ****    0 ROOT    
