@<TRIPOS>MOLECULE
3R540
247   249    1
SMALL
USER_CHARGES


@<TRIPOS>ATOM
      1 CA         -3.1887  -10.7909  -48.6923 C.3       0 UNK        -0.1800 
      2 C          -2.4495  -11.8898  -47.9440 C.2       0 UNK         0.5000 
      3 O          -1.3695  -12.3012  -48.3659 O.2       0 UNK        -0.5000 
      4 N          -3.0108  -12.3537  -46.8195 N.am      1 UNK        -0.5000 
      5 CA         -2.4989  -13.4825  -46.0253 C.3       1 UNK         0.1400 
      6 C6         -3.5904  -14.1370  -45.1353 C.3       23 UNK        -0.0398 
      7 S7         -5.1282  -14.5414  -46.0456 S.3       23 UNK        -0.2404 
      8 C8         -4.8329  -16.2508  -46.6128 C.3       23 UNK        -0.0205 
      9 C9         -3.5934  -16.3442  -47.4882 C.ar      23 UNK        -0.0193 
     10 C10        -3.5901  -15.7939  -48.7741 C.ar      23 UNK        -0.1150 
     11 C11        -2.4175  -15.7760  -49.5359 C.ar      23 UNK        -0.0193 
     12 C12        -1.2497  -16.3340  -49.0065 C.ar      23 UNK        -0.1150 
     13 C13        -1.2506  -16.9175  -47.7372 C.ar      23 UNK        -0.0193 
     14 C14        -2.4258  -16.9199  -46.9826 C.ar      23 UNK        -0.1150 
     15 C15         0.0193  -17.5328  -47.1736 C.3       23 UNK        -0.0205 
     16 S16         0.2312  -19.2525  -47.7286 S.3       23 UNK        -0.2404 
     17 C17        -1.2343  -20.0640  -47.0005 C.3       23 UNK        -0.0398 
     18 CA         -1.0124  -21.5795  -46.8178 C.3       11 UNK         0.1400 
     19 N           0.0270  -21.8748  -45.8319 N.am      11 UNK        -0.5000 
     20 C           0.5581  -23.0871  -45.6314 C.2       10 UNK         0.5000 
     21 O           0.2595  -24.0829  -46.2904 O.2       10 UNK        -0.5000 
     22 CA          1.5462  -23.2140  -44.4613 C.3       10 UNK         0.1400 
     23 CB          2.9492  -22.7430  -44.8724 C.3       10 UNK        -0.1800 
     24 N           1.0931  -22.4586  -43.2927 N.am      10 UNK        -0.5000 
     25 C           0.0512  -22.8114  -42.5268 C.2       9 UNK         0.5000 
     26 O          -0.6155  -23.8307  -42.7090 O.2       9 UNK        -0.5000 
     27 CA         -0.3298  -21.8448  -41.3893 C.3       9 UNK         0.1400 
     28 CB          0.5609  -22.0760  -40.1596 C.3       9 UNK        -0.1800 
     29 N          -0.2527  -20.4374  -41.7878 N.am      9 UNK        -0.5000 
     30 C          -1.0621  -19.8657  -42.6900 C.2       8 UNK         0.5000 
     31 O          -1.9667  -20.4616  -43.2687 O.2       8 UNK        -0.5000 
     32 CA         -0.7925  -18.3959  -43.0508 C.3       8 UNK         0.1400 
     33 CB         -1.5335  -17.4487  -42.0968 C.3       8 UNK        -0.1800 
     34 N           0.6240  -18.0362  -43.0850 N.am      8 UNK        -0.5000 
     35 C           1.5668  -18.6033  -43.8483 C.2       7 UNK         0.5000 
     36 O           1.3593  -19.6104  -44.5267 O.2       7 UNK        -0.5000 
     37 CA          2.9590  -17.9295  -43.8678 C.3       7 UNK         0.1400 
     38 CB          3.7636  -18.3276  -45.1157 C.3       7 UNK        -0.1800 
     39 N           2.9019  -16.4636  -43.7903 N.am      7 UNK        -0.5000 
     40 C           2.6447  -15.7537  -42.6836 C.2       6 UNK         0.5000 
     41 O           2.4121  -16.2708  -41.5892 O.2       6 UNK        -0.5000 
     42 CA          2.6096  -14.2235  -42.8450 C.3       6 UNK         0.1400 
     43 CB          2.2621  -13.4767  -41.5411 C.3       6 UNK        -0.1800 
     44 N           3.8366  -13.6885  -43.4351 N.am      6 UNK        -0.5000 
     45 C           5.0902  -13.7937  -42.9727 C.2       5 UNK         0.5000 
     46 O           5.4002  -14.3635  -41.9249 O.2       5 UNK        -0.5000 
     47 CA          6.1703  -13.1399  -43.8597 C.3       5 UNK         0.1400 
     48 CB          7.6103  -13.3905  -43.3632 C.3       5 UNK        -0.1800 
     49 N           6.0202  -13.5158  -45.2708 N.am      5 UNK        -0.5000 
     50 C           6.1105  -14.7486  -45.7953 C.2       4 UNK         0.5000 
     51 O           6.4193  -15.7516  -45.1510 O.2       4 UNK        -0.5000 
     52 CA          5.7880  -14.8603  -47.3018 C.3       4 UNK         0.1400 
     53 CB          5.6101  -16.3122  -47.7903 C.3       4 UNK        -0.1800 
     54 N           4.6406  -14.0391  -47.7078 N.am      4 UNK        -0.5000 
     55 C           3.3890  -14.0970  -47.2280 C.2       3 UNK         0.5000 
     56 O           3.0076  -14.8855  -46.3572 O.2       3 UNK        -0.5000 
     57 CA          2.4003  -13.0893  -47.8492 C.3       3 UNK         0.1400 
     58 CB          1.6244  -13.7547  -48.9948 C.3       3 UNK        -0.1800 
     59 N           1.4427  -12.5308  -46.8928 N.am      3 UNK        -0.5000 
     60 C           1.7419  -11.9312  -45.7299 C.2       2 UNK         0.5000 
     61 O           2.8968  -11.7386  -45.3451 O.2       2 UNK        -0.5000 
     62 CA          0.5699  -11.4582  -44.8394 C.3       2 UNK         0.1400 
     63 CB          0.5506   -9.9249  -44.7428 C.3       2 UNK        -0.1800 
     64 N          -0.7382  -11.9118  -45.3120 N.am      2 UNK        -0.5000 
     65 C          -1.2150  -13.1614  -45.2246 C.2       1 UNK         0.5000 
     66 O          -0.6609  -14.0524  -44.5806 O.2       1 UNK        -0.5000 
     67 C          -2.3316  -22.3098  -46.4941 C.2       11 UNK         0.5000 
     68 O          -2.9468  -22.8575  -47.4067 O.2       11 UNK        -0.5000 
     69 N          -2.7213  -22.3629  -45.2118 N.am      12 UNK        -0.5000 
     70 CA         -3.8811  -23.1162  -44.7292 C.3       12 UNK         0.1400 
     71 CB         -4.1467  -22.7904  -43.2523 C.3       12 UNK        -0.1800 
     72 C          -3.7336  -24.6343  -44.9317 C.2       12 UNK         0.5000 
     73 O          -4.7006  -25.2816  -45.3322 O.2       12 UNK        -0.5000 
     74 N          -2.5236  -25.1700  -44.7119 N.am      13 UNK        -0.5000 
     75 CA         -2.1801  -26.5705  -44.9809 C.3       13 UNK         0.1400 
     76 CB         -0.7953  -26.8849  -44.3957 C.3       13 UNK        -0.1800 
     77 C          -2.2424  -26.9287  -46.4808 C.2       13 UNK         0.5000 
     78 O          -2.6195  -28.0497  -46.8225 O.2       13 UNK        -0.5000 
     79 N          -1.9195  -25.9578  -47.3461 N.am      14 UNK        -0.5000 
     80 CA         -2.0646  -26.0364  -48.8024 C.3       14 UNK         0.1400 
     81 CB         -1.0784  -25.0483  -49.4478 C.3       14 UNK        -0.1800 
     82 C          -3.5064  -25.7693  -49.2931 C.2       14 UNK         0.5000 
     83 O          -3.7561  -25.8717  -50.4945 O.2       14 UNK        -0.5000 
     84 N          -4.4194  -25.4234  -48.3718 N.am      15 UNK        -0.5000 
     85 CA         -5.8227  -25.0554  -48.5865 C.3       15 UNK         0.1400 
     86 CB         -6.6405  -26.2542  -49.1105 C.3       15 UNK        -0.1800 
     87 C          -6.0063  -23.7553  -49.4014 C.2       15 UNK         0.5000 
     88 O          -7.0087  -23.6008  -50.1027 O.2       15 UNK        -0.5000 
     89 N          -5.0449  -22.8309  -49.2519 N.am      16 UNK        -0.5000 
     90 CA         -4.9882  -21.4666  -49.7789 C.3       16 UNK         0.1400 
     91 CB         -5.8346  -20.5315  -48.8896 C.3       16 UNK        -0.1800 
     92 C          -5.3294  -21.3825  -51.2786 C.2       16 UNK         0.5000 
     93 O          -4.5190  -21.7992  -52.1056 O.2       16 UNK        -0.5000 
     94 N          -6.5210  -20.8641  -51.6067 N.am      17 UNK        -0.5000 
     95 CA         -7.0375  -20.6792  -52.9652 C.3       17 UNK         0.1400 
     96 CB         -8.4239  -20.0235  -52.8857 C.3       17 UNK        -0.1800 
     97 C          -7.0979  -21.9644  -53.8147 C.2       17 UNK         0.5000 
     98 O          -7.0238  -21.8721  -55.0402 O.2       17 UNK        -0.5000 
     99 N          -7.1749  -23.1374  -53.1679 N.am      18 UNK        -0.5000 
    100 CA        -7.1116  -24.4496  -53.8178 C.3       18 UNK         0.1400 
    101 CB        -7.4249  -25.5389  -52.7847 C.3       18 UNK        -0.1800 
    102 C         -5.7568  -24.7377  -54.4988 C.2       18 UNK         0.5000 
    103 O         -5.7135  -25.5388  -55.4330 O.2       18 UNK        -0.5000 
    104 N         -4.6854  -24.0675  -54.0489 N.am      19 UNK        -0.5000 
    105 CA        -3.3523  -24.1290  -54.6498 C.3       19 UNK         0.1400 
    106 CB        -2.3044  -23.8072  -53.5711 C.3       19 UNK        -0.1800 
    107 C         -3.1956  -23.1831  -55.8594 C.2       19 UNK         0.5000 
    108 O         -2.1312  -23.1836  -56.4788 O.2       19 UNK        -0.5000 
    109 N         -4.2243  -22.3714  -56.1587 N.am      20 UNK        -0.5000 
    110 CA        -4.3473  -21.3669  -57.2273 C.3       20 UNK         0.1400 
    111 CB        -4.1677  -21.9963  -58.6216 C.3       20 UNK        -0.1800 
    112 C         -3.4430  -20.1305  -57.0506 C.2       20 UNK         0.5000 
    113 O         -3.8972  -19.0093  -57.2778 O.2       20 UNK        -0.5000 
    114 N         -2.1996  -20.3459  -56.6106 N.am      21 UNK        -0.5000 
    115 CA        -1.1947  -19.3257  -56.3046 C.3       21 UNK         0.1400 
    116 CB         0.1950  -19.9334  -56.5644 C.3       21 UNK        -0.1800 
    117 C         -1.3059  -18.7735  -54.8647 C.2       21 UNK         0.5000 
    118 O         -0.3950  -18.0717  -54.4266 O.2       21 UNK        -0.5000 
    119 N         -2.3979  -19.1155  -54.1664 N.am      22 UNK        -0.5000 
    120 CA        -2.7019  -18.8459  -52.7514 C.3       22 UNK         0.1400 
    121 C         -1.7120  -19.5035  -51.7404 C.2       22 UNK         0.5000 
    122 N         -1.7556  -19.1294  -50.4703 N.am      22 UNK        -0.7600 
    123 O         -0.9382  -20.3962  -52.0794 O.2       22 UNK        -0.5000 
    124 C124       -3.1172  -17.3687  -52.4591 C.3       23 UNK        -0.0398 
    125 S125       -1.7635  -16.1593  -52.2373 S.3       23 UNK        -0.2404 
    126 C126       -2.3990  -15.0950  -50.8991 C.3       23 UNK        -0.0205 
    127 H127       -2.5653   -9.8996  -48.7625 H         1 UNK         0.0600 
    128 H128       -4.1201  -10.5181  -48.1956 H         1 UNK         0.0600 
    129 H129       -3.4265  -11.1229  -49.7029 H         1 UNK         0.0600 
    130 H130       -3.8990  -11.9790  -46.5171 H         1 UNK         0.3000 
    131 H131       -2.1723  -14.2299  -46.7456 H         1 UNK         0.0600 
    132 H132       -3.8572  -13.4656  -44.3177 H         1 UNK         0.0800 
    133 H133       -3.2110  -15.0466  -44.6663 H         1 UNK         0.0800 
    134 H134       -5.7004  -16.5937  -47.1782 H         1 UNK         0.0800 
    135 H135       -4.7507  -16.9094  -45.7467 H         1 UNK         0.0800 
    136 H136       -4.4906  -15.3349  -49.1574 H         1 UNK         0.1150 
    137 H137       -0.3389  -16.3207  -49.5887 H         1 UNK         0.1150 
    138 H138       -2.4241  -17.3415  -45.9880 H         1 UNK         0.1150 
    139 H139        0.8858  -16.9487  -47.4880 H         1 UNK         0.0800 
    140 H140        0.0105  -17.4937  -46.0848 H         1 UNK         0.0800 
    141 H141       -2.0857  -19.8717  -47.6559 H         1 UNK         0.0800 
    142 H142       -1.4691  -19.6021  -46.0413 H         1 UNK         0.0800 
    143 H143       -0.6684  -21.9786  -47.7748 H         1 UNK         0.0600 
    144 H144        0.3776  -21.0907  -45.2880 H         1 UNK         0.3000 
    145 H145        1.6089  -24.2692  -44.1867 H         1 UNK         0.0600 
    146 H146        3.6604  -22.8595  -44.0546 H         1 UNK         0.0600 
    147 H147        2.9528  -21.6957  -45.1746 H         1 UNK         0.0600 
    148 H148        3.3227  -23.3268  -45.7145 H         1 UNK         0.0600 
    149 H149        1.5394  -21.5677  -43.1281 H         1 UNK         0.3000 
    150 H150       -1.3623  -22.0594  -41.1053 H         1 UNK         0.0600 
    151 H151        0.5094  -23.1148  -39.8308 H         1 UNK         0.0600 
    152 H152        1.6070  -21.8494  -40.3695 H         1 UNK         0.0600 
    153 H153        0.2443  -21.4551  -39.3214 H         1 UNK         0.0600 
    154 H154        0.4745  -19.8773  -41.3679 H         1 UNK         0.3000 
    155 H155       -1.1885  -18.2339  -44.0540 H         1 UNK         0.0600 
    156 H156       -1.1492  -17.5214  -41.0787 H         1 UNK         0.0600 
    157 H157       -2.5991  -17.6802  -42.0648 H         1 UNK         0.0600 
    158 H158       -1.4371  -16.4114  -42.4194 H         1 UNK         0.0600 
    159 H159        0.9108  -17.2565  -42.5046 H         1 UNK         0.3000 
    160 H160        3.5000  -18.2975  -42.9941 H         1 UNK         0.0600 
    161 H161        3.2452  -18.0355  -46.0298 H         1 UNK         0.0600 
    162 H162        3.9220  -19.4055  -45.1579 H         1 UNK         0.0600 
    163 H163        4.7477  -17.8606  -45.1167 H         1 UNK         0.0600 
    164 H164        3.0368  -15.9613  -44.6641 H         1 UNK         0.3000 
    165 H165        1.8137  -14.0220  -43.5607 H         1 UNK         0.0600 
    166 H166        2.2052  -12.4009  -41.7067 H         1 UNK         0.0600 
    167 H167        3.0014  -13.6571  -40.7601 H         1 UNK         0.0600 
    168 H168        1.2934  -13.7971  -41.1558 H         1 UNK         0.0600 
    169 H169        3.7003  -13.1795  -44.3033 H         1 UNK         0.3000 
    170 H170        5.9923  -12.0646  -43.8097 H         1 UNK         0.0600 
    171 H171        7.7492  -12.9903  -42.3583 H         1 UNK         0.0600 
    172 H172        7.8514  -14.4530  -43.3254 H         1 UNK         0.0600 
    173 H173        8.3404  -12.9034  -44.0095 H         1 UNK         0.0600 
    174 H174        5.7369  -12.7680  -45.8887 H         1 UNK         0.3000 
    175 H175        6.6573  -14.4511  -47.8184 H         1 UNK         0.0600 
    176 H176        4.7332  -16.7820  -47.3488 H         1 UNK         0.0600 
    177 H177        5.4937  -16.3484  -48.8734 H         1 UNK         0.0600 
    178 H178        6.4762  -16.9252  -47.5383 H         1 UNK         0.0600 
    179 H179        4.8418  -13.3519  -48.4212 H         1 UNK         0.3000 
    180 H180        2.9690  -12.2515  -48.2572 H         1 UNK         0.0600 
    181 H181        0.9688  -14.5408  -48.6209 H         1 UNK         0.0600 
    182 H182        2.2996  -14.2062  -49.7229 H         1 UNK         0.0600 
    183 H183        1.0086  -13.0315  -49.5295 H         1 UNK         0.0600 
    184 H184        0.4671  -12.6186  -47.1486 H         1 UNK         0.3000 
    185 H185        0.7343  -11.8594  -43.8379 H         1 UNK         0.0600 
    186 H186        1.4951   -9.5447  -44.3511 H         1 UNK         0.0600 
    187 H187        0.3893   -9.4625  -45.7174 H         1 UNK         0.0600 
    188 H188       -0.2378   -9.5814  -44.0726 H         1 UNK         0.0600 
    189 H189       -1.2649  -11.2547  -45.8693 H         1 UNK         0.3000 
    190 H190       -2.2117  -21.8287  -44.5125 H         1 UNK         0.3000 
    191 H191       -4.7494  -22.7914  -45.3065 H         1 UNK         0.0600 
    192 H192       -5.0011  -23.3533  -42.8744 H         1 UNK         0.0600 
    193 H193       -4.3720  -21.7326  -43.1175 H         1 UNK         0.0600 
    194 H194       -3.2889  -23.0338  -42.6251 H         1 UNK         0.0600 
    195 H195       -1.7872  -24.5824  -44.3373 H         1 UNK         0.3000 
    196 H196       -2.9120  -27.1953  -44.4649 H         1 UNK         0.0600 
    197 H197       -0.0114  -26.2935  -44.8678 H         1 UNK         0.0600 
    198 H198       -0.7653  -26.6850  -43.3244 H         1 UNK         0.0600 
    199 H199       -0.5422  -27.9362  -44.5379 H         1 UNK         0.0600 
    200 H200       -1.5655  -25.0832  -46.9763 H         1 UNK         0.3000 
    201 H201       -1.7939  -27.0429  -49.1274 H         1 UNK         0.0600 
    202 H202       -1.3222  -24.0151  -49.2009 H         1 UNK         0.0600 
    203 H203       -1.0909  -25.1352  -50.5349 H         1 UNK         0.0600 
    204 H204       -0.0566  -25.2382  -49.1188 H         1 UNK         0.0600 
    205 H205       -4.1103  -25.3624  -47.4098 H         1 UNK         0.3000 
    206 H206       -6.2173  -24.8176  -47.5980 H         1 UNK         0.0600 
    207 H207       -6.6104  -27.0809  -48.4009 H         1 UNK         0.0600 
    208 H208       -7.6894  -25.9909  -49.2512 H         1 UNK         0.0600 
    209 H209       -6.2631  -26.6265  -50.0611 H         1 UNK         0.0600 
    210 H210       -4.2620  -23.0696  -48.6458 H         1 UNK         0.3000 
    211 H211       -3.9480  -21.1490  -49.6900 H         1 UNK         0.0600 
    212 H212       -5.7951  -19.5014  -49.2467 H         1 UNK         0.0600 
    213 H213       -5.4567  -20.5279  -47.8668 H         1 UNK         0.0600 
    214 H214       -6.8809  -20.8367  -48.8505 H         1 UNK         0.0600 
    215 H215       -7.1371  -20.5884  -50.8560 H         1 UNK         0.3000 
    216 H216       -6.3625  -19.9899  -53.4764 H         1 UNK         0.0600 
    217 H217       -9.1352  -20.6535  -52.3502 H         1 UNK         0.0600 
    218 H218       -8.8298  -19.8434  -53.8822 H         1 UNK         0.0600 
    219 H219       -8.3774  -19.0603  -52.3773 H         1 UNK         0.0600 
    220 H220       -7.2029  -23.1360  -52.1531 H         1 UNK         0.3000 
    221 H221       -7.8833  -24.4769  -54.5898 H         1 UNK         0.0600 
    222 H222       -8.3753  -25.3553  -52.2834 H         1 UNK         0.0600 
    223 H223       -6.6451  -25.5870  -52.0260 H         1 UNK         0.0600 
    224 H224       -7.4856  -26.5207  -53.2558 H         1 UNK         0.0600 
    225 H225       -4.7955  -23.4110  -53.2815 H         1 UNK         0.3000 
    226 H226       -3.1684  -25.1456  -55.0031 H         1 UNK         0.0600 
    227 H227       -2.3596  -22.7666  -53.2496 H         1 UNK         0.0600 
    228 H228       -2.4349  -24.4372  -52.6909 H         1 UNK         0.0600 
    229 H229       -1.2941  -23.9767  -53.9450 H         1 UNK         0.0600 
    230 H230       -5.0490  -22.4448  -55.5742 H         1 UNK         0.3000 
    231 H231       -5.3755  -21.0067  -57.1669 H         1 UNK         0.0600 
    232 H232       -3.1504  -22.3535  -58.7831 H         1 UNK         0.0600 
    233 H233       -4.3831  -21.2689  -59.4052 H         1 UNK         0.0600 
    234 H234       -4.8460  -22.8376  -58.7639 H         1 UNK         0.0600 
    235 H235       -1.9224  -21.3143  -56.4713 H         1 UNK         0.3000 
    236 H236       -1.3267  -18.4808  -56.9836 H         1 UNK         0.0600 
    237 H237        0.2791  -20.3029  -57.5866 H         1 UNK         0.0600 
    238 H238        0.9836  -19.1932  -56.4243 H         1 UNK         0.0600 
    239 H239        0.3995  -20.7653  -55.8890 H         1 UNK         0.0600 
    240 H240       -3.0516  -19.7247  -54.6334 H         1 UNK         0.3000 
    241 H241       -3.6135  -19.4208  -52.6042 H         1 UNK         0.0600 
    242 H242       -2.3149  -18.3481  -50.1684 H         1 UNK         0.3800 
    243 H243       -1.0916  -19.5374  -49.8310 H         1 UNK         0.3800 
    244 H244       -3.7457  -17.3488  -51.5680 H         1 UNK         0.0800 
    245 H245       -3.7589  -17.0051  -53.2625 H         1 UNK         0.0800 
    246 H246       -1.7646  -14.2103  -50.8272 H         1 UNK         0.0800 
    247 H247       -3.3926  -14.7362  -51.1720 H         1 UNK         0.0800 
@<TRIPOS>BOND
     1    1    2 1    
     2    1  127 1    
     3    1  128 1    
     4    1  129 1    
     5    2    3 2    
     6    2    4 am   BACKBONE|DICT|INTERRES
     7    4    5 1    
     8    4  130 1    
     9    5    6 1    
    10    5   65 1    
    11    5  131 1    
    12    6    7 1    
    13    6  132 1    
    14    6  133 1    
    15    7    8 1    
    16    8    9 1    
    17    8  134 1    
    18    8  135 1    
    19    9   10 ar   
    20    9   14 ar   
    21   10   11 ar   
    22   10  136 1    
    23   11   12 ar   
    24   11  126 1    
    25   12   13 ar   
    26   12  137 1    
    27   13   14 ar   
    28   13   15 1    
    29   14  138 1    
    30   15   16 1    
    31   15  139 1    
    32   15  140 1    
    33   16   17 1    
    34   17   18 1    
    35   17  141 1    
    36   17  142 1    
    37   18   19 1    
    38   18   67 1    
    39   18  143 1    
    40   19   20 am   BACKBONE|DICT|INTERRES
    41   19  144 1    
    42   20   21 2    
    43   20   22 1    
    44   22   23 1    
    45   22   24 1    
    46   22  145 1    
    47   23  146 1    
    48   23  147 1    
    49   23  148 1    
    50   24   25 am   BACKBONE|DICT|INTERRES
    51   24  149 1    
    52   25   26 2    
    53   25   27 1    
    54   27   28 1    
    55   27   29 1    
    56   27  150 1    
    57   28  151 1    
    58   28  152 1    
    59   28  153 1    
    60   29   30 am   BACKBONE|DICT|INTERRES
    61   29  154 1    
    62   30   31 2    
    63   30   32 1    
    64   32   33 1    
    65   32   34 1    
    66   32  155 1    
    67   33  156 1    
    68   33  157 1    
    69   33  158 1    
    70   34   35 am   BACKBONE|DICT|INTERRES
    71   34  159 1    
    72   35   36 2    
    73   35   37 1    
    74   37   38 1    
    75   37   39 1    
    76   37  160 1    
    77   38  161 1    
    78   38  162 1    
    79   38  163 1    
    80   39   40 am   BACKBONE|DICT|INTERRES
    81   39  164 1    
    82   40   41 2    
    83   40   42 1    
    84   42   43 1    
    85   42   44 1    
    86   42  165 1    
    87   43  166 1    
    88   43  167 1    
    89   43  168 1    
    90   44   45 am   BACKBONE|DICT|INTERRES
    91   44  169 1    
    92   45   46 2    
    93   45   47 1    
    94   47   48 1    
    95   47   49 1    
    96   47  170 1    
    97   48  171 1    
    98   48  172 1    
    99   48  173 1    
   100   49   50 am   BACKBONE|DICT|INTERRES
   101   49  174 1    
   102   50   51 2    
   103   50   52 1    
   104   52   53 1    
   105   52   54 1    
   106   52  175 1    
   107   53  176 1    
   108   53  177 1    
   109   53  178 1    
   110   54   55 am   BACKBONE|DICT|INTERRES
   111   54  179 1    
   112   55   56 2    
   113   55   57 1    
   114   57   58 1    
   115   57   59 1    
   116   57  180 1    
   117   58  181 1    
   118   58  182 1    
   119   58  183 1    
   120   59   60 am   BACKBONE|DICT|INTERRES
   121   59  184 1    
   122   60   61 2    
   123   60   62 1    
   124   62   63 1    
   125   62   64 1    
   126   62  185 1    
   127   63  186 1    
   128   63  187 1    
   129   63  188 1    
   130   64   65 am   BACKBONE|DICT|INTERRES
   131   64  189 1    
   132   65   66 2    
   133   67   68 2    
   134   67   69 am   BACKBONE|DICT|INTERRES
   135   69   70 1    
   136   69  190 1    
   137   70   71 1    
   138   70   72 1    
   139   70  191 1    
   140   71  192 1    
   141   71  193 1    
   142   71  194 1    
   143   72   73 2    
   144   72   74 am   BACKBONE|DICT|INTERRES
   145   74   75 1    
   146   74  195 1    
   147   75   76 1    
   148   75   77 1    
   149   75  196 1    
   150   76  197 1    
   151   76  198 1    
   152   76  199 1    
   153   77   78 2    
   154   77   79 am   BACKBONE|DICT|INTERRES
   155   79   80 1    
   156   79  200 1    
   157   80   81 1    
   158   80   82 1    
   159   80  201 1    
   160   81  202 1    
   161   81  203 1    
   162   81  204 1    
   163   82   83 2    
   164   82   84 am   BACKBONE|DICT|INTERRES
   165   84   85 1    
   166   84  205 1    
   167   85   86 1    
   168   85   87 1    
   169   85  206 1    
   170   86  207 1    
   171   86  208 1    
   172   86  209 1    
   173   87   88 2    
   174   87   89 am   BACKBONE|DICT|INTERRES
   175   89   90 1    
   176   89  210 1    
   177   90   91 1    
   178   90   92 1    
   179   90  211 1    
   180   91  212 1    
   181   91  213 1    
   182   91  214 1    
   183   92   93 2    
   184   92   94 am   BACKBONE|DICT|INTERRES
   185   94   95 1    
   186   94  215 1    
   187   95   96 1    
   188   95   97 1    
   189   95  216 1    
   190   96  217 1    
   191   96  218 1    
   192   96  219 1    
   193   97   98 2    
   194   97   99 am   BACKBONE|DICT|INTERRES
   195   99  100 1    
   196   99  220 1    
   197  100  101 1    
   198  100  102 1    
   199  100  221 1    
   200  101  222 1    
   201  101  223 1    
   202  101  224 1    
   203  102  103 2    
   204  102  104 am   BACKBONE|DICT|INTERRES
   205  104  105 1    
   206  104  225 1    
   207  105  106 1    
   208  105  107 1    
   209  105  226 1    
   210  106  227 1    
   211  106  228 1    
   212  106  229 1    
   213  107  108 2    
   214  107  109 am   BACKBONE|DICT|INTERRES
   215  109  110 1    
   216  109  230 1    
   217  110  111 1    
   218  110  112 1    
   219  110  231 1    
   220  111  232 1    
   221  111  233 1    
   222  111  234 1    
   223  112  113 2    
   224  112  114 am   BACKBONE|DICT|INTERRES
   225  114  115 1    
   226  114  235 1    
   227  115  116 1    
   228  115  117 1    
   229  115  236 1    
   230  116  237 1    
   231  116  238 1    
   232  116  239 1    
   233  117  118 2    
   234  117  119 am   BACKBONE|DICT|INTERRES
   235  119  120 1    
   236  119  240 1    
   237  120  121 1    
   238  120  124 1    
   239  120  241 1    
   240  121  122 am   BACKBONE|DICT|INTERRES
   241  121  123 2    
   242  122  242 1    
   243  122  243 1    
   244  124  125 1    
   245  124  244 1    
   246  124  245 1    
   247  125  126 1    
   248  126  246 1    
   249  126  247 1    
@<TRIPOS>SUBSTRUCTURE
     1 UNK         1 GROUP             0       ****    0 ROOT    
