@<TRIPOS>MOLECULE
3R540
247   249    1
SMALL
USER_CHARGES


@<TRIPOS>ATOM
      1 CA         -1.2682  -18.8334  -48.4612 C.3       0 UNK        -0.1800 
      2 C          -1.7366  -17.5101  -49.0489 C.2       0 UNK         0.5000 
      3 O          -2.6827  -17.4753  -49.8338 O.2       0 UNK        -0.5000 
      4 N          -1.0649  -16.4169  -48.6731 N.am      1 UNK        -0.5000 
      5 CA         -1.3567  -15.0578  -49.1387 C.3       1 UNK         0.1400 
      6 C6         -0.1441  -14.1201  -48.9168 C.3       23 UNK        -0.0398 
      7 S7          1.1874  -14.3786  -50.1385 S.3       23 UNK        -0.2404 
      8 C8          2.2987  -15.5778  -49.3170 C.3       23 UNK        -0.0205 
      9 C9          2.1077  -17.0459  -49.7116 C.ar      23 UNK        -0.0193 
     10 C10         1.3991  -17.4393  -50.8548 C.ar      23 UNK        -0.1150 
     11 C11         1.2876  -18.7886  -51.1987 C.ar      23 UNK        -0.0193 
     12 C12         1.8872  -19.7558  -50.3911 C.ar      23 UNK        -0.1150 
     13 C13         2.6173  -19.3896  -49.2575 C.ar      23 UNK        -0.0193 
     14 C14         2.7202  -18.0300  -48.9284 C.ar      23 UNK        -0.1150 
     15 C15         3.3194  -20.4982  -48.4707 C.3       23 UNK        -0.0205 
     16 S16         3.9613  -20.0443  -46.8221 S.3       23 UNK        -0.2404 
     17 C17         2.4472  -19.6928  -45.8646 C.3       23 UNK        -0.0398 
     18 CA          1.3526  -20.7860  -45.9079 C.3       11 UNK         0.1400 
     19 N           1.8919  -22.1204  -45.6331 N.am      11 UNK        -0.5000 
     20 C           1.4019  -23.2629  -46.1309 C.2       10 UNK         0.5000 
     21 O           0.4158  -23.3191  -46.8652 O.2       10 UNK        -0.5000 
     22 CA          2.1451  -24.5623  -45.7608 C.3       10 UNK         0.1400 
     23 CB          3.1192  -24.9519  -46.8834 C.3       10 UNK        -0.1800 
     24 N           2.8903  -24.4629  -44.5041 N.am      10 UNK        -0.5000 
     25 C           2.3303  -24.4353  -43.2870 C.2       9 UNK         0.5000 
     26 O           1.1208  -24.5464  -43.0897 O.2       9 UNK        -0.5000 
     27 CA          3.2782  -24.1966  -42.0938 C.3       9 UNK         0.1400 
     28 CB          3.7816  -25.5338  -41.5301 C.3       9 UNK        -0.1800 
     29 N           4.4293  -23.3398  -42.4079 N.am      9 UNK        -0.5000 
     30 C           4.3379  -22.0739  -42.8336 C.2       8 UNK         0.5000 
     31 O           3.2606  -21.5054  -43.0467 O.2       8 UNK        -0.5000 
     32 CA          5.6558  -21.3277  -43.0966 C.3       8 UNK         0.1400 
     33 CB          6.3695  -21.8627  -44.3499 C.3       8 UNK        -0.1800 
     34 N           5.3049  -19.9288  -43.2771 N.am      8 UNK        -0.5000 
     35 C           6.0578  -18.8492  -43.0521 C.2       7 UNK         0.5000 
     36 O           7.2622  -18.8856  -42.7985 O.2       7 UNK        -0.5000 
     37 CA          5.3073  -17.4992  -43.0732 C.3       7 UNK         0.1400 
     38 CB          5.3744  -16.8637  -44.4703 C.3       7 UNK        -0.1800 
     39 N           3.8996  -17.6466  -42.6856 N.am      7 UNK        -0.5000 
     40 C           3.4673  -17.9954  -41.4678 C.2       6 UNK         0.5000 
     41 O           4.2017  -18.0332  -40.4789 O.2       6 UNK        -0.5000 
     42 CA          1.9862  -18.4210  -41.3542 C.3       6 UNK         0.1400 
     43 CB          1.5976  -18.8260  -39.9206 C.3       6 UNK        -0.1800 
     44 N           1.0179  -17.4305  -41.8234 N.am      6 UNK        -0.5000 
     45 C           0.7907  -17.0383  -43.0815 C.2       5 UNK         0.5000 
     46 O           1.4962  -17.3737  -44.0323 O.2       5 UNK        -0.5000 
     47 CA         -0.4566  -16.1557  -43.3090 C.3       5 UNK         0.1400 
     48 CB         -0.6031  -15.7296  -44.7808 C.3       5 UNK        -0.1800 
     49 N          -1.6950  -16.8204  -42.8835 N.am      5 UNK        -0.5000 
     50 C          -2.0748  -17.0340  -41.6142 C.2       4 UNK         0.5000 
     51 O          -1.4259  -16.6425  -40.6415 O.2       4 UNK        -0.5000 
     52 CA         -3.3762  -17.8372  -41.4010 C.3       4 UNK         0.1400 
     53 CB         -3.8912  -17.7830  -39.9478 C.3       4 UNK        -0.1800 
     54 N          -4.4377  -17.4754  -42.3414 N.am      4 UNK        -0.5000 
     55 C          -4.9998  -16.2703  -42.5015 C.2       3 UNK         0.5000 
     56 O          -4.7045  -15.2663  -41.8500 O.2       3 UNK        -0.5000 
     57 CA         -6.0627  -16.1688  -43.6093 C.3       3 UNK         0.1400 
     58 CB         -7.3741  -15.5723  -43.0735 C.3       3 UNK        -0.1800 
     59 N          -5.5944  -15.3594  -44.7355 N.am      3 UNK        -0.5000 
     60 C          -4.5011  -15.5976  -45.4728 C.2       2 UNK         0.5000 
     61 O          -3.7939  -16.6032  -45.3597 O.2       2 UNK        -0.5000 
     62 CA         -4.1406  -14.5191  -46.5052 C.3       2 UNK         0.1400 
     63 CB         -3.8015  -13.1774  -45.8223 C.3       2 UNK        -0.1800 
     64 N          -3.0104  -14.9778  -47.3058 N.am      2 UNK        -0.5000 
     65 C          -2.6256  -14.4686  -48.4821 C.2       1 UNK         0.5000 
     66 O          -3.2243  -13.5551  -49.0515 O.2       1 UNK        -0.5000 
     67 C           0.2086  -20.4258  -44.9394 C.2       11 UNK         0.5000 
     68 O          -0.5905  -19.5412  -45.2481 O.2       11 UNK        -0.5000 
     69 N           0.1265  -21.1212  -43.7953 N.am      12 UNK        -0.5000 
     70 CA         -0.8862  -20.9652  -42.7483 C.3       12 UNK         0.1400 
     71 CB         -0.3532  -21.6193  -41.4607 C.3       12 UNK        -0.1800 
     72 C          -2.2703  -21.5207  -43.1631 C.2       12 UNK         0.5000 
     73 O          -2.8693  -22.3096  -42.4301 O.2       12 UNK        -0.5000 
     74 N          -2.7390  -21.1093  -44.3436 N.am      13 UNK        -0.5000 
     75 CA         -3.9783  -21.5273  -44.9846 C.3       13 UNK         0.1400 
     76 CB         -3.6278  -22.1651  -46.3463 C.3       13 UNK        -0.1800 
     77 C          -4.9237  -20.3156  -45.0806 C.2       13 UNK         0.5000 
     78 O          -5.1246  -19.6239  -44.0791 O.2       13 UNK        -0.5000 
     79 N          -5.4903  -20.0800  -46.2670 N.am      14 UNK        -0.5000 
     80 CA         -6.3717  -18.9661  -46.5885 C.3       14 UNK         0.1400 
     81 CB         -7.8341  -19.4362  -46.5202 C.3       14 UNK        -0.1800 
     82 C          -6.0177  -18.4339  -47.9806 C.2       14 UNK         0.5000 
     83 O          -5.3332  -19.1224  -48.7408 O.2       14 UNK        -0.5000 
     84 N          -6.5262  -17.2340  -48.2960 N.am      15 UNK        -0.5000 
     85 CA         -6.2528  -16.4644  -49.5170 C.3       15 UNK         0.1400 
     86 CB         -7.0554  -15.1549  -49.4663 C.3       15 UNK        -0.1800 
     87 C          -6.5343  -17.1984  -50.8436 C.2       15 UNK         0.5000 
     88 O          -5.9589  -16.8307  -51.8660 O.2       15 UNK        -0.5000 
     89 N          -7.3816  -18.2372  -50.8099 N.am      16 UNK        -0.5000 
     90 CA         -7.6471  -19.1454  -51.9279 C.3       16 UNK         0.1400 
     91 CB         -8.7222  -20.1582  -51.5083 C.3       16 UNK        -0.1800 
     92 C          -6.3901  -19.8794  -52.4374 C.2       16 UNK         0.5000 
     93 O          -6.3146  -20.1898  -53.6273 O.2       16 UNK        -0.5000 
     94 N          -5.4010  -20.0968  -51.5560 N.am      17 UNK        -0.5000 
     95 CA         -4.1015  -20.6860  -51.8845 C.3       17 UNK         0.1400 
     96 CB         -3.3280  -20.9837  -50.5952 C.3       17 UNK        -0.1800 
     97 C          -3.2622  -19.8431  -52.8645 C.2       17 UNK         0.5000 
     98 O          -2.4080  -20.4085  -53.5479 O.2       17 UNK        -0.5000 
     99 N          -3.5618  -18.5412  -52.9955 N.am      18 UNK        -0.5000 
    100 CA        -2.9994  -17.6590  -54.0222 C.3       18 UNK         0.1400 
    101 CB        -3.4812  -16.2201  -53.7922 C.3       18 UNK        -0.1800 
    102 C         -3.3167  -18.1154  -55.4620 C.2       18 UNK         0.5000 
    103 O         -2.5389  -17.8173  -56.3682 O.2       18 UNK        -0.5000 
    104 N         -4.4265  -18.8463  -55.6366 N.am      19 UNK        -0.5000 
    105 CA        -4.8098  -19.4978  -56.8850 C.3       19 UNK         0.1400 
    106 CB        -6.2793  -19.1694  -57.1930 C.3       19 UNK        -0.1800 
    107 C         -4.6047  -21.0195  -56.7987 C.2       19 UNK         0.5000 
    108 O         -4.0720  -21.6101  -57.7380 O.2       19 UNK        -0.5000 
    109 N         -5.0372  -21.6368  -55.6897 N.am      20 UNK        -0.5000 
    110 CA        -5.0943  -23.0920  -55.5351 C.3       20 UNK         0.1400 
    111 CB        -6.0513  -23.4455  -54.3857 C.3       20 UNK        -0.1800 
    112 C         -3.7276  -23.7748  -55.3370 C.2       20 UNK         0.5000 
    113 O         -3.5895  -24.9360  -55.7249 O.2       20 UNK        -0.5000 
    114 N         -2.7549  -23.0697  -54.7434 N.am      21 UNK        -0.5000 
    115 CA        -1.4048  -23.5805  -54.4915 C.3       21 UNK         0.1400 
    116 CB        -1.0771  -23.4786  -52.9918 C.3       21 UNK        -0.1800 
    117 C         -0.3735  -22.8202  -55.3369 C.2       21 UNK         0.5000 
    118 O          0.4315  -23.4515  -56.0227 O.2       21 UNK        -0.5000 
    119 N         -0.4287  -21.4838  -55.2911 N.am      22 UNK        -0.5000 
    120 CA         0.4519  -20.5837  -56.0544 C.3       22 UNK         0.1400 
    121 C          0.0214  -20.3562  -57.5348 C.2       22 UNK         0.5000 
    122 N         -1.0987  -20.8889  -58.0049 N.am      22 UNK        -0.7600 
    123 O          0.7364  -19.6990  -58.2866 O.2       22 UNK        -0.5000 
    124 C124        0.6655  -19.2404  -55.3124 C.3       23 UNK        -0.0398 
    125 S125        1.7249  -19.4142  -53.8367 S.3       23 UNK        -0.2404 
    126 C126        0.5514  -19.1954  -52.4640 C.3       23 UNK        -0.0205 
    127 H127       -0.3908  -18.7023  -47.8279 H         1 UNK         0.0600 
    128 H128       -1.0015  -19.5271  -49.2579 H         1 UNK         0.0600 
    129 H129       -2.0605  -19.2799  -47.8603 H         1 UNK         0.0600 
    130 H130       -0.2762  -16.5121  -48.0513 H         1 UNK         0.3000 
    131 H131       -1.5611  -15.1025  -50.2111 H         1 UNK         0.0600 
    132 H132       -0.4430  -13.0753  -49.0243 H         1 UNK         0.0800 
    133 H133        0.2459  -14.2096  -47.9017 H         1 UNK         0.0800 
    134 H134        3.3238  -15.3018  -49.5672 H         1 UNK         0.0800 
    135 H135        2.2145  -15.4713  -48.2346 H         1 UNK         0.0800 
    136 H136        0.9427  -16.7020  -51.4982 H         1 UNK         0.1150 
    137 H137        1.8132  -20.7981  -50.6690 H         1 UNK         0.1150 
    138 H138        3.3007  -17.7201  -48.0720 H         1 UNK         0.1150 
    139 H139        2.6590  -21.3604  -48.3738 H         1 UNK         0.0800 
    140 H140        4.1660  -20.8400  -49.0673 H         1 UNK         0.0800 
    141 H141        2.0374  -18.7446  -46.2156 H         1 UNK         0.0800 
    142 H142        2.7638  -19.5205  -44.8361 H         1 UNK         0.0800 
    143 H143        0.9175  -20.7812  -46.9092 H         1 UNK         0.0600 
    144 H144        2.6794  -22.1550  -44.9994 H         1 UNK         0.3000 
    145 H145        1.3999  -25.3545  -45.6615 H         1 UNK         0.0600 
    146 H146        3.6094  -25.9018  -46.6692 H         1 UNK         0.0600 
    147 H147        2.5954  -25.0650  -47.8335 H         1 UNK         0.0600 
    148 H148        3.8939  -24.1968  -47.0241 H         1 UNK         0.0600 
    149 H149        3.8931  -24.3723  -44.5739 H         1 UNK         0.3000 
    150 H150        2.6981  -23.6956  -41.3156 H         1 UNK         0.0600 
    151 H151        4.3991  -26.0686  -42.2529 H         1 UNK         0.0600 
    152 H152        2.9474  -26.1851  -41.2653 H         1 UNK         0.0600 
    153 H153        4.3735  -25.3839  -40.6270 H         1 UNK         0.0600 
    154 H154        5.3432  -23.7444  -42.2622 H         1 UNK         0.3000 
    155 H155        6.3002  -21.4312  -42.2214 H         1 UNK         0.0600 
    156 H156        5.7212  -21.8375  -45.2257 H         1 UNK         0.0600 
    157 H157        6.6899  -22.8953  -44.2088 H         1 UNK         0.0600 
    158 H158        7.2601  -21.2770  -44.5780 H         1 UNK         0.0600 
    159 H159        4.3136  -19.7974  -43.4303 H         1 UNK         0.3000 
    160 H160        5.7950  -16.8303  -42.3613 H         1 UNK         0.0600 
    161 H161        4.8815  -17.4848  -45.2193 H         1 UNK         0.0600 
    162 H162        6.4087  -16.7248  -44.7871 H         1 UNK         0.0600 
    163 H163        4.8960  -15.8842  -44.4810 H         1 UNK         0.0600 
    164 H164        3.2009  -17.5702  -43.4219 H         1 UNK         0.3000 
    165 H165        1.8751  -19.3045  -41.9855 H         1 UNK         0.0600 
    166 H166        0.5634  -19.1668  -39.8703 H         1 UNK         0.0600 
    167 H167        2.2247  -19.6421  -39.5591 H         1 UNK         0.0600 
    168 H168        1.7055  -17.9921  -39.2258 H         1 UNK         0.0600 
    169 H169        0.3617  -17.0914  -41.1254 H         1 UNK         0.3000 
    170 H170       -0.3246  -15.2512  -42.7120 H         1 UNK         0.0600 
    171 H171        0.2981  -15.2317  -45.1409 H         1 UNK         0.0600 
    172 H172       -0.7903  -16.5869  -45.4291 H         1 UNK         0.0600 
    173 H173       -1.4261  -15.0282  -44.9004 H         1 UNK         0.0600 
    174 H174       -2.2973  -17.1493  -43.6283 H         1 UNK         0.3000 
    175 H175       -3.1276  -18.8765  -41.6172 H         1 UNK         0.0600 
    176 H176       -4.7961  -18.3786  -39.8282 H         1 UNK         0.0600 
    177 H177       -3.1490  -18.1809  -39.2547 H         1 UNK         0.0600 
    178 H178       -4.1167  -16.7631  -39.6348 H         1 UNK         0.0600 
    179 H179       -4.7284  -18.2243  -42.9700 H         1 UNK         0.3000 
    180 H180       -6.2862  -17.1729  -43.9645 H         1 UNK         0.0600 
    181 H181       -7.2425  -14.5440  -42.7343 H         1 UNK         0.0600 
    182 H182       -7.7479  -16.1513  -42.2279 H         1 UNK         0.0600 
    183 H183       -8.1512  -15.5770  -43.8380 H         1 UNK         0.0600 
    184 H184       -6.0942  -14.4952  -44.8845 H         1 UNK         0.3000 
    185 H185       -5.0017  -14.3847  -47.1602 H         1 UNK         0.0600 
    186 H186       -4.6465  -12.7987  -45.2468 H         1 UNK         0.0600 
    187 H187       -2.9587  -13.2733  -45.1379 H         1 UNK         0.0600 
    188 H188       -3.5495  -12.4087  -46.5527 H         1 UNK         0.0600 
    189 H189       -2.5311  -15.7839  -46.9243 H         1 UNK         0.3000 
    190 H190        0.8183  -21.8404  -43.6361 H         1 UNK         0.3000 
    191 H191       -1.0070  -19.8978  -42.5560 H         1 UNK         0.0600 
    192 H192        0.6446  -21.2607  -41.2113 H         1 UNK         0.0600 
    193 H193       -1.0020  -21.3988  -40.6122 H         1 UNK         0.0600 
    194 H194       -0.2945  -22.7041  -41.5574 H         1 UNK         0.0600 
    195 H195       -2.1780  -20.4293  -44.8512 H         1 UNK         0.3000 
    196 H196       -4.4892  -22.2778  -44.3786 H         1 UNK         0.0600 
    197 H197       -4.5137  -22.5664  -46.8401 H         1 UNK         0.0600 
    198 H198       -2.9341  -22.9965  -46.2175 H         1 UNK         0.0600 
    199 H199       -3.1566  -21.4505  -47.0229 H         1 UNK         0.0600 
    200 H200       -5.2092  -20.6295  -47.0685 H         1 UNK         0.3000 
    201 H201       -6.2145  -18.1510  -45.8866 H         1 UNK         0.0600 
    202 H202       -8.5244  -18.6210  -46.7398 H         1 UNK         0.0600 
    203 H203       -8.0316  -20.2376  -47.2333 H         1 UNK         0.0600 
    204 H204       -8.0798  -19.8070  -45.5249 H         1 UNK         0.0600 
    205 H205       -7.1206  -16.7762  -47.6207 H         1 UNK         0.3000 
    206 H206       -5.1894  -16.2167  -49.5091 H         1 UNK         0.0600 
    207 H207       -6.8241  -14.5736  -48.5750 H         1 UNK         0.0600 
    208 H208       -6.8285  -14.5250  -50.3278 H         1 UNK         0.0600 
    209 H209       -8.1297  -15.3434  -49.4723 H         1 UNK         0.0600 
    210 H210       -7.8070  -18.4713  -49.9257 H         1 UNK         0.3000 
    211 H211       -8.0368  -18.5502  -52.7561 H         1 UNK         0.0600 
    212 H212       -8.3958  -20.7632  -50.6612 H         1 UNK         0.0600 
    213 H213       -8.9577  -20.8395  -52.3272 H         1 UNK         0.0600 
    214 H214       -9.6488  -19.6573  -51.2273 H         1 UNK         0.0600 
    215 H215       -5.5112  -19.7679  -50.6003 H         1 UNK         0.3000 
    216 H216       -4.2852  -21.6401  -52.3782 H         1 UNK         0.0600 
    217 H217       -2.3337  -21.3785  -50.8063 H         1 UNK         0.0600 
    218 H218       -3.8498  -21.7199  -49.9838 H         1 UNK         0.0600 
    219 H219       -3.2072  -20.0842  -49.9967 H         1 UNK         0.0600 
    220 H220       -4.2783  -18.1398  -52.4017 H         1 UNK         0.3000 
    221 H221       -1.9175  -17.6631  -53.9046 H         1 UNK         0.0600 
    222 H222       -4.5517  -16.1212  -53.9738 H         1 UNK         0.0600 
    223 H223       -3.2790  -15.8923  -52.7719 H         1 UNK         0.0600 
    224 H224       -2.9722  -15.5283  -54.4644 H         1 UNK         0.0600 
    225 H225       -5.0000  -19.0541  -54.8281 H         1 UNK         0.3000 
    226 H226       -4.2024  -19.1284  -57.7140 H         1 UNK         0.0600 
    227 H227       -6.6018  -19.6504  -58.1173 H         1 UNK         0.0600 
    228 H228       -6.9458  -19.5045  -56.3971 H         1 UNK         0.0600 
    229 H229       -6.4227  -18.0960  -57.3179 H         1 UNK         0.0600 
    230 H230       -5.4943  -21.0905  -54.9629 H         1 UNK         0.3000 
    231 H231       -5.5237  -23.5029  -56.4516 H         1 UNK         0.0600 
    232 H232       -5.6917  -23.0767  -53.4265 H         1 UNK         0.0600 
    233 H233       -6.1697  -24.5261  -54.2955 H         1 UNK         0.0600 
    234 H234       -7.0426  -23.0243  -54.5544 H         1 UNK         0.0600 
    235 H235       -2.9278  -22.1076  -54.4770 H         1 UNK         0.3000 
    236 H236       -1.3334  -24.6347  -54.7668 H         1 UNK         0.0600 
    237 H237       -1.8091  -24.0193  -52.3918 H         1 UNK         0.0600 
    238 H238       -0.0988  -23.9114  -52.7798 H         1 UNK         0.0600 
    239 H239       -1.0560  -22.4472  -52.6425 H         1 UNK         0.0600 
    240 H240       -1.1133  -21.0381  -54.6857 H         1 UNK         0.3000 
    241 H241        1.4300  -21.0630  -56.1292 H         1 UNK         0.0600 
    242 H242       -1.7110  -21.4326  -57.4174 H         1 UNK         0.3800 
    243 H243       -1.3504  -20.7331  -58.9678 H         1 UNK         0.3800 
    244 H244       -0.2918  -18.7961  -55.0476 H         1 UNK         0.0800 
    245 H245        1.1614  -18.5127  -55.9571 H         1 UNK         0.0800 
    246 H246       -0.1851  -18.4337  -52.7140 H         1 UNK         0.0800 
    247 H247        0.0010  -20.1228  -52.3012 H         1 UNK         0.0800 
@<TRIPOS>BOND
     1    1    2 1    
     2    1  127 1    
     3    1  128 1    
     4    1  129 1    
     5    2    3 2    
     6    2    4 am   BACKBONE|DICT|INTERRES
     7    4    5 1    
     8    4  130 1    
     9    5    6 1    
    10    5   65 1    
    11    5  131 1    
    12    6    7 1    
    13    6  132 1    
    14    6  133 1    
    15    7    8 1    
    16    8    9 1    
    17    8  134 1    
    18    8  135 1    
    19    9   10 ar   
    20    9   14 ar   
    21   10   11 ar   
    22   10  136 1    
    23   11   12 ar   
    24   11  126 1    
    25   12   13 ar   
    26   12  137 1    
    27   13   14 ar   
    28   13   15 1    
    29   14  138 1    
    30   15   16 1    
    31   15  139 1    
    32   15  140 1    
    33   16   17 1    
    34   17   18 1    
    35   17  141 1    
    36   17  142 1    
    37   18   19 1    
    38   18   67 1    
    39   18  143 1    
    40   19   20 am   BACKBONE|DICT|INTERRES
    41   19  144 1    
    42   20   21 2    
    43   20   22 1    
    44   22   23 1    
    45   22   24 1    
    46   22  145 1    
    47   23  146 1    
    48   23  147 1    
    49   23  148 1    
    50   24   25 am   BACKBONE|DICT|INTERRES
    51   24  149 1    
    52   25   26 2    
    53   25   27 1    
    54   27   28 1    
    55   27   29 1    
    56   27  150 1    
    57   28  151 1    
    58   28  152 1    
    59   28  153 1    
    60   29   30 am   BACKBONE|DICT|INTERRES
    61   29  154 1    
    62   30   31 2    
    63   30   32 1    
    64   32   33 1    
    65   32   34 1    
    66   32  155 1    
    67   33  156 1    
    68   33  157 1    
    69   33  158 1    
    70   34   35 am   BACKBONE|DICT|INTERRES
    71   34  159 1    
    72   35   36 2    
    73   35   37 1    
    74   37   38 1    
    75   37   39 1    
    76   37  160 1    
    77   38  161 1    
    78   38  162 1    
    79   38  163 1    
    80   39   40 am   BACKBONE|DICT|INTERRES
    81   39  164 1    
    82   40   41 2    
    83   40   42 1    
    84   42   43 1    
    85   42   44 1    
    86   42  165 1    
    87   43  166 1    
    88   43  167 1    
    89   43  168 1    
    90   44   45 am   BACKBONE|DICT|INTERRES
    91   44  169 1    
    92   45   46 2    
    93   45   47 1    
    94   47   48 1    
    95   47   49 1    
    96   47  170 1    
    97   48  171 1    
    98   48  172 1    
    99   48  173 1    
   100   49   50 am   BACKBONE|DICT|INTERRES
   101   49  174 1    
   102   50   51 2    
   103   50   52 1    
   104   52   53 1    
   105   52   54 1    
   106   52  175 1    
   107   53  176 1    
   108   53  177 1    
   109   53  178 1    
   110   54   55 am   BACKBONE|DICT|INTERRES
   111   54  179 1    
   112   55   56 2    
   113   55   57 1    
   114   57   58 1    
   115   57   59 1    
   116   57  180 1    
   117   58  181 1    
   118   58  182 1    
   119   58  183 1    
   120   59   60 am   BACKBONE|DICT|INTERRES
   121   59  184 1    
   122   60   61 2    
   123   60   62 1    
   124   62   63 1    
   125   62   64 1    
   126   62  185 1    
   127   63  186 1    
   128   63  187 1    
   129   63  188 1    
   130   64   65 am   BACKBONE|DICT|INTERRES
   131   64  189 1    
   132   65   66 2    
   133   67   68 2    
   134   67   69 am   BACKBONE|DICT|INTERRES
   135   69   70 1    
   136   69  190 1    
   137   70   71 1    
   138   70   72 1    
   139   70  191 1    
   140   71  192 1    
   141   71  193 1    
   142   71  194 1    
   143   72   73 2    
   144   72   74 am   BACKBONE|DICT|INTERRES
   145   74   75 1    
   146   74  195 1    
   147   75   76 1    
   148   75   77 1    
   149   75  196 1    
   150   76  197 1    
   151   76  198 1    
   152   76  199 1    
   153   77   78 2    
   154   77   79 am   BACKBONE|DICT|INTERRES
   155   79   80 1    
   156   79  200 1    
   157   80   81 1    
   158   80   82 1    
   159   80  201 1    
   160   81  202 1    
   161   81  203 1    
   162   81  204 1    
   163   82   83 2    
   164   82   84 am   BACKBONE|DICT|INTERRES
   165   84   85 1    
   166   84  205 1    
   167   85   86 1    
   168   85   87 1    
   169   85  206 1    
   170   86  207 1    
   171   86  208 1    
   172   86  209 1    
   173   87   88 2    
   174   87   89 am   BACKBONE|DICT|INTERRES
   175   89   90 1    
   176   89  210 1    
   177   90   91 1    
   178   90   92 1    
   179   90  211 1    
   180   91  212 1    
   181   91  213 1    
   182   91  214 1    
   183   92   93 2    
   184   92   94 am   BACKBONE|DICT|INTERRES
   185   94   95 1    
   186   94  215 1    
   187   95   96 1    
   188   95   97 1    
   189   95  216 1    
   190   96  217 1    
   191   96  218 1    
   192   96  219 1    
   193   97   98 2    
   194   97   99 am   BACKBONE|DICT|INTERRES
   195   99  100 1    
   196   99  220 1    
   197  100  101 1    
   198  100  102 1    
   199  100  221 1    
   200  101  222 1    
   201  101  223 1    
   202  101  224 1    
   203  102  103 2    
   204  102  104 am   BACKBONE|DICT|INTERRES
   205  104  105 1    
   206  104  225 1    
   207  105  106 1    
   208  105  107 1    
   209  105  226 1    
   210  106  227 1    
   211  106  228 1    
   212  106  229 1    
   213  107  108 2    
   214  107  109 am   BACKBONE|DICT|INTERRES
   215  109  110 1    
   216  109  230 1    
   217  110  111 1    
   218  110  112 1    
   219  110  231 1    
   220  111  232 1    
   221  111  233 1    
   222  111  234 1    
   223  112  113 2    
   224  112  114 am   BACKBONE|DICT|INTERRES
   225  114  115 1    
   226  114  235 1    
   227  115  116 1    
   228  115  117 1    
   229  115  236 1    
   230  116  237 1    
   231  116  238 1    
   232  116  239 1    
   233  117  118 2    
   234  117  119 am   BACKBONE|DICT|INTERRES
   235  119  120 1    
   236  119  240 1    
   237  120  121 1    
   238  120  124 1    
   239  120  241 1    
   240  121  122 am   BACKBONE|DICT|INTERRES
   241  121  123 2    
   242  122  242 1    
   243  122  243 1    
   244  124  125 1    
   245  124  244 1    
   246  124  245 1    
   247  125  126 1    
   248  126  246 1    
   249  126  247 1    
@<TRIPOS>SUBSTRUCTURE
     1 UNK         1 GROUP             0       ****    0 ROOT    
