@<TRIPOS>MOLECULE
3R540
247   249    1
SMALL
USER_CHARGES


@<TRIPOS>ATOM
      1 CA         -2.2863  -13.9033  -44.8319 C.3       0 UNK        -0.1800 
      2 C          -1.6077  -12.7816  -45.6059 C.2       0 UNK         0.5000 
      3 O          -1.5647  -11.6478  -45.1286 O.2       0 UNK        -0.5000 
      4 N          -1.0499  -13.1014  -46.7821 N.am      1 UNK        -0.5000 
      5 CA         -0.3897  -12.1752  -47.7184 C.3       1 UNK         0.1400 
      6 C6          0.0181  -12.8949  -49.0287 C.3       23 UNK        -0.0398 
      7 S7         -1.4202  -13.5417  -49.9477 S.3       23 UNK        -0.2404 
      8 C8         -0.6073  -14.5478  -51.2305 C.3       23 UNK        -0.0205 
      9 C9         -0.6668  -16.0326  -50.9036 C.ar      23 UNK        -0.0193 
     10 C10        -1.6971  -16.8238  -51.4248 C.ar      23 UNK        -0.1150 
     11 C11        -1.7578  -18.1900  -51.1347 C.ar      23 UNK        -0.0193 
     12 C12        -0.7884  -18.7596  -50.3088 C.ar      23 UNK        -0.1150 
     13 C13         0.2385  -17.9806  -49.7736 C.ar      23 UNK        -0.0193 
     14 C14         0.3044  -16.6187  -50.0851 C.ar      23 UNK        -0.1150 
     15 C15         1.2523  -18.6181  -48.8366 C.3       23 UNK        -0.0205 
     16 S16         1.1442  -17.9839  -47.1316 S.3       23 UNK        -0.2404 
     17 C17        -0.6506  -17.9728  -46.7714 C.3       23 UNK        -0.0398 
     18 CA         -1.2631  -19.3602  -46.4642 C.3       11 UNK         0.1400 
     19 N          -0.5611  -20.0479  -45.3679 N.am      11 UNK        -0.5000 
     20 C          -0.6182  -21.3559  -45.0765 C.2       10 UNK         0.5000 
     21 O          -1.2739  -22.1661  -45.7408 O.2       10 UNK        -0.5000 
     22 CA          0.1014  -21.8098  -43.7910 C.3       10 UNK         0.1400 
     23 CB          0.2212  -23.3433  -43.6700 C.3       10 UNK        -0.1800 
     24 N           1.3943  -21.1542  -43.5885 N.am      10 UNK        -0.5000 
     25 C           2.5068  -21.2856  -44.3256 C.2       9 UNK         0.5000 
     26 O           2.5895  -22.0124  -45.3165 O.2       9 UNK        -0.5000 
     27 CA          3.7480  -20.4773  -43.8865 C.3       9 UNK         0.1400 
     28 CB          4.1443  -19.4646  -44.9716 C.3       9 UNK        -0.1800 
     29 N           3.5780  -19.7696  -42.6128 N.am      9 UNK        -0.5000 
     30 C           3.6177  -20.3406  -41.4005 C.2       8 UNK         0.5000 
     31 O           3.8560  -21.5346  -41.2175 O.2       8 UNK        -0.5000 
     32 CA          3.3028  -19.4361  -40.1913 C.3       8 UNK         0.1400 
     33 CB          4.5724  -18.7281  -39.6952 C.3       8 UNK        -0.1800 
     34 N           2.2659  -18.4385  -40.4693 N.am      8 UNK        -0.5000 
     35 C           0.9844  -18.7237  -40.7461 C.2       7 UNK         0.5000 
     36 O           0.5250  -19.8658  -40.7589 O.2       7 UNK        -0.5000 
     37 CA          0.0822  -17.5408  -41.1495 C.3       7 UNK         0.1400 
     38 CB         -0.3913  -16.7538  -39.9190 C.3       7 UNK        -0.1800 
     39 N           0.7501  -16.6410  -42.0912 N.am      7 UNK        -0.5000 
     40 C           1.1529  -17.0077  -43.3151 C.2       6 UNK         0.5000 
     41 O           0.9093  -18.1109  -43.8024 O.2       6 UNK        -0.5000 
     42 CA          2.0150  -16.0053  -44.1009 C.3       6 UNK         0.1400 
     43 CB          1.1601  -15.0346  -44.9198 C.3       6 UNK        -0.1800 
     44 N           2.9140  -15.2464  -43.2352 N.am      6 UNK        -0.5000 
     45 C           4.0193  -15.7500  -42.6723 C.2       5 UNK         0.5000 
     46 O           4.4227  -16.8956  -42.8654 O.2       5 UNK        -0.5000 
     47 CA          4.7683  -14.8324  -41.6905 C.3       5 UNK         0.1400 
     48 CB          5.7697  -13.9370  -42.4342 C.3       5 UNK        -0.1800 
     49 N           3.8506  -14.0045  -40.9048 N.am      5 UNK        -0.5000 
     50 C           3.0409  -14.4947  -39.9547 C.2       4 UNK         0.5000 
     51 O           3.0172  -15.6825  -39.6313 O.2       4 UNK        -0.5000 
     52 CA          2.0654  -13.5113  -39.2801 C.3       4 UNK         0.1400 
     53 CB          2.7156  -12.8749  -38.0430 C.3       4 UNK        -0.1800 
     54 N           1.5776  -12.4520  -40.1663 N.am      4 UNK        -0.5000 
     55 C           0.8706  -12.6441  -41.2884 C.2       3 UNK         0.5000 
     56 O           0.5738  -13.7597  -41.7183 O.2       3 UNK        -0.5000 
     57 CA          0.4367  -11.3939  -42.0843 C.3       3 UNK         0.1400 
     58 CB          0.7620  -10.0537  -41.3870 C.3       3 UNK        -0.1800 
     59 N           0.9720  -11.3948  -43.4496 N.am      3 UNK        -0.5000 
     60 C           2.2621  -11.4837  -43.8125 C.2       2 UNK         0.5000 
     61 O           3.1862  -11.6108  -43.0075 O.2       2 UNK        -0.5000 
     62 CA          2.5643  -11.4496  -45.3243 C.3       2 UNK         0.1400 
     63 CB          3.8514  -12.2149  -45.6846 C.3       2 UNK        -0.1800 
     64 N           1.4464  -12.0046  -46.0872 N.am      2 UNK        -0.5000 
     65 C           0.8266  -11.4258  -47.1216 C.2       1 UNK         0.5000 
     66 O           1.1654  -10.3438  -47.6028 O.2       1 UNK        -0.5000 
     67 C          -2.7949  -19.2593  -46.2214 C.2       11 UNK         0.5000 
     68 O          -3.3944  -18.2002  -46.4104 O.2       11 UNK        -0.5000 
     69 N          -3.3966  -20.3705  -45.7946 N.am      12 UNK        -0.5000 
     70 CA         -4.8150  -20.5681  -45.5240 C.3       12 UNK         0.1400 
     71 CB         -5.1257  -20.2771  -44.0470 C.3       12 UNK        -0.1800 
     72 C          -5.1717  -22.0069  -45.9134 C.2       12 UNK         0.5000 
     73 O          -6.1013  -22.2136  -46.6915 O.2       12 UNK        -0.5000 
     74 N          -4.3567  -22.9717  -45.4580 N.am      13 UNK        -0.5000 
     75 CA         -4.3767  -24.3576  -45.9314 C.3       13 UNK         0.1400 
     76 CB         -3.4472  -25.2125  -45.0578 C.3       13 UNK        -0.1800 
     77 C          -3.9712  -24.4512  -47.4136 C.2       13 UNK         0.5000 
     78 O          -4.6191  -25.1619  -48.1816 O.2       13 UNK        -0.5000 
     79 N          -2.9510  -23.6712  -47.8022 N.am      14 UNK        -0.5000 
     80 CA         -2.5195  -23.5092  -49.1908 C.3       14 UNK         0.1400 
     81 CB         -1.2104  -22.7094  -49.2244 C.3       14 UNK        -0.1800 
     82 C          -3.5873  -22.8395  -50.0778 C.2       14 UNK         0.5000 
     83 O          -3.7107  -23.2016  -51.2455 O.2       14 UNK        -0.5000 
     84 N          -4.3622  -21.9054  -49.5071 N.am      15 UNK        -0.5000 
     85 CA         -5.4733  -21.2336  -50.1863 C.3       15 UNK         0.1400 
     86 CB         -5.8583  -19.9602  -49.4173 C.3       15 UNK        -0.1800 
     87 C          -6.6878  -22.1582  -50.3744 C.2       15 UNK         0.5000 
     88 O          -7.3301  -22.1031  -51.4226 O.2       15 UNK        -0.5000 
     89 N          -6.9599  -23.0106  -49.3759 N.am      16 UNK        -0.5000 
     90 CA         -7.9835  -24.0544  -49.4321 C.3       16 UNK         0.1400 
     91 CB         -8.1864  -24.6525  -48.0316 C.3       16 UNK        -0.1800 
     92 C          -7.6431  -25.1515  -50.4583 C.2       16 UNK         0.5000 
     93 O          -8.5341  -25.6057  -51.1773 O.2       16 UNK        -0.5000 
     94 N          -6.3598  -25.5356  -50.5269 N.am      17 UNK        -0.5000 
     95 CA         -5.8222  -26.4541  -51.5316 C.3       17 UNK         0.1400 
     96 CB         -4.4088  -26.8923  -51.1189 C.3       17 UNK        -0.1800 
     97 C          -5.8065  -25.8408  -52.9449 C.2       17 UNK         0.5000 
     98 O          -6.0860  -26.5472  -53.9146 O.2       17 UNK        -0.5000 
     99 N          -5.4725  -24.5444  -53.0305 N.am      18 UNK        -0.5000 
    100 CA        -5.3828  -23.6666  -54.2047 C.3       18 UNK         0.1400 
    101 CB        -6.7302  -23.5781  -54.9457 C.3       18 UNK        -0.1800 
    102 C         -4.2355  -24.0135  -55.1720 C.2       18 UNK         0.5000 
    103 O         -3.5371  -23.1068  -55.6332 O.2       18 UNK        -0.5000 
    104 N         -4.0801  -25.3102  -55.4786 N.am      19 UNK        -0.5000 
    105 CA        -3.0252  -25.9557  -56.2738 C.3       19 UNK         0.1400 
    106 CB        -1.6847  -25.8699  -55.5156 C.3       19 UNK        -0.1800 
    107 C         -2.8920  -25.4450  -57.7264 C.2       19 UNK         0.5000 
    108 O         -1.8703  -25.6987  -58.3661 O.2       19 UNK        -0.5000 
    109 N         -3.9026  -24.7005  -58.2031 N.am      20 UNK        -0.5000 
    110 CA        -3.9081  -23.8720  -59.4166 C.3       20 UNK         0.1400 
    111 CB        -3.8321  -24.7473  -60.6850 C.3       20 UNK        -0.1800 
    112 C         -2.8380  -22.7523  -59.3966 C.2       20 UNK         0.5000 
    113 O         -2.4735  -22.2371  -60.4551 O.2       20 UNK        -0.5000 
    114 N         -2.3544  -22.3988  -58.1976 N.am      21 UNK        -0.5000 
    115 CA        -1.2826  -21.4357  -57.9617 C.3       21 UNK         0.1400 
    116 CB        -0.2289  -22.0826  -57.0483 C.3       21 UNK        -0.1800 
    117 C         -1.8194  -20.1475  -57.3225 C.2       21 UNK         0.5000 
    118 O         -1.3531  -19.0635  -57.6764 O.2       21 UNK        -0.5000 
    119 N         -2.7846  -20.2769  -56.4037 N.am      22 UNK        -0.5000 
    120 CA        -3.3678  -19.1523  -55.6540 C.3       22 UNK         0.1400 
    121 C         -4.8736  -19.3344  -55.3075 C.2       22 UNK         0.5000 
    122 N         -5.5805  -20.2776  -55.9178 N.am      22 UNK        -0.7600 
    123 O         -5.4223  -18.5921  -54.4978 O.2       22 UNK        -0.5000 
    124 C124       -2.4831  -18.7288  -54.4499 C.3       23 UNK        -0.0398 
    125 S125       -2.3497  -20.0030  -53.1467 S.3       23 UNK        -0.2404 
    126 C126       -2.8757  -19.0622  -51.6808 C.3       23 UNK        -0.0205 
    127 H127       -1.8057  -14.0339  -43.8619 H         1 UNK         0.0600 
    128 H128       -3.3353  -13.6605  -44.6634 H         1 UNK         0.0600 
    129 H129       -2.2389  -14.8529  -45.3658 H         1 UNK         0.0600 
    130 H130       -1.1450  -14.0469  -47.1242 H         1 UNK         0.3000 
    131 H131       -1.1241  -11.4073  -47.9704 H         1 UNK         0.0600 
    132 H132        0.5488  -12.2116  -49.6948 H         1 UNK         0.0800 
    133 H133        0.7060  -13.7148  -48.8147 H         1 UNK         0.0800 
    134 H134        0.4286  -14.2326  -51.3647 H         1 UNK         0.0800 
    135 H135       -1.1023  -14.3596  -52.1844 H         1 UNK         0.0800 
    136 H136       -2.4529  -16.3744  -52.0532 H         1 UNK         0.1150 
    137 H137       -0.8403  -19.8136  -50.0797 H         1 UNK         0.1150 
    138 H138        1.0989  -16.0142  -49.6712 H         1 UNK         0.1150 
    139 H139        1.1280  -19.7018  -48.8103 H         1 UNK         0.0800 
    140 H140        2.2578  -18.4363  -49.2179 H         1 UNK         0.0800 
    141 H141       -1.1737  -17.4871  -47.5960 H         1 UNK         0.0800 
    142 H142       -0.8109  -17.3266  -45.9098 H         1 UNK         0.0800 
    143 H143       -1.1378  -19.9664  -47.3609 H         1 UNK         0.0600 
    144 H144        0.0035  -19.4448  -44.7726 H         1 UNK         0.3000 
    145 H145       -0.5284  -21.4720  -42.9669 H         1 UNK         0.0600 
    146 H146        0.7475  -23.6272  -42.7587 H         1 UNK         0.0600 
    147 H147       -0.7641  -23.8082  -43.6314 H         1 UNK         0.0600 
    148 H148        0.7534  -23.7789  -44.5161 H         1 UNK         0.0600 
    149 H149        1.4277  -20.5030  -42.8148 H         1 UNK         0.3000 
    150 H150        4.5697  -21.1877  -43.7760 H         1 UNK         0.0600 
    151 H151        4.3457  -19.9626  -45.9207 H         1 UNK         0.0600 
    152 H152        5.0456  -18.9177  -44.6946 H         1 UNK         0.0600 
    153 H153        3.3503  -18.7407  -45.1468 H         1 UNK         0.0600 
    154 H154        3.4455  -18.7666  -42.6715 H         1 UNK         0.3000 
    155 H155        2.9379  -20.0780  -39.3868 H         1 UNK         0.0600 
    156 H156        4.9773  -18.0515  -40.4479 H         1 UNK         0.0600 
    157 H157        5.3519  -19.4503  -39.4490 H         1 UNK         0.0600 
    158 H158        4.3726  -18.1454  -38.7957 H         1 UNK         0.0600 
    159 H159        2.5512  -17.4649  -40.4306 H         1 UNK         0.3000 
    160 H160       -0.7995  -17.9475  -41.6494 H         1 UNK         0.0600 
    161 H161       -1.0234  -15.9132  -40.2062 H         1 UNK         0.0600 
    162 H162        0.4451  -16.3626  -39.3412 H         1 UNK         0.0600 
    163 H163       -0.9762  -17.3904  -39.2542 H         1 UNK         0.0600 
    164 H164        0.9126  -15.6857  -41.7885 H         1 UNK         0.3000 
    165 H165        2.6183  -16.5814  -44.8040 H         1 UNK         0.0600 
    166 H166        1.7638  -14.5846  -45.7052 H         1 UNK         0.0600 
    167 H167        0.3340  -15.5389  -45.4135 H         1 UNK         0.0600 
    168 H168        0.7351  -14.2474  -44.2996 H         1 UNK         0.0600 
    169 H169        2.6193  -14.3189  -42.9648 H         1 UNK         0.3000 
    170 H170        5.3302  -15.4685  -41.0030 H         1 UNK         0.0600 
    171 H171        6.4900  -14.5383  -42.9904 H         1 UNK         0.0600 
    172 H172        5.2737  -13.2794  -43.1476 H         1 UNK         0.0600 
    173 H173        6.3335  -13.3141  -41.7397 H         1 UNK         0.0600 
    174 H174        3.7835  -13.0261  -41.1551 H         1 UNK         0.3000 
    175 H175        1.1984  -14.0857  -38.9491 H         1 UNK         0.0600 
    176 H176        2.0055  -12.2504  -37.5006 H         1 UNK         0.0600 
    177 H177        3.0684  -13.6401  -37.3500 H         1 UNK         0.0600 
    178 H178        3.5721  -12.2554  -38.3120 H         1 UNK         0.0600 
    179 H179        1.8006  -11.5042  -39.8996 H         1 UNK         0.3000 
    180 H180       -0.6479  -11.4615  -42.1805 H         1 UNK         0.0600 
    181 H181        1.8350   -9.8995  -41.2671 H         1 UNK         0.0600 
    182 H182        0.3010   -9.9983  -40.4000 H         1 UNK         0.0600 
    183 H183        0.3743   -9.2143  -41.9645 H         1 UNK         0.0600 
    184 H184        0.2715  -11.3218  -44.1798 H         1 UNK         0.3000 
    185 H185        2.7093  -10.3984  -45.5808 H         1 UNK         0.0600 
    186 H186        3.8008  -13.2598  -45.3776 H         1 UNK         0.0600 
    187 H187        4.0363  -12.1900  -46.7585 H         1 UNK         0.0600 
    188 H188        4.7210  -11.7711  -45.1984 H         1 UNK         0.0600 
    189 H189        1.0815  -12.8863  -45.7578 H         1 UNK         0.3000 
    190 H190       -2.8025  -21.1906  -45.7087 H         1 UNK         0.3000 
    191 H191       -5.4048  -19.8940  -46.1484 H         1 UNK         0.0600 
    192 H192       -4.5409  -20.9076  -43.3763 H         1 UNK         0.0600 
    193 H193       -6.1802  -20.4507  -43.8292 H         1 UNK         0.0600 
    194 H194       -4.9091  -19.2378  -43.7996 H         1 UNK         0.0600 
    195 H195       -3.6229  -22.7357  -44.8070 H         1 UNK         0.3000 
    196 H196       -5.3946  -24.7406  -45.8327 H         1 UNK         0.0600 
    197 H197       -3.4722  -26.2572  -45.3705 H         1 UNK         0.0600 
    198 H198       -3.7482  -25.1797  -44.0106 H         1 UNK         0.0600 
    199 H199       -2.4116  -24.8764  -45.1212 H         1 UNK         0.0600 
    200 H200       -2.4314  -23.1563  -47.0993 H         1 UNK         0.3000 
    201 H201       -2.3231  -24.5019  -49.6006 H         1 UNK         0.0600 
    202 H202       -0.4232  -23.2159  -48.6655 H         1 UNK         0.0600 
    203 H203       -1.3401  -21.7189  -48.7929 H         1 UNK         0.0600 
    204 H204       -0.8548  -22.5804  -50.2477 H         1 UNK         0.0600 
    205 H205       -4.2262  -21.6928  -48.5315 H         1 UNK         0.3000 
    206 H206       -5.1395  -20.9385  -51.1833 H         1 UNK         0.0600 
    207 H207       -4.9985  -19.3068  -49.2676 H         1 UNK         0.0600 
    208 H208       -6.6076  -19.3900  -49.9676 H         1 UNK         0.0600 
    209 H209       -6.2800  -20.1886  -48.4391 H         1 UNK         0.0600 
    210 H210       -6.4348  -22.9353  -48.5110 H         1 UNK         0.3000 
    211 H211       -8.9218  -23.5887  -49.7405 H         1 UNK         0.0600 
    212 H212       -7.2793  -25.1286  -47.6592 H         1 UNK         0.0600 
    213 H213       -8.9733  -25.4076  -48.0406 H         1 UNK         0.0600 
    214 H214       -8.4787  -23.8853  -47.3144 H         1 UNK         0.0600 
    215 H215       -5.7058  -25.1736  -49.8397 H         1 UNK         0.3000 
    216 H216       -6.4593  -27.3405  -51.5585 H         1 UNK         0.0600 
    217 H217       -3.9950  -27.6027  -51.8357 H         1 UNK         0.0600 
    218 H218       -4.4165  -27.3798  -50.1438 H         1 UNK         0.0600 
    219 H219       -3.7242  -26.0456  -51.0632 H         1 UNK         0.0600 
    220 H220       -5.1443  -24.1017  -52.1772 H         1 UNK         0.3000 
    221 H221       -5.1617  -22.6737  -53.8088 H         1 UNK         0.0600 
    222 H222       -7.0386  -24.5391  -55.3572 H         1 UNK         0.0600 
    223 H223       -7.5193  -23.2309  -54.2782 H         1 UNK         0.0600 
    224 H224       -6.6752  -22.8762  -55.7774 H         1 UNK         0.0600 
    225 H225       -4.7568  -25.9448  -55.0598 H         1 UNK         0.3000 
    226 H226       -3.3008  -27.0084  -56.3477 H         1 UNK         0.0600 
    227 H227       -1.3221  -24.8432  -55.4547 H         1 UNK         0.0600 
    228 H228       -0.9123  -26.4615  -56.0082 H         1 UNK         0.0600 
    229 H229       -1.7822  -26.2510  -54.4990 H         1 UNK         0.0600 
    230 H230       -4.6947  -24.5724  -57.5897 H         1 UNK         0.3000 
    231 H231       -4.8723  -23.3620  -59.4281 H         1 UNK         0.0600 
    232 H232       -4.5892  -25.5312  -60.6691 H         1 UNK         0.0600 
    233 H233       -2.8574  -25.2235  -60.7929 H         1 UNK         0.0600 
    234 H234       -4.0035  -24.1514  -61.5821 H         1 UNK         0.0600 
    235 H235       -2.7375  -22.8473  -57.3710 H         1 UNK         0.3000 
    236 H236       -0.7964  -21.1664  -58.9016 H         1 UNK         0.0600 
    237 H237        0.1868  -22.9816  -57.5039 H         1 UNK         0.0600 
    238 H238        0.5994  -21.3983  -56.8607 H         1 UNK         0.0600 
    239 H239       -0.6500  -22.3631  -56.0816 H         1 UNK         0.0600 
    240 H240       -3.0826  -21.2029  -56.1147 H         1 UNK         0.3000 
    241 H241       -3.3875  -18.2962  -56.3309 H         1 UNK         0.0600 
    242 H242       -6.5601  -20.3680  -55.7012 H         1 UNK         0.3800 
    243 H243       -5.1671  -20.8536  -56.6318 H         1 UNK         0.3800 
    244 H244       -1.4747  -18.4968  -54.7943 H         1 UNK         0.0800 
    245 H245       -2.8611  -17.7982  -54.0257 H         1 UNK         0.0800 
    246 H246       -3.1627  -19.7704  -50.9064 H         1 UNK         0.0800 
    247 H247       -3.7669  -18.4733  -51.9044 H         1 UNK         0.0800 
@<TRIPOS>BOND
     1    1    2 1    
     2    1  127 1    
     3    1  128 1    
     4    1  129 1    
     5    2    3 2    
     6    2    4 am   BACKBONE|DICT|INTERRES
     7    4    5 1    
     8    4  130 1    
     9    5    6 1    
    10    5   65 1    
    11    5  131 1    
    12    6    7 1    
    13    6  132 1    
    14    6  133 1    
    15    7    8 1    
    16    8    9 1    
    17    8  134 1    
    18    8  135 1    
    19    9   10 ar   
    20    9   14 ar   
    21   10   11 ar   
    22   10  136 1    
    23   11   12 ar   
    24   11  126 1    
    25   12   13 ar   
    26   12  137 1    
    27   13   14 ar   
    28   13   15 1    
    29   14  138 1    
    30   15   16 1    
    31   15  139 1    
    32   15  140 1    
    33   16   17 1    
    34   17   18 1    
    35   17  141 1    
    36   17  142 1    
    37   18   19 1    
    38   18   67 1    
    39   18  143 1    
    40   19   20 am   BACKBONE|DICT|INTERRES
    41   19  144 1    
    42   20   21 2    
    43   20   22 1    
    44   22   23 1    
    45   22   24 1    
    46   22  145 1    
    47   23  146 1    
    48   23  147 1    
    49   23  148 1    
    50   24   25 am   BACKBONE|DICT|INTERRES
    51   24  149 1    
    52   25   26 2    
    53   25   27 1    
    54   27   28 1    
    55   27   29 1    
    56   27  150 1    
    57   28  151 1    
    58   28  152 1    
    59   28  153 1    
    60   29   30 am   BACKBONE|DICT|INTERRES
    61   29  154 1    
    62   30   31 2    
    63   30   32 1    
    64   32   33 1    
    65   32   34 1    
    66   32  155 1    
    67   33  156 1    
    68   33  157 1    
    69   33  158 1    
    70   34   35 am   BACKBONE|DICT|INTERRES
    71   34  159 1    
    72   35   36 2    
    73   35   37 1    
    74   37   38 1    
    75   37   39 1    
    76   37  160 1    
    77   38  161 1    
    78   38  162 1    
    79   38  163 1    
    80   39   40 am   BACKBONE|DICT|INTERRES
    81   39  164 1    
    82   40   41 2    
    83   40   42 1    
    84   42   43 1    
    85   42   44 1    
    86   42  165 1    
    87   43  166 1    
    88   43  167 1    
    89   43  168 1    
    90   44   45 am   BACKBONE|DICT|INTERRES
    91   44  169 1    
    92   45   46 2    
    93   45   47 1    
    94   47   48 1    
    95   47   49 1    
    96   47  170 1    
    97   48  171 1    
    98   48  172 1    
    99   48  173 1    
   100   49   50 am   BACKBONE|DICT|INTERRES
   101   49  174 1    
   102   50   51 2    
   103   50   52 1    
   104   52   53 1    
   105   52   54 1    
   106   52  175 1    
   107   53  176 1    
   108   53  177 1    
   109   53  178 1    
   110   54   55 am   BACKBONE|DICT|INTERRES
   111   54  179 1    
   112   55   56 2    
   113   55   57 1    
   114   57   58 1    
   115   57   59 1    
   116   57  180 1    
   117   58  181 1    
   118   58  182 1    
   119   58  183 1    
   120   59   60 am   BACKBONE|DICT|INTERRES
   121   59  184 1    
   122   60   61 2    
   123   60   62 1    
   124   62   63 1    
   125   62   64 1    
   126   62  185 1    
   127   63  186 1    
   128   63  187 1    
   129   63  188 1    
   130   64   65 am   BACKBONE|DICT|INTERRES
   131   64  189 1    
   132   65   66 2    
   133   67   68 2    
   134   67   69 am   BACKBONE|DICT|INTERRES
   135   69   70 1    
   136   69  190 1    
   137   70   71 1    
   138   70   72 1    
   139   70  191 1    
   140   71  192 1    
   141   71  193 1    
   142   71  194 1    
   143   72   73 2    
   144   72   74 am   BACKBONE|DICT|INTERRES
   145   74   75 1    
   146   74  195 1    
   147   75   76 1    
   148   75   77 1    
   149   75  196 1    
   150   76  197 1    
   151   76  198 1    
   152   76  199 1    
   153   77   78 2    
   154   77   79 am   BACKBONE|DICT|INTERRES
   155   79   80 1    
   156   79  200 1    
   157   80   81 1    
   158   80   82 1    
   159   80  201 1    
   160   81  202 1    
   161   81  203 1    
   162   81  204 1    
   163   82   83 2    
   164   82   84 am   BACKBONE|DICT|INTERRES
   165   84   85 1    
   166   84  205 1    
   167   85   86 1    
   168   85   87 1    
   169   85  206 1    
   170   86  207 1    
   171   86  208 1    
   172   86  209 1    
   173   87   88 2    
   174   87   89 am   BACKBONE|DICT|INTERRES
   175   89   90 1    
   176   89  210 1    
   177   90   91 1    
   178   90   92 1    
   179   90  211 1    
   180   91  212 1    
   181   91  213 1    
   182   91  214 1    
   183   92   93 2    
   184   92   94 am   BACKBONE|DICT|INTERRES
   185   94   95 1    
   186   94  215 1    
   187   95   96 1    
   188   95   97 1    
   189   95  216 1    
   190   96  217 1    
   191   96  218 1    
   192   96  219 1    
   193   97   98 2    
   194   97   99 am   BACKBONE|DICT|INTERRES
   195   99  100 1    
   196   99  220 1    
   197  100  101 1    
   198  100  102 1    
   199  100  221 1    
   200  101  222 1    
   201  101  223 1    
   202  101  224 1    
   203  102  103 2    
   204  102  104 am   BACKBONE|DICT|INTERRES
   205  104  105 1    
   206  104  225 1    
   207  105  106 1    
   208  105  107 1    
   209  105  226 1    
   210  106  227 1    
   211  106  228 1    
   212  106  229 1    
   213  107  108 2    
   214  107  109 am   BACKBONE|DICT|INTERRES
   215  109  110 1    
   216  109  230 1    
   217  110  111 1    
   218  110  112 1    
   219  110  231 1    
   220  111  232 1    
   221  111  233 1    
   222  111  234 1    
   223  112  113 2    
   224  112  114 am   BACKBONE|DICT|INTERRES
   225  114  115 1    
   226  114  235 1    
   227  115  116 1    
   228  115  117 1    
   229  115  236 1    
   230  116  237 1    
   231  116  238 1    
   232  116  239 1    
   233  117  118 2    
   234  117  119 am   BACKBONE|DICT|INTERRES
   235  119  120 1    
   236  119  240 1    
   237  120  121 1    
   238  120  124 1    
   239  120  241 1    
   240  121  122 am   BACKBONE|DICT|INTERRES
   241  121  123 2    
   242  122  242 1    
   243  122  243 1    
   244  124  125 1    
   245  124  244 1    
   246  124  245 1    
   247  125  126 1    
   248  126  246 1    
   249  126  247 1    
@<TRIPOS>SUBSTRUCTURE
     1 UNK         1 GROUP             0       ****    0 ROOT    
