@<TRIPOS>MOLECULE
3R540
247   249    1
SMALL
USER_CHARGES


@<TRIPOS>ATOM
      1 CA          1.8958  -13.7960  -49.0207 C.3       0 UNK        -0.1800 
      2 C           0.6638  -13.9594  -48.1436 C.2       0 UNK         0.5000 
      3 O           0.7843  -14.3302  -46.9778 O.2       0 UNK        -0.5000 
      4 N          -0.5249  -13.6774  -48.6887 N.am      1 UNK        -0.5000 
      5 CA         -1.8254  -13.8473  -48.0273 C.3       1 UNK         0.1400 
      6 C6         -2.9322  -14.1798  -49.0666 C.3       23 UNK        -0.0398 
      7 S7         -4.1897  -15.4017  -48.5375 S.3       23 UNK        -0.2404 
      8 C8         -3.2745  -16.8196  -47.8188 C.3       23 UNK        -0.0205 
      9 C9         -1.9453  -17.1526  -48.4930 C.ar      23 UNK        -0.0193 
     10 C10        -1.8438  -17.2721  -49.8836 C.ar      23 UNK        -0.1150 
     11 C11        -0.6086  -17.5266  -50.4871 C.ar      23 UNK        -0.0193 
     12 C12         0.5261  -17.6866  -49.6867 C.ar      23 UNK        -0.1150 
     13 C13         0.4378  -17.5883  -48.2953 C.ar      23 UNK        -0.0193 
     14 C14        -0.8013  -17.3269  -47.7064 C.ar      23 UNK        -0.1150 
     15 C15         1.6900  -17.7087  -47.4347 C.3       23 UNK        -0.0205 
     16 S16         1.7373  -19.2374  -46.4450 S.3       23 UNK        -0.2404 
     17 C17         1.7607  -20.5260  -47.7445 C.3       23 UNK        -0.0398 
     18 CA          0.7820  -21.6990  -47.4973 C.3       11 UNK         0.1400 
     19 N           1.1108  -22.4429  -46.2802 N.am      11 UNK        -0.5000 
     20 C           0.6487  -23.6674  -45.9960 C.2       10 UNK         0.5000 
     21 O          -0.0900  -24.3101  -46.7419 O.2       10 UNK        -0.5000 
     22 CA          1.0455  -24.2501  -44.6283 C.3       10 UNK         0.1400 
     23 CB          2.4318  -24.9068  -44.6999 C.3       10 UNK        -0.1800 
     24 N           1.0367  -23.2566  -43.5526 N.am      10 UNK        -0.5000 
     25 C          -0.0351  -22.5670  -43.1460 C.2       9 UNK         0.5000 
     26 O          -1.1403  -22.6611  -43.6771 O.2       9 UNK        -0.5000 
     27 CA          0.1436  -21.5954  -41.9677 C.3       9 UNK         0.1400 
     28 CB          0.0491  -22.3334  -40.6197 C.3       9 UNK        -0.1800 
     29 N           1.3403  -20.7493  -42.0321 N.am      9 UNK        -0.5000 
     30 C           2.6362  -21.0841  -41.9211 C.2       8 UNK         0.5000 
     31 O           3.0404  -22.2453  -41.8490 O.2       8 UNK        -0.5000 
     32 CA          3.6614  -19.9288  -41.8802 C.3       8 UNK         0.1400 
     33 CB          4.3552  -19.7858  -43.2430 C.3       8 UNK        -0.1800 
     34 N           3.0727  -18.6392  -41.5079 N.am      8 UNK        -0.5000 
     35 C           2.5232  -18.3618  -40.3138 C.2       7 UNK         0.5000 
     36 O           2.6060  -19.1123  -39.3409 O.2       7 UNK        -0.5000 
     37 CA          1.7063  -17.0568  -40.1845 C.3       7 UNK         0.1400 
     38 CB          2.4834  -16.0150  -39.3661 C.3       7 UNK        -0.1800 
     39 N           1.3128  -16.4588  -41.4636 N.am      7 UNK        -0.5000 
     40 C           0.5585  -17.0365  -42.4115 C.2       6 UNK         0.5000 
     41 O           0.0100  -18.1297  -42.2717 O.2       6 UNK        -0.5000 
     42 CA          0.4558  -16.3085  -43.7663 C.3       6 UNK         0.1400 
     43 CB         -0.9297  -15.6680  -43.9366 C.3       6 UNK        -0.1800 
     44 N           1.4952  -15.2936  -43.9750 N.am      6 UNK        -0.5000 
     45 C           2.8090  -15.5450  -44.0788 C.2       5 UNK         0.5000 
     46 O           3.2863  -16.6753  -43.9724 O.2       5 UNK        -0.5000 
     47 CA          3.7588  -14.3502  -44.2662 C.3       5 UNK         0.1400 
     48 CB          3.9741  -14.0286  -45.7525 C.3       5 UNK        -0.1800 
     49 N           3.2917  -13.1479  -43.5706 N.am      5 UNK        -0.5000 
     50 C           4.0394  -12.4153  -42.7323 C.2       4 UNK         0.5000 
     51 O           5.2058  -12.6871  -42.4435 O.2       4 UNK        -0.5000 
     52 CA          3.3978  -11.1565  -42.1086 C.3       4 UNK         0.1400 
     53 CB          3.8172   -9.9018  -42.8902 C.3       4 UNK        -0.1800 
     54 N           1.9371  -11.1992  -42.0410 N.am      4 UNK        -0.5000 
     55 C           1.2252  -12.0439  -41.2843 C.2       3 UNK         0.5000 
     56 O           1.7317  -12.8451  -40.4998 O.2       3 UNK        -0.5000 
     57 CA         -0.3094  -12.0174  -41.4477 C.3       3 UNK         0.1400 
     58 CB         -0.9527  -11.2270  -40.2980 C.3       3 UNK        -0.1800 
     59 N          -0.8158  -11.4924  -42.7249 N.am      3 UNK        -0.5000 
     60 C          -0.4773  -11.9301  -43.9442 C.2       2 UNK         0.5000 
     61 O           0.4378  -12.7313  -44.1531 O.2       2 UNK        -0.5000 
     62 CA         -1.2756  -11.3744  -45.1295 C.3       2 UNK         0.1400 
     63 CB         -0.6796  -10.0472  -45.6242 C.3       2 UNK        -0.1800 
     64 N          -1.2097  -12.3660  -46.1924 N.am      2 UNK        -0.5000 
     65 C          -2.1521  -12.6607  -47.0903 C.2       1 UNK         0.5000 
     66 O          -3.2125  -12.0415  -47.1919 O.2       1 UNK        -0.5000 
     67 C          -0.6993  -21.2647  -47.5225 C.2       11 UNK         0.5000 
     68 O          -1.3449  -21.3758  -48.5626 O.2       11 UNK        -0.5000 
     69 N          -1.2264  -20.8401  -46.3649 N.am      12 UNK        -0.5000 
     70 CA         -2.6236  -20.4513  -46.1843 C.3       12 UNK         0.1400 
     71 CB         -2.7769  -19.6915  -44.8584 C.3       12 UNK        -0.1800 
     72 C          -3.5756  -21.6591  -46.2569 C.2       12 UNK         0.5000 
     73 O          -4.6483  -21.5536  -46.8515 O.2       12 UNK        -0.5000 
     74 N          -3.1471  -22.7971  -45.6926 N.am      13 UNK        -0.5000 
     75 CA         -3.8377  -24.0838  -45.7755 C.3       13 UNK         0.1400 
     76 CB         -3.1583  -25.0951  -44.8404 C.3       13 UNK        -0.1800 
     77 C          -3.9030  -24.6252  -47.2151 C.2       13 UNK         0.5000 
     78 O          -4.9361  -25.1650  -47.6096 O.2       13 UNK        -0.5000 
     79 N          -2.8223  -24.4385  -47.9867 N.am      14 UNK        -0.5000 
     80 CA         -2.7794  -24.7357  -49.4179 C.3       14 UNK         0.1400 
     81 CB         -1.3295  -24.6865  -49.9224 C.3       14 UNK        -0.1800 
     82 C          -3.6782  -23.7850  -50.2272 C.2       14 UNK         0.5000 
     83 O          -4.4260  -24.2477  -51.0886 O.2       14 UNK        -0.5000 
     84 N          -3.6199  -22.4807  -49.9182 N.am      15 UNK        -0.5000 
     85 CA         -4.3961  -21.4195  -50.5660 C.3       15 UNK         0.1400 
     86 CB         -3.9237  -20.0496  -50.0661 C.3       15 UNK        -0.1800 
     87 C          -5.9202  -21.5571  -50.4061 C.2       15 UNK         0.5000 
     88 O          -6.6550  -21.0773  -51.2689 O.2       15 UNK        -0.5000 
     89 N          -6.3766  -22.2674  -49.3653 N.am      16 UNK        -0.5000 
     90 CA         -7.7734  -22.6772  -49.1866 C.3       16 UNK         0.1400 
     91 CB         -7.9431  -23.3056  -47.7959 C.3       16 UNK        -0.1800 
     92 C          -8.2750  -23.6396  -50.2881 C.2       16 UNK         0.5000 
     93 O          -9.4798  -23.6980  -50.5348 O.2       16 UNK        -0.5000 
     94 N          -7.3451  -24.3412  -50.9509 N.am      17 UNK        -0.5000 
     95 CA         -7.5652  -25.1710  -52.1358 C.3       17 UNK         0.1400 
     96 CB         -7.0036  -26.5764  -51.8568 C.3       17 UNK        -0.1800 
     97 C          -6.9178  -24.5325  -53.3862 C.2       17 UNK         0.5000 
     98 O          -6.6397  -25.2384  -54.3559 O.2       17 UNK        -0.5000 
     99 N          -6.6652  -23.2142  -53.3339 N.am      18 UNK        -0.5000 
    100 CA        -6.0520  -22.3440  -54.3465 C.3       18 UNK         0.1400 
    101 CB        -6.8477  -22.3749  -55.6669 C.3       18 UNK        -0.1800 
    102 C         -4.5455  -22.5701  -54.5896 C.2       18 UNK         0.5000 
    103 O         -3.9645  -21.8484  -55.4021 O.2       18 UNK        -0.5000 
    104 N         -3.9275  -23.5483  -53.9110 N.am      19 UNK        -0.5000 
    105 CA        -2.5043  -23.9326  -53.9287 C.3       19 UNK         0.1400 
    106 CB        -1.6572  -22.8248  -53.2706 C.3       19 UNK        -0.1800 
    107 C         -1.9133  -24.3030  -55.3103 C.2       19 UNK         0.5000 
    108 O         -0.7094  -24.5468  -55.3994 O.2       19 UNK        -0.5000 
    109 N         -2.7460  -24.2887  -56.3612 N.am      20 UNK        -0.5000 
    110 CA        -2.3897  -24.2507  -57.7829 C.3       20 UNK         0.1400 
    111 CB        -1.7367  -25.5765  -58.2269 C.3       20 UNK        -0.1800 
    112 C         -1.5511  -23.0035  -58.1579 C.2       20 UNK         0.5000 
    113 O         -0.7605  -23.0658  -59.1017 O.2       20 UNK        -0.5000 
    114 N         -1.7295  -21.8949  -57.4205 N.am      21 UNK        -0.5000 
    115 CA        -0.9664  -20.6555  -57.5869 C.3       21 UNK         0.1400 
    116 CB         0.4770  -20.8299  -57.0725 C.3       21 UNK        -0.1800 
    117 C         -1.6404  -19.4659  -56.8867 C.2       21 UNK         0.5000 
    118 O         -1.7874  -18.4077  -57.4996 O.2       21 UNK        -0.5000 
    119 N         -2.0194  -19.6506  -55.6159 N.am      22 UNK        -0.5000 
    120 CA        -2.6455  -18.6222  -54.7655 C.3       22 UNK         0.1400 
    121 C         -4.1050  -18.2586  -55.1615 C.2       22 UNK         0.5000 
    122 N         -4.8438  -19.1390  -55.8234 N.am      22 UNK        -0.7600 
    123 O         -4.5671  -17.1595  -54.8690 O.2       22 UNK        -0.5000 
    124 C124       -2.5742  -18.9927  -53.2614 C.3       23 UNK        -0.0398 
    125 S125       -0.8617  -19.2256  -52.6730 S.3       23 UNK        -0.2404 
    126 C126       -0.4794  -17.5774  -52.0027 C.3       23 UNK        -0.0205 
    127 H127        2.4698  -14.7227  -49.0305 H         1 UNK         0.0600 
    128 H128        1.6311  -13.5494  -50.0491 H         1 UNK         0.0600 
    129 H129        2.5323  -13.0023  -48.6301 H         1 UNK         0.0600 
    130 H130       -0.5594  -13.3320  -49.6367 H         1 UNK         0.3000 
    131 H131       -1.7284  -14.6972  -47.3543 H         1 UNK         0.0600 
    132 H132       -2.4825  -14.5917  -49.9704 H         1 UNK         0.0800 
    133 H133       -3.4434  -13.2796  -49.4114 H         1 UNK         0.0800 
    134 H134       -3.9174  -17.6987  -47.8654 H         1 UNK         0.0800 
    135 H135       -3.1211  -16.6180  -46.7575 H         1 UNK         0.0800 
    136 H136       -2.7231  -17.1380  -50.4965 H         1 UNK         0.1150 
    137 H137        1.4843  -17.8721  -50.1510 H         1 UNK         0.1150 
    138 H138       -0.8641  -17.2355  -46.6317 H         1 UNK         0.1150 
    139 H139        2.5889  -17.6562  -48.0505 H         1 UNK         0.0800 
    140 H140        1.7399  -16.8542  -46.7591 H         1 UNK         0.0800 
    141 H141        2.7790  -20.9111  -47.8103 H         1 UNK         0.0800 
    142 H142        1.5597  -20.0844  -48.7204 H         1 UNK         0.0800 
    143 H143        0.9106  -22.3906  -48.3332 H         1 UNK         0.0600 
    144 H144        1.6981  -21.9733  -45.6068 H         1 UNK         0.3000 
    145 H145        0.3150  -25.0204  -44.3736 H         1 UNK         0.0600 
    146 H146        2.6820  -25.4010  -43.7609 H         1 UNK         0.0600 
    147 H147        2.4660  -25.6639  -45.4845 H         1 UNK         0.0600 
    148 H148        3.2134  -24.1762  -44.9121 H         1 UNK         0.0600 
    149 H149        1.9051  -23.1066  -43.0447 H         1 UNK         0.3000 
    150 H150       -0.6977  -20.9019  -42.0135 H         1 UNK         0.0600 
    151 H151       -0.8962  -22.8713  -40.5372 H         1 UNK         0.0600 
    152 H152        0.0996  -21.6342  -39.7848 H         1 UNK         0.0600 
    153 H153        0.8498  -23.0628  -40.4952 H         1 UNK         0.0600 
    154 H154        1.1255  -19.7608  -42.1216 H         1 UNK         0.3000 
    155 H155        4.4160  -20.1852  -41.1340 H         1 UNK         0.0600 
    156 H156        3.6465  -19.5170  -44.0271 H         1 UNK         0.0600 
    157 H157        4.8360  -20.7189  -43.5397 H         1 UNK         0.0600 
    158 H158        5.1273  -19.0167  -43.2142 H         1 UNK         0.0600 
    159 H159        2.9932  -17.9549  -42.2518 H         1 UNK         0.3000 
    160 H160        0.7919  -17.3062  -39.6427 H         1 UNK         0.0600 
    161 H161        1.8581  -15.1530  -39.1346 H         1 UNK         0.0600 
    162 H162        3.3650  -15.6587  -39.9006 H         1 UNK         0.0600 
    163 H163        2.8197  -16.4303  -38.4151 H         1 UNK         0.0600 
    164 H164        1.7174  -15.5582  -41.6756 H         1 UNK         0.3000 
    165 H165        0.5744  -17.0651  -44.5435 H         1 UNK         0.0600 
    166 H166       -1.0288  -15.2005  -44.9161 H         1 UNK         0.0600 
    167 H167       -1.7197  -16.4151  -43.8523 H         1 UNK         0.0600 
    168 H168       -1.1154  -14.9064  -43.1789 H         1 UNK         0.0600 
    169 H169        1.1594  -14.3422  -44.1095 H         1 UNK         0.3000 
    170 H170        4.7190  -14.6729  -43.8586 H         1 UNK         0.0600 
    171 H171        4.8272  -13.3637  -45.8868 H         1 UNK         0.0600 
    172 H172        4.1680  -14.9317  -46.3331 H         1 UNK         0.0600 
    173 H173        3.1037  -13.5362  -46.1828 H         1 UNK         0.0600 
    174 H174        2.3326  -12.8640  -43.7463 H         1 UNK         0.3000 
    175 H175        3.7783  -11.0675  -41.0889 H         1 UNK         0.0600 
    176 H176        3.4412   -8.9957  -42.4147 H         1 UNK         0.0600 
    177 H177        4.9036   -9.8151  -42.9377 H         1 UNK         0.0600 
    178 H178        3.4446   -9.9242  -43.9153 H         1 UNK         0.0600 
    179 H179        1.4358  -10.5849  -42.6651 H         1 UNK         0.3000 
    180 H180       -0.6468  -13.0532  -41.3747 H         1 UNK         0.0600 
    181 H181       -0.6890  -10.1695  -40.3422 H         1 UNK         0.0600 
    182 H182       -0.6257  -11.6067  -39.3289 H         1 UNK         0.0600 
    183 H183       -2.0398  -11.3047  -40.3238 H         1 UNK         0.0600 
    184 H184       -1.5548  -10.8080  -42.6514 H         1 UNK         0.3000 
    185 H185       -2.3127  -11.2282  -44.8206 H         1 UNK         0.0600 
    186 H186        0.3617  -10.1635  -45.9282 H         1 UNK         0.0600 
    187 H187       -1.2356   -9.6609  -46.4786 H         1 UNK         0.0600 
    188 H188       -0.7131   -9.2864  -44.8435 H         1 UNK         0.0600 
    189 H189       -0.3804  -12.9569  -46.1612 H         1 UNK         0.3000 
    190 H190       -0.6361  -20.8131  -45.5475 H         1 UNK         0.3000 
    191 H191       -2.8867  -19.7691  -46.9935 H         1 UNK         0.0600 
    192 H192       -2.1328  -18.8122  -44.8317 H         1 UNK         0.0600 
    193 H193       -2.5252  -20.3162  -44.0010 H         1 UNK         0.0600 
    194 H194       -3.8031  -19.3476  -44.7242 H         1 UNK         0.0600 
    195 H195       -2.2853  -22.7777  -45.1530 H         1 UNK         0.3000 
    196 H196       -4.8627  -23.9350  -45.4297 H         1 UNK         0.0600 
    197 H197       -3.6766  -26.0545  -44.8601 H         1 UNK         0.0600 
    198 H198       -3.1633  -24.7430  -43.8087 H         1 UNK         0.0600 
    199 H199       -2.1220  -25.2754  -45.1266 H         1 UNK         0.0600 
    200 H200       -1.9828  -24.0487  -47.5725 H         1 UNK         0.3000 
    201 H201       -3.1520  -25.7516  -49.5647 H         1 UNK         0.0600 
    202 H202       -0.6990  -25.3879  -49.3759 H         1 UNK         0.0600 
    203 H203       -0.8939  -23.6934  -49.8147 H         1 UNK         0.0600 
    204 H204       -1.2751  -24.9550  -50.9778 H         1 UNK         0.0600 
    205 H205       -2.9279  -22.1728  -49.2394 H         1 UNK         0.3000 
    206 H206       -4.1860  -21.4781  -51.6345 H         1 UNK         0.0600 
    207 H207       -2.8575  -19.9138  -50.2459 H         1 UNK         0.0600 
    208 H208       -4.4458  -19.2412  -50.5792 H         1 UNK         0.0600 
    209 H209       -4.1041  -19.9299  -48.9991 H         1 UNK         0.0600 
    210 H210       -5.7116  -22.5818  -48.6699 H         1 UNK         0.3000 
    211 H211       -8.3903  -21.7774  -49.2307 H         1 UNK         0.0600 
    212 H212       -7.3947  -24.2433  -47.7089 H         1 UNK         0.0600 
    213 H213       -8.9926  -23.5222  -47.5929 H         1 UNK         0.0600 
    214 H214       -7.5905  -22.6353  -47.0115 H         1 UNK         0.0600 
    215 H215       -6.3698  -24.2232  -50.6931 H         1 UNK         0.3000 
    216 H216       -8.6325  -25.2645  -52.3442 H         1 UNK         0.0600 
    217 H217       -7.2020  -27.2536  -52.6884 H         1 UNK         0.0600 
    218 H218       -7.4614  -27.0132  -50.9691 H         1 UNK         0.0600 
    219 H219       -5.9246  -26.5534  -51.6995 H         1 UNK         0.0600 
    220 H220       -6.9202  -22.7287  -52.4812 H         1 UNK         0.3000 
    221 H221       -6.1310  -21.3318  -53.9481 H         1 UNK         0.0600 
    222 H222       -6.7605  -23.3354  -56.1750 H         1 UNK         0.0600 
    223 H223       -7.9061  -22.1809  -55.4936 H         1 UNK         0.0600 
    224 H224       -6.4904  -21.6120  -56.3592 H         1 UNK         0.0600 
    225 H225       -4.4889  -24.0665  -53.2455 H         1 UNK         0.3000 
    226 H226       -2.4274  -24.8283  -53.3112 H         1 UNK         0.0600 
    227 H227       -2.0566  -22.5259  -52.3038 H         1 UNK         0.0600 
    228 H228       -0.6334  -23.1599  -53.1014 H         1 UNK         0.0600 
    229 H229       -1.6061  -21.9362  -53.8973 H         1 UNK         0.0600 
    230 H230       -3.7100  -24.0653  -56.1575 H         1 UNK         0.3000 
    231 H231       -3.3305  -24.1514  -58.3258 H         1 UNK         0.0600 
    232 H232       -2.3461  -26.4326  -57.9375 H         1 UNK         0.0600 
    233 H233       -0.7454  -25.7075  -57.7925 H         1 UNK         0.0600 
    234 H234       -1.6238  -25.6123  -59.3110 H         1 UNK         0.0600 
    235 H235       -2.4547  -21.8922  -56.7093 H         1 UNK         0.3000 
    236 H236       -0.9273  -20.4182  -58.6523 H         1 UNK         0.0600 
    237 H237        1.0307  -19.8920  -57.1325 H         1 UNK         0.0600 
    238 H238        0.4952  -21.1571  -56.0321 H         1 UNK         0.0600 
    239 H239        1.0267  -21.5639  -57.6614 H         1 UNK         0.0600 
    240 H240       -1.8777  -20.5502  -55.1840 H         1 UNK         0.3000 
    241 H241       -2.0661  -17.7063  -54.8980 H         1 UNK         0.0600 
    242 H242       -5.7828  -18.8993  -56.0970 H         1 UNK         0.3800 
    243 H243       -4.4800  -20.0698  -55.9941 H         1 UNK         0.3800 
    244 H244       -3.0607  -18.2330  -52.6477 H         1 UNK         0.0800 
    245 H245       -3.1209  -19.9187  -53.0822 H         1 UNK         0.0800 
    246 H246       -1.1174  -16.8200  -52.4602 H         1 UNK         0.0800 
    247 H247        0.5395  -17.3184  -52.2939 H         1 UNK         0.0800 
@<TRIPOS>BOND
     1    1    2 1    
     2    1  127 1    
     3    1  128 1    
     4    1  129 1    
     5    2    3 2    
     6    2    4 am   BACKBONE|DICT|INTERRES
     7    4    5 1    
     8    4  130 1    
     9    5    6 1    
    10    5   65 1    
    11    5  131 1    
    12    6    7 1    
    13    6  132 1    
    14    6  133 1    
    15    7    8 1    
    16    8    9 1    
    17    8  134 1    
    18    8  135 1    
    19    9   10 ar   
    20    9   14 ar   
    21   10   11 ar   
    22   10  136 1    
    23   11   12 ar   
    24   11  126 1    
    25   12   13 ar   
    26   12  137 1    
    27   13   14 ar   
    28   13   15 1    
    29   14  138 1    
    30   15   16 1    
    31   15  139 1    
    32   15  140 1    
    33   16   17 1    
    34   17   18 1    
    35   17  141 1    
    36   17  142 1    
    37   18   19 1    
    38   18   67 1    
    39   18  143 1    
    40   19   20 am   BACKBONE|DICT|INTERRES
    41   19  144 1    
    42   20   21 2    
    43   20   22 1    
    44   22   23 1    
    45   22   24 1    
    46   22  145 1    
    47   23  146 1    
    48   23  147 1    
    49   23  148 1    
    50   24   25 am   BACKBONE|DICT|INTERRES
    51   24  149 1    
    52   25   26 2    
    53   25   27 1    
    54   27   28 1    
    55   27   29 1    
    56   27  150 1    
    57   28  151 1    
    58   28  152 1    
    59   28  153 1    
    60   29   30 am   BACKBONE|DICT|INTERRES
    61   29  154 1    
    62   30   31 2    
    63   30   32 1    
    64   32   33 1    
    65   32   34 1    
    66   32  155 1    
    67   33  156 1    
    68   33  157 1    
    69   33  158 1    
    70   34   35 am   BACKBONE|DICT|INTERRES
    71   34  159 1    
    72   35   36 2    
    73   35   37 1    
    74   37   38 1    
    75   37   39 1    
    76   37  160 1    
    77   38  161 1    
    78   38  162 1    
    79   38  163 1    
    80   39   40 am   BACKBONE|DICT|INTERRES
    81   39  164 1    
    82   40   41 2    
    83   40   42 1    
    84   42   43 1    
    85   42   44 1    
    86   42  165 1    
    87   43  166 1    
    88   43  167 1    
    89   43  168 1    
    90   44   45 am   BACKBONE|DICT|INTERRES
    91   44  169 1    
    92   45   46 2    
    93   45   47 1    
    94   47   48 1    
    95   47   49 1    
    96   47  170 1    
    97   48  171 1    
    98   48  172 1    
    99   48  173 1    
   100   49   50 am   BACKBONE|DICT|INTERRES
   101   49  174 1    
   102   50   51 2    
   103   50   52 1    
   104   52   53 1    
   105   52   54 1    
   106   52  175 1    
   107   53  176 1    
   108   53  177 1    
   109   53  178 1    
   110   54   55 am   BACKBONE|DICT|INTERRES
   111   54  179 1    
   112   55   56 2    
   113   55   57 1    
   114   57   58 1    
   115   57   59 1    
   116   57  180 1    
   117   58  181 1    
   118   58  182 1    
   119   58  183 1    
   120   59   60 am   BACKBONE|DICT|INTERRES
   121   59  184 1    
   122   60   61 2    
   123   60   62 1    
   124   62   63 1    
   125   62   64 1    
   126   62  185 1    
   127   63  186 1    
   128   63  187 1    
   129   63  188 1    
   130   64   65 am   BACKBONE|DICT|INTERRES
   131   64  189 1    
   132   65   66 2    
   133   67   68 2    
   134   67   69 am   BACKBONE|DICT|INTERRES
   135   69   70 1    
   136   69  190 1    
   137   70   71 1    
   138   70   72 1    
   139   70  191 1    
   140   71  192 1    
   141   71  193 1    
   142   71  194 1    
   143   72   73 2    
   144   72   74 am   BACKBONE|DICT|INTERRES
   145   74   75 1    
   146   74  195 1    
   147   75   76 1    
   148   75   77 1    
   149   75  196 1    
   150   76  197 1    
   151   76  198 1    
   152   76  199 1    
   153   77   78 2    
   154   77   79 am   BACKBONE|DICT|INTERRES
   155   79   80 1    
   156   79  200 1    
   157   80   81 1    
   158   80   82 1    
   159   80  201 1    
   160   81  202 1    
   161   81  203 1    
   162   81  204 1    
   163   82   83 2    
   164   82   84 am   BACKBONE|DICT|INTERRES
   165   84   85 1    
   166   84  205 1    
   167   85   86 1    
   168   85   87 1    
   169   85  206 1    
   170   86  207 1    
   171   86  208 1    
   172   86  209 1    
   173   87   88 2    
   174   87   89 am   BACKBONE|DICT|INTERRES
   175   89   90 1    
   176   89  210 1    
   177   90   91 1    
   178   90   92 1    
   179   90  211 1    
   180   91  212 1    
   181   91  213 1    
   182   91  214 1    
   183   92   93 2    
   184   92   94 am   BACKBONE|DICT|INTERRES
   185   94   95 1    
   186   94  215 1    
   187   95   96 1    
   188   95   97 1    
   189   95  216 1    
   190   96  217 1    
   191   96  218 1    
   192   96  219 1    
   193   97   98 2    
   194   97   99 am   BACKBONE|DICT|INTERRES
   195   99  100 1    
   196   99  220 1    
   197  100  101 1    
   198  100  102 1    
   199  100  221 1    
   200  101  222 1    
   201  101  223 1    
   202  101  224 1    
   203  102  103 2    
   204  102  104 am   BACKBONE|DICT|INTERRES
   205  104  105 1    
   206  104  225 1    
   207  105  106 1    
   208  105  107 1    
   209  105  226 1    
   210  106  227 1    
   211  106  228 1    
   212  106  229 1    
   213  107  108 2    
   214  107  109 am   BACKBONE|DICT|INTERRES
   215  109  110 1    
   216  109  230 1    
   217  110  111 1    
   218  110  112 1    
   219  110  231 1    
   220  111  232 1    
   221  111  233 1    
   222  111  234 1    
   223  112  113 2    
   224  112  114 am   BACKBONE|DICT|INTERRES
   225  114  115 1    
   226  114  235 1    
   227  115  116 1    
   228  115  117 1    
   229  115  236 1    
   230  116  237 1    
   231  116  238 1    
   232  116  239 1    
   233  117  118 2    
   234  117  119 am   BACKBONE|DICT|INTERRES
   235  119  120 1    
   236  119  240 1    
   237  120  121 1    
   238  120  124 1    
   239  120  241 1    
   240  121  122 am   BACKBONE|DICT|INTERRES
   241  121  123 2    
   242  122  242 1    
   243  122  243 1    
   244  124  125 1    
   245  124  244 1    
   246  124  245 1    
   247  125  126 1    
   248  126  246 1    
   249  126  247 1    
@<TRIPOS>SUBSTRUCTURE
     1 UNK         1 GROUP             0       ****    0 ROOT    
