@<TRIPOS>MOLECULE
3R540
247   249    1
SMALL
USER_CHARGES


@<TRIPOS>ATOM
      1 CA          1.4343   -9.5972  -50.4389 C.3       0 UNK        -0.1800 
      2 C           1.9021  -10.8674  -51.1353 C.2       0 UNK         0.5000 
      3 O           2.4584  -10.7972  -52.2317 O.2       0 UNK        -0.5000 
      4 N           1.6719  -12.0259  -50.5073 N.am      1 UNK        -0.5000 
      5 CA          2.1203  -13.3411  -50.9705 C.3       1 UNK         0.1400 
      6 C6          1.3560  -14.4986  -50.2738 C.3       23 UNK        -0.0398 
      7 S7          1.2824  -14.3767  -48.4467 S.3       23 UNK        -0.2404 
      8 C8         -0.4561  -13.8705  -48.1891 C.3       23 UNK        -0.0205 
      9 C9         -1.4327  -15.0290  -47.9854 C.ar      23 UNK        -0.0193 
     10 C10        -2.5097  -14.8650  -47.1074 C.ar      23 UNK        -0.1150 
     11 C11        -3.4138  -15.9066  -46.8791 C.ar      23 UNK        -0.0193 
     12 C12        -3.2353  -17.1278  -47.5342 C.ar      23 UNK        -0.1150 
     13 C13        -2.1843  -17.2977  -48.4366 C.ar      23 UNK        -0.0193 
     14 C14        -1.2928  -16.2464  -48.6631 C.ar      23 UNK        -0.1150 
     15 C15        -2.0116  -18.6134  -49.1748 C.3       23 UNK        -0.0205 
     16 S16        -0.6530  -19.5970  -48.4758 S.3       23 UNK        -0.2404 
     17 C17        -1.3401  -20.0981  -46.8657 C.3       23 UNK        -0.0398 
     18 CA         -0.5935  -21.3217  -46.2759 C.3       11 UNK         0.1400 
     19 N          -0.4769  -21.2237  -44.8170 N.am      11 UNK        -0.5000 
     20 C           0.3237  -21.9904  -44.0636 C.2       10 UNK         0.5000 
     21 O           1.0518  -22.8713  -44.5185 O.2       10 UNK        -0.5000 
     22 CA          0.2675  -21.7608  -42.5455 C.3       10 UNK         0.1400 
     23 CB          1.1200  -20.5475  -42.1399 C.3       10 UNK        -0.1800 
     24 N          -1.1127  -21.5787  -42.0965 N.am      10 UNK        -0.5000 
     25 C          -1.9793  -22.5878  -41.9224 C.2       9 UNK         0.5000 
     26 O          -1.6743  -23.7747  -42.0407 O.2       9 UNK        -0.5000 
     27 CA         -3.4363  -22.2173  -41.5786 C.3       9 UNK         0.1400 
     28 CB         -3.6348  -22.1783  -40.0560 C.3       9 UNK        -0.1800 
     29 N          -3.8668  -20.9395  -42.1490 N.am      9 UNK        -0.5000 
     30 C          -3.9850  -20.6880  -43.4604 C.2       8 UNK         0.5000 
     31 O          -3.7625  -21.5190  -44.3366 O.2       8 UNK        -0.5000 
     32 CA         -4.3401  -19.2451  -43.8631 C.3       8 UNK         0.1400 
     33 CB         -5.8632  -19.0610  -43.9243 C.3       8 UNK        -0.1800 
     34 N          -3.7548  -18.2367  -42.9736 N.am      8 UNK        -0.5000 
     35 C          -2.4395  -18.0884  -42.7685 C.2       7 UNK         0.5000 
     36 O          -1.5832  -18.8147  -43.2799 O.2       7 UNK        -0.5000 
     37 CA         -2.0073  -16.9864  -41.7901 C.3       7 UNK         0.1400 
     38 CB         -1.3666  -17.5990  -40.5346 C.3       7 UNK        -0.1800 
     39 N          -1.0416  -16.1147  -42.4472 N.am      7 UNK        -0.5000 
     40 C          -1.3705  -15.1150  -43.2748 C.2       6 UNK         0.5000 
     41 O          -2.5225  -14.7081  -43.4300 O.2       6 UNK        -0.5000 
     42 CA         -0.2227  -14.4604  -44.0689 C.3       6 UNK         0.1400 
     43 CB          0.2517  -13.1737  -43.3775 C.3       6 UNK        -0.1800 
     44 N           0.9327  -15.3335  -44.2920 N.am      6 UNK        -0.5000 
     45 C           0.9190  -16.4700  -45.0012 C.2       5 UNK         0.5000 
     46 O          -0.0925  -16.9421  -45.5135 O.2       5 UNK        -0.5000 
     47 CA          2.2789  -17.1677  -45.1842 C.3       5 UNK         0.1400 
     48 CB          2.1568  -18.5446  -45.8612 C.3       5 UNK        -0.1800 
     49 N           3.1773  -16.3351  -45.9794 N.am      5 UNK        -0.5000 
     50 C           3.9068  -15.3069  -45.5275 C.2       4 UNK         0.5000 
     51 O           3.8907  -14.9382  -44.3512 O.2       4 UNK        -0.5000 
     52 CA          4.7731  -14.5530  -46.5628 C.3       4 UNK         0.1400 
     53 CB          6.0893  -14.0223  -45.9589 C.3       4 UNK        -0.1800 
     54 N           5.0309  -15.3124  -47.7940 N.am      4 UNK        -0.5000 
     55 C           5.6899  -16.4772  -47.9182 C.2       3 UNK         0.5000 
     56 O           6.2257  -17.0674  -46.9801 O.2       3 UNK        -0.5000 
     57 CA          5.7256  -17.1185  -49.3204 C.3       3 UNK         0.1400 
     58 CB          4.7038  -18.2648  -49.4009 C.3       3 UNK        -0.1800 
     59 N           5.4475  -16.1698  -50.3992 N.am      3 UNK        -0.5000 
     60 C           6.2977  -15.2282  -50.8305 C.2       2 UNK         0.5000 
     61 O           7.4490  -15.1016  -50.4126 O.2       2 UNK        -0.5000 
     62 CA          5.7601  -14.2484  -51.8924 C.3       2 UNK         0.1400 
     63 CB          6.1508  -14.7171  -53.3025 C.3       2 UNK        -0.1800 
     64 N           4.3058  -14.0537  -51.8376 N.am      2 UNK        -0.5000 
     65 C           3.6493  -13.4834  -50.8173 C.2       1 UNK         0.5000 
     66 O           4.1998  -13.1048  -49.7806 O.2       1 UNK        -0.5000 
     67 C          -1.2086  -22.6683  -46.7294 C.2       11 UNK         0.5000 
     68 O          -0.8229  -23.2104  -47.7675 O.2       11 UNK        -0.5000 
     69 N          -2.1231  -23.2167  -45.9161 N.am      12 UNK        -0.5000 
     70 CA         -2.7724  -24.5150  -46.1039 C.3       12 UNK         0.1400 
     71 CB         -3.8713  -24.6956  -45.0462 C.3       12 UNK        -0.1800 
     72 C          -1.8104  -25.7154  -46.0801 C.2       12 UNK         0.5000 
     73 O          -2.1214  -26.7329  -46.6983 O.2       12 UNK        -0.5000 
     74 N          -0.6468  -25.5787  -45.4267 N.am      13 UNK        -0.5000 
     75 CA          0.4033  -26.6029  -45.3948 C.3       13 UNK         0.1400 
     76 CB          1.4713  -26.2109  -44.3633 C.3       13 UNK        -0.1800 
     77 C           1.0466  -26.8550  -46.7746 C.2       13 UNK         0.5000 
     78 O           1.5364  -27.9571  -47.0223 O.2       13 UNK        -0.5000 
     79 N           1.0031  -25.8437  -47.6524 N.am      14 UNK        -0.5000 
     80 CA          1.4333  -25.9161  -49.0491 C.3       14 UNK         0.1400 
     81 CB          2.1642  -24.6055  -49.3891 C.3       14 UNK        -0.1800 
     82 C           0.2474  -26.1389  -50.0124 C.2       14 UNK         0.5000 
     83 O           0.4584  -26.1486  -51.2250 O.2       14 UNK        -0.5000 
     84 N          -0.9773  -26.2539  -49.4695 N.am      15 UNK        -0.5000 
     85 CA         -2.2831  -26.2804  -50.1485 C.3       15 UNK         0.1400 
     86 CB         -2.3989  -27.4817  -51.1071 C.3       15 UNK        -0.1800 
     87 C          -2.6591  -24.9520  -50.8421 C.2       15 UNK         0.5000 
     88 O          -3.7011  -24.8725  -51.4965 O.2       15 UNK        -0.5000 
     89 N          -1.8378  -23.9105  -50.6609 N.am      16 UNK        -0.5000 
     90 CA         -1.9821  -22.6016  -51.2901 C.3       16 UNK         0.1400 
     91 CB         -0.6634  -21.8316  -51.1590 C.3       16 UNK        -0.1800 
     92 C          -3.1859  -21.8016  -50.7661 C.2       16 UNK         0.5000 
     93 O          -3.7038  -20.9583  -51.4959 O.2       16 UNK        -0.5000 
     94 N          -3.6689  -22.1237  -49.5570 N.am      17 UNK        -0.5000 
     95 CA         -4.9259  -21.6059  -49.0054 C.3       17 UNK         0.1400 
     96 CB         -5.0795  -22.0578  -47.5482 C.3       17 UNK        -0.1800 
     97 C          -6.1693  -22.0212  -49.8177 C.2       17 UNK         0.5000 
     98 O          -7.1585  -21.2895  -49.8129 O.2       17 UNK        -0.5000 
     99 N          -6.0943  -23.1709  -50.5016 N.am      18 UNK        -0.5000 
    100 CA        -7.1316  -23.6576  -51.4063 C.3       18 UNK         0.1400 
    101 CB        -7.2491  -25.1844  -51.2709 C.3       18 UNK        -0.1800 
    102 C         -6.8232  -23.2630  -52.8593 C.2       18 UNK         0.5000 
    103 O         -7.7266  -22.8206  -53.5696 O.2       18 UNK        -0.5000 
    104 N         -5.5630  -23.4448  -53.2819 N.am      19 UNK        -0.5000 
    105 CA        -5.1343  -23.2652  -54.6705 C.3       19 UNK         0.1400 
    106 CB        -3.7850  -23.9686  -54.8814 C.3       19 UNK        -0.1800 
    107 C         -5.0598  -21.7965  -55.1311 C.2       19 UNK         0.5000 
    108 O         -5.2996  -21.5343  -56.3108 O.2       19 UNK        -0.5000 
    109 N         -4.7228  -20.8758  -54.2186 N.am      20 UNK        -0.5000 
    110 CA        -4.5693  -19.4453  -54.4990 C.3       20 UNK         0.1400 
    111 CB        -3.0854  -19.0596  -54.3770 C.3       20 UNK        -0.1800 
    112 C         -5.4337  -18.5831  -53.5653 C.2       20 UNK         0.5000 
    113 O         -6.0327  -17.6122  -54.0306 O.2       20 UNK        -0.5000 
    114 N         -5.4898  -18.9608  -52.2799 N.am      21 UNK        -0.5000 
    115 CA        -6.1565  -18.2701  -51.1713 C.3       21 UNK         0.1400 
    116 CB        -7.6774  -18.1569  -51.4171 C.3       21 UNK        -0.1800 
    117 C         -5.4944  -16.9215  -50.8141 C.2       21 UNK         0.5000 
    118 O         -4.4159  -16.6007  -51.3187 O.2       21 UNK        -0.5000 
    119 N         -6.1339  -16.1753  -49.9055 N.am      22 UNK        -0.5000 
    120 CA        -5.6269  -14.9061  -49.3533 C.3       22 UNK         0.1400 
    121 C         -5.7478  -13.6779  -50.3043 C.2       22 UNK         0.5000 
    122 N         -6.3836  -13.7884  -51.4644 N.am      22 UNK        -0.7600 
    123 O         -5.2525  -12.6009  -49.9842 O.2       22 UNK        -0.5000 
    124 C124       -6.2376  -14.5851  -47.9598 C.3       23 UNK        -0.0398 
    125 S125       -6.1906  -15.9761  -46.7724 S.3       23 UNK        -0.2404 
    126 C126       -4.5918  -15.7094  -45.9374 C.3       23 UNK        -0.0205 
    127 H127        2.2827   -8.9399  -50.2483 H         1 UNK         0.0600 
    128 H128        0.9500   -9.8122  -49.4859 H         1 UNK         0.0600 
    129 H129        0.7227   -9.0636  -51.0690 H         1 UNK         0.0600 
    130 H130        1.2589  -12.0186  -49.5861 H         1 UNK         0.3000 
    131 H131        1.8907  -13.4029  -52.0366 H         1 UNK         0.0600 
    132 H132        0.3394  -14.5335  -50.6674 H         1 UNK         0.0800 
    133 H133        1.7923  -15.4639  -50.5363 H         1 UNK         0.0800 
    134 H134       -0.4740  -13.2230  -47.3115 H         1 UNK         0.0800 
    135 H135       -0.7998  -13.2566  -49.0223 H         1 UNK         0.0800 
    136 H136       -2.6434  -13.9233  -46.5940 H         1 UNK         0.1150 
    137 H137       -3.9304  -17.9359  -47.3571 H         1 UNK         0.1150 
    138 H138       -0.4789  -16.3965  -49.3555 H         1 UNK         0.1150 
    139 H139       -2.9344  -19.1916  -49.1571 H         1 UNK         0.0800 
    140 H140       -1.8015  -18.4128  -50.2264 H         1 UNK         0.0800 
    141 H141       -2.4126  -20.2757  -46.9492 H         1 UNK         0.0800 
    142 H142       -1.2372  -19.2343  -46.2068 H         1 UNK         0.0800 
    143 H143        0.4320  -21.3107  -46.6523 H         1 UNK         0.0600 
    144 H144       -1.0188  -20.4970  -44.3611 H         1 UNK         0.3000 
    145 H145        0.6862  -22.6420  -42.0543 H         1 UNK         0.0600 
    146 H146        2.1658  -20.7046  -42.4064 H         1 UNK         0.0600 
    147 H147        1.0807  -20.3801  -41.0635 H         1 UNK         0.0600 
    148 H148        0.7953  -19.6321  -42.6342 H         1 UNK         0.0600 
    149 H149       -1.4504  -20.6265  -42.0508 H         1 UNK         0.3000 
    150 H150       -4.0790  -22.9996  -41.9881 H         1 UNK         0.0600 
    151 H151       -3.0348  -21.3946  -39.5916 H         1 UNK         0.0600 
    152 H152       -3.3463  -23.1265  -39.6002 H         1 UNK         0.0600 
    153 H153       -4.6790  -22.0003  -39.7984 H         1 UNK         0.0600 
    154 H154       -4.0614  -20.1931  -41.4984 H         1 UNK         0.3000 
    155 H155       -3.9356  -19.0762  -44.8635 H         1 UNK         0.0600 
    156 H156       -6.3255  -19.1961  -42.9458 H         1 UNK         0.0600 
    157 H157       -6.3152  -19.7845  -44.6043 H         1 UNK         0.0600 
    158 H158       -6.1301  -18.0686  -44.2872 H         1 UNK         0.0600 
    159 H159       -4.3996  -17.6113  -42.5121 H         1 UNK         0.3000 
    160 H160       -2.8789  -16.4046  -41.4825 H         1 UNK         0.0600 
    161 H161       -0.4771  -18.1823  -40.7757 H         1 UNK         0.0600 
    162 H162       -2.0654  -18.2622  -40.0231 H         1 UNK         0.0600 
    163 H163       -1.0751  -16.8246  -39.8249 H         1 UNK         0.0600 
    164 H164       -0.0780  -16.4121  -42.4248 H         1 UNK         0.3000 
    165 H165       -0.6212  -14.1917  -45.0476 H         1 UNK         0.0600 
    166 H166        0.9967  -12.6539  -43.9804 H         1 UNK         0.0600 
    167 H167       -0.5789  -12.4836  -43.2228 H         1 UNK         0.0600 
    168 H168        0.6932  -13.3815  -42.4021 H         1 UNK         0.0600 
    169 H169        1.8291  -15.0050  -43.9510 H         1 UNK         0.3000 
    170 H170        2.7101  -17.3211  -44.1928 H         1 UNK         0.0600 
    171 H171        3.1270  -19.0356  -45.9373 H         1 UNK         0.0600 
    172 H172        1.7416  -18.4642  -46.8666 H         1 UNK         0.0600 
    173 H173        1.5037  -19.2017  -45.2871 H         1 UNK         0.0600 
    174 H174        3.2043  -16.5295  -46.9686 H         1 UNK         0.3000 
    175 H175        4.1820  -13.6883  -46.8681 H         1 UNK         0.0600 
    176 H176        5.8933  -13.3272  -45.1418 H         1 UNK         0.0600 
    177 H177        6.7070  -14.8274  -45.5604 H         1 UNK         0.0600 
    178 H178        6.6760  -13.4859  -46.7048 H         1 UNK         0.0600 
    179 H179        4.6621  -14.8829  -48.6340 H         1 UNK         0.3000 
    180 H180        6.7241  -17.5349  -49.4695 H         1 UNK         0.0600 
    181 H181        3.6820  -17.9058  -49.2701 H         1 UNK         0.0600 
    182 H182        4.8898  -19.0106  -48.6267 H         1 UNK         0.0600 
    183 H183        4.7599  -18.7766  -50.3618 H         1 UNK         0.0600 
    184 H184        4.5305  -16.2123  -50.8178 H         1 UNK         0.3000 
    185 H185        6.2333  -13.2810  -51.7113 H         1 UNK         0.0600 
    186 H186        7.2307  -14.8464  -53.3862 H         1 UNK         0.0600 
    187 H187        5.6857  -15.6713  -53.5532 H         1 UNK         0.0600 
    188 H188        5.8536  -13.9888  -54.0573 H         1 UNK         0.0600 
    189 H189        3.7890  -14.3368  -52.6581 H         1 UNK         0.3000 
    190 H190       -2.4550  -22.6666  -45.1284 H         1 UNK         0.3000 
    191 H191       -3.2428  -24.5085  -47.0884 H         1 UNK         0.0600 
    192 H192       -4.6348  -23.9226  -45.1296 H         1 UNK         0.0600 
    193 H193       -4.3743  -25.6566  -45.1615 H         1 UNK         0.0600 
    194 H194       -3.4643  -24.6567  -44.0355 H         1 UNK         0.0600 
    195 H195       -0.4443  -24.7036  -44.9613 H         1 UNK         0.3000 
    196 H196       -0.0548  -27.5391  -45.0687 H         1 UNK         0.0600 
    197 H197        2.1997  -27.0125  -44.2356 H         1 UNK         0.0600 
    198 H198        1.0281  -26.0142  -43.3868 H         1 UNK         0.0600 
    199 H199        2.0197  -25.3202  -44.6705 H         1 UNK         0.0600 
    200 H200        0.5717  -24.9729  -47.3669 H         1 UNK         0.3000 
    201 H201        2.1306  -26.7442  -49.1900 H         1 UNK         0.0600 
    202 H202        2.5492  -24.6209  -50.4095 H         1 UNK         0.0600 
    203 H203        3.0151  -24.4466  -48.7264 H         1 UNK         0.0600 
    204 H204        1.5052  -23.7408  -49.2996 H         1 UNK         0.0600 
    205 H205       -1.0343  -26.2842  -48.4588 H         1 UNK         0.3000 
    206 H206       -3.0238  -26.4212  -49.3605 H         1 UNK         0.0600 
    207 H207       -2.1395  -28.4135  -50.6048 H         1 UNK         0.0600 
    208 H208       -3.4193  -27.5869  -51.4776 H         1 UNK         0.0600 
    209 H209       -1.7500  -27.3749  -51.9765 H         1 UNK         0.0600 
    210 H210       -1.0431  -24.0291  -50.0483 H         1 UNK         0.3000 
    211 H211       -2.1587  -22.7578  -52.3540 H         1 UNK         0.0600 
    212 H212       -0.2943  -21.8433  -50.1347 H         1 UNK         0.0600 
    213 H213       -0.7744  -20.7911  -51.4677 H         1 UNK         0.0600 
    214 H214        0.1087  -22.2763  -51.7869 H         1 UNK         0.0600 
    215 H215       -3.1741  -22.8194  -49.0187 H         1 UNK         0.3000 
    216 H216       -4.8733  -20.5167  -49.0149 H         1 UNK         0.0600 
    217 H217       -5.9768  -21.6300  -47.0992 H         1 UNK         0.0600 
    218 H218       -4.2368  -21.7342  -46.9423 H         1 UNK         0.0600 
    219 H219       -5.1626  -23.1416  -47.4703 H         1 UNK         0.0600 
    220 H220       -5.2339  -23.7023  -50.4785 H         1 UNK         0.3000 
    221 H221       -8.0986  -23.2261  -51.1386 H         1 UNK         0.0600 
    222 H222       -6.3176  -25.6904  -51.5267 H         1 UNK         0.0600 
    223 H223       -7.5141  -25.4684  -50.2524 H         1 UNK         0.0600 
    224 H224       -8.0258  -25.5750  -51.9296 H         1 UNK         0.0600 
    225 H225       -4.8881  -23.8632  -52.6488 H         1 UNK         0.3000 
    226 H226       -5.8663  -23.7658  -55.3082 H         1 UNK         0.0600 
    227 H227       -3.4925  -23.9401  -55.9318 H         1 UNK         0.0600 
    228 H228       -2.9880  -23.4958  -54.3103 H         1 UNK         0.0600 
    229 H229       -3.8336  -25.0170  -54.5860 H         1 UNK         0.0600 
    230 H230       -4.5407  -21.1675  -53.2650 H         1 UNK         0.3000 
    231 H231       -4.8889  -19.2191  -55.5183 H         1 UNK         0.0600 
    232 H232       -2.6965  -19.2542  -53.3769 H         1 UNK         0.0600 
    233 H233       -2.9404  -17.9985  -54.5836 H         1 UNK         0.0600 
    234 H234       -2.4750  -19.6168  -55.0876 H         1 UNK         0.0600 
    235 H235       -4.8806  -19.7244  -51.9949 H         1 UNK         0.3000 
    236 H236       -6.0117  -18.9063  -50.2997 H         1 UNK         0.0600 
    237 H237       -8.0928  -19.1125  -51.7379 H         1 UNK         0.0600 
    238 H238       -8.2069  -17.8727  -50.5075 H         1 UNK         0.0600 
    239 H239       -7.9150  -17.4152  -52.1799 H         1 UNK         0.0600 
    240 H240       -7.0067  -16.5038  -49.5200 H         1 UNK         0.3000 
    241 H241       -4.5536  -15.0340  -49.2105 H         1 UNK         0.0600 
    242 H242       -6.4523  -12.9870  -52.0719 H         1 UNK         0.3800 
    243 H243       -6.7779  -14.6703  -51.7497 H         1 UNK         0.3800 
    244 H244       -7.2824  -14.2909  -48.0719 H         1 UNK         0.0800 
    245 H245       -5.7324  -13.7277  -47.5115 H         1 UNK         0.0800 
    246 H246       -4.4967  -16.4119  -45.1101 H         1 UNK         0.0800 
    247 H247       -4.5781  -14.7130  -45.4929 H         1 UNK         0.0800 
@<TRIPOS>BOND
     1    1    2 1    
     2    1  127 1    
     3    1  128 1    
     4    1  129 1    
     5    2    3 2    
     6    2    4 am   BACKBONE|DICT|INTERRES
     7    4    5 1    
     8    4  130 1    
     9    5    6 1    
    10    5   65 1    
    11    5  131 1    
    12    6    7 1    
    13    6  132 1    
    14    6  133 1    
    15    7    8 1    
    16    8    9 1    
    17    8  134 1    
    18    8  135 1    
    19    9   10 ar   
    20    9   14 ar   
    21   10   11 ar   
    22   10  136 1    
    23   11   12 ar   
    24   11  126 1    
    25   12   13 ar   
    26   12  137 1    
    27   13   14 ar   
    28   13   15 1    
    29   14  138 1    
    30   15   16 1    
    31   15  139 1    
    32   15  140 1    
    33   16   17 1    
    34   17   18 1    
    35   17  141 1    
    36   17  142 1    
    37   18   19 1    
    38   18   67 1    
    39   18  143 1    
    40   19   20 am   BACKBONE|DICT|INTERRES
    41   19  144 1    
    42   20   21 2    
    43   20   22 1    
    44   22   23 1    
    45   22   24 1    
    46   22  145 1    
    47   23  146 1    
    48   23  147 1    
    49   23  148 1    
    50   24   25 am   BACKBONE|DICT|INTERRES
    51   24  149 1    
    52   25   26 2    
    53   25   27 1    
    54   27   28 1    
    55   27   29 1    
    56   27  150 1    
    57   28  151 1    
    58   28  152 1    
    59   28  153 1    
    60   29   30 am   BACKBONE|DICT|INTERRES
    61   29  154 1    
    62   30   31 2    
    63   30   32 1    
    64   32   33 1    
    65   32   34 1    
    66   32  155 1    
    67   33  156 1    
    68   33  157 1    
    69   33  158 1    
    70   34   35 am   BACKBONE|DICT|INTERRES
    71   34  159 1    
    72   35   36 2    
    73   35   37 1    
    74   37   38 1    
    75   37   39 1    
    76   37  160 1    
    77   38  161 1    
    78   38  162 1    
    79   38  163 1    
    80   39   40 am   BACKBONE|DICT|INTERRES
    81   39  164 1    
    82   40   41 2    
    83   40   42 1    
    84   42   43 1    
    85   42   44 1    
    86   42  165 1    
    87   43  166 1    
    88   43  167 1    
    89   43  168 1    
    90   44   45 am   BACKBONE|DICT|INTERRES
    91   44  169 1    
    92   45   46 2    
    93   45   47 1    
    94   47   48 1    
    95   47   49 1    
    96   47  170 1    
    97   48  171 1    
    98   48  172 1    
    99   48  173 1    
   100   49   50 am   BACKBONE|DICT|INTERRES
   101   49  174 1    
   102   50   51 2    
   103   50   52 1    
   104   52   53 1    
   105   52   54 1    
   106   52  175 1    
   107   53  176 1    
   108   53  177 1    
   109   53  178 1    
   110   54   55 am   BACKBONE|DICT|INTERRES
   111   54  179 1    
   112   55   56 2    
   113   55   57 1    
   114   57   58 1    
   115   57   59 1    
   116   57  180 1    
   117   58  181 1    
   118   58  182 1    
   119   58  183 1    
   120   59   60 am   BACKBONE|DICT|INTERRES
   121   59  184 1    
   122   60   61 2    
   123   60   62 1    
   124   62   63 1    
   125   62   64 1    
   126   62  185 1    
   127   63  186 1    
   128   63  187 1    
   129   63  188 1    
   130   64   65 am   BACKBONE|DICT|INTERRES
   131   64  189 1    
   132   65   66 2    
   133   67   68 2    
   134   67   69 am   BACKBONE|DICT|INTERRES
   135   69   70 1    
   136   69  190 1    
   137   70   71 1    
   138   70   72 1    
   139   70  191 1    
   140   71  192 1    
   141   71  193 1    
   142   71  194 1    
   143   72   73 2    
   144   72   74 am   BACKBONE|DICT|INTERRES
   145   74   75 1    
   146   74  195 1    
   147   75   76 1    
   148   75   77 1    
   149   75  196 1    
   150   76  197 1    
   151   76  198 1    
   152   76  199 1    
   153   77   78 2    
   154   77   79 am   BACKBONE|DICT|INTERRES
   155   79   80 1    
   156   79  200 1    
   157   80   81 1    
   158   80   82 1    
   159   80  201 1    
   160   81  202 1    
   161   81  203 1    
   162   81  204 1    
   163   82   83 2    
   164   82   84 am   BACKBONE|DICT|INTERRES
   165   84   85 1    
   166   84  205 1    
   167   85   86 1    
   168   85   87 1    
   169   85  206 1    
   170   86  207 1    
   171   86  208 1    
   172   86  209 1    
   173   87   88 2    
   174   87   89 am   BACKBONE|DICT|INTERRES
   175   89   90 1    
   176   89  210 1    
   177   90   91 1    
   178   90   92 1    
   179   90  211 1    
   180   91  212 1    
   181   91  213 1    
   182   91  214 1    
   183   92   93 2    
   184   92   94 am   BACKBONE|DICT|INTERRES
   185   94   95 1    
   186   94  215 1    
   187   95   96 1    
   188   95   97 1    
   189   95  216 1    
   190   96  217 1    
   191   96  218 1    
   192   96  219 1    
   193   97   98 2    
   194   97   99 am   BACKBONE|DICT|INTERRES
   195   99  100 1    
   196   99  220 1    
   197  100  101 1    
   198  100  102 1    
   199  100  221 1    
   200  101  222 1    
   201  101  223 1    
   202  101  224 1    
   203  102  103 2    
   204  102  104 am   BACKBONE|DICT|INTERRES
   205  104  105 1    
   206  104  225 1    
   207  105  106 1    
   208  105  107 1    
   209  105  226 1    
   210  106  227 1    
   211  106  228 1    
   212  106  229 1    
   213  107  108 2    
   214  107  109 am   BACKBONE|DICT|INTERRES
   215  109  110 1    
   216  109  230 1    
   217  110  111 1    
   218  110  112 1    
   219  110  231 1    
   220  111  232 1    
   221  111  233 1    
   222  111  234 1    
   223  112  113 2    
   224  112  114 am   BACKBONE|DICT|INTERRES
   225  114  115 1    
   226  114  235 1    
   227  115  116 1    
   228  115  117 1    
   229  115  236 1    
   230  116  237 1    
   231  116  238 1    
   232  116  239 1    
   233  117  118 2    
   234  117  119 am   BACKBONE|DICT|INTERRES
   235  119  120 1    
   236  119  240 1    
   237  120  121 1    
   238  120  124 1    
   239  120  241 1    
   240  121  122 am   BACKBONE|DICT|INTERRES
   241  121  123 2    
   242  122  242 1    
   243  122  243 1    
   244  124  125 1    
   245  124  244 1    
   246  124  245 1    
   247  125  126 1    
   248  126  246 1    
   249  126  247 1    
@<TRIPOS>SUBSTRUCTURE
     1 UNK         1 GROUP             0       ****    0 ROOT    
