@<TRIPOS>MOLECULE
3R540
247   249    1
SMALL
USER_CHARGES


@<TRIPOS>ATOM
      1 CA          2.1689  -13.8795  -47.7657 C.3       0 UNK        -0.1800 
      2 C           3.6197  -14.3432  -47.7729 C.2       0 UNK         0.5000 
      3 O           4.4679  -13.6868  -48.3762 O.2       0 UNK        -0.5000 
      4 N           3.9050  -15.4731  -47.1176 N.am      1 UNK        -0.5000 
      5 CA          5.2091  -16.1391  -47.1409 C.3       1 UNK         0.1400 
      6 C6          5.4319  -16.9731  -48.4407 C.3       23 UNK        -0.0398 
      7 S7          3.9832  -17.9560  -48.9948 S.3       23 UNK        -0.2404 
      8 C8          3.5657  -17.0873  -50.5391 C.3       23 UNK        -0.0205 
      9 C9          2.1394  -17.3669  -50.9853 C.ar      23 UNK        -0.0193 
     10 C10         1.8585  -18.4075  -51.8751 C.ar      23 UNK        -0.1150 
     11 C11         0.5499  -18.6297  -52.3187 C.ar      23 UNK        -0.0193 
     12 C12        -0.4812  -17.8037  -51.8607 C.ar      23 UNK        -0.1150 
     13 C13        -0.2102  -16.7587  -50.9718 C.ar      23 UNK        -0.0193 
     14 C14         1.1000  -16.5504  -50.5350 C.ar      23 UNK        -0.1150 
     15 C15        -1.3251  -15.8408  -50.4934 C.3       23 UNK        -0.0205 
     16 S16        -2.4866  -16.6841  -49.3769 S.3       23 UNK        -0.2404 
     17 C17        -1.3970  -17.2003  -48.0011 C.3       23 UNK        -0.0398 
     18 CA         -0.9296  -18.6780  -48.0684 C.3       11 UNK         0.1400 
     19 N          -0.0714  -19.0263  -46.9355 N.am      11 UNK        -0.5000 
     20 C           0.5618  -20.1978  -46.7768 C.2       10 UNK         0.5000 
     21 O           0.5458  -21.1090  -47.6027 O.2       10 UNK        -0.5000 
     22 CA          1.2892  -20.4148  -45.4412 C.3       10 UNK         0.1400 
     23 CB          2.6528  -19.7168  -45.4537 C.3       10 UNK        -0.1800 
     24 N           0.5063  -19.9588  -44.2924 N.am      10 UNK        -0.5000 
     25 C          -0.6737  -20.4810  -43.9266 C.2       9 UNK         0.5000 
     26 O          -1.2096  -21.4294  -44.5003 O.2       9 UNK        -0.5000 
     27 CA         -1.3994  -19.8038  -42.7503 C.3       9 UNK         0.1400 
     28 CB         -0.7733  -20.2170  -41.4105 C.3       9 UNK        -0.1800 
     29 N          -1.4142  -18.3446  -42.8613 N.am      9 UNK        -0.5000 
     30 C          -2.0126  -17.6663  -43.8517 C.2       8 UNK         0.5000 
     31 O          -2.6471  -18.1983  -44.7626 O.2       8 UNK        -0.5000 
     32 CA         -1.8278  -16.1390  -43.8554 C.3       8 UNK         0.1400 
     33 CB         -2.7596  -15.4658  -42.8370 C.3       8 UNK        -0.1800 
     34 N          -0.4463  -15.7475  -43.5865 N.am      8 UNK        -0.5000 
     35 C           0.6033  -16.0500  -44.3631 C.2       7 UNK         0.5000 
     36 O           0.5289  -16.6570  -45.4303 O.2       7 UNK        -0.5000 
     37 CA          1.9775  -15.6294  -43.8271 C.3       7 UNK         0.1400 
     38 CB          2.1956  -14.1213  -44.0446 C.3       7 UNK        -0.1800 
     39 N           2.1153  -15.9664  -42.4101 N.am      7 UNK        -0.5000 
     40 C           2.1802  -17.2180  -41.9297 C.2       6 UNK         0.5000 
     41 O           2.1759  -18.2211  -42.6412 O.2       6 UNK        -0.5000 
     42 CA          2.1803  -17.3884  -40.3994 C.3       6 UNK         0.1400 
     43 CB          3.6064  -17.4888  -39.8406 C.3       6 UNK        -0.1800 
     44 N           1.4563  -16.3117  -39.7259 N.am      6 UNK        -0.5000 
     45 C           0.1212  -16.1914  -39.7489 C.2       5 UNK         0.5000 
     46 O          -0.6267  -17.0065  -40.2900 O.2       5 UNK        -0.5000 
     47 CA         -0.4747  -14.9214  -39.1144 C.3       5 UNK         0.1400 
     48 CB         -0.7286  -15.1339  -37.6149 C.3       5 UNK        -0.1800 
     49 N           0.3633  -13.7344  -39.3010 N.am      5 UNK        -0.5000 
     50 C           0.6846  -13.2033  -40.4887 C.2       4 UNK         0.5000 
     51 O           0.2905  -13.6648  -41.5595 O.2       4 UNK        -0.5000 
     52 CA          1.5993  -11.9602  -40.4939 C.3       4 UNK         0.1400 
     53 CB          1.6735  -11.2444  -39.1265 C.3       4 UNK        -0.1800 
     54 N           2.9582  -12.2266  -40.9876 N.am      4 UNK        -0.5000 
     55 C           3.8299  -13.1378  -40.5290 C.2       3 UNK         0.5000 
     56 O           3.5358  -14.0254  -39.7263 O.2       3 UNK        -0.5000 
     57 CA          5.2801  -12.9842  -41.0361 C.3       3 UNK         0.1400 
     58 CB          6.3199  -13.5923  -40.0695 C.3       3 UNK        -0.1800 
     59 N           5.4752  -13.4528  -42.4156 N.am      3 UNK        -0.5000 
     60 C           5.5093  -14.7189  -42.8573 C.2       2 UNK         0.5000 
     61 O           5.3535  -15.7089  -42.1401 O.2       2 UNK        -0.5000 
     62 CA          5.7979  -14.9147  -44.3599 C.3       2 UNK         0.1400 
     63 CB          7.2483  -14.4993  -44.6809 C.3       2 UNK        -0.1800 
     64 N           5.6061  -16.3305  -44.6703 N.am      2 UNK        -0.5000 
     65 C           5.4030  -16.9519  -45.8402 C.2       1 UNK         0.5000 
     66 O           5.3433  -18.1779  -45.8843 O.2       1 UNK        -0.5000 
     67 C          -2.1024  -19.6703  -48.1998 C.2       11 UNK         0.5000 
     68 O          -2.2770  -20.2507  -49.2694 O.2       11 UNK        -0.5000 
     69 N          -2.8472  -19.8872  -47.1052 N.am      12 UNK        -0.5000 
     70 CA         -3.9752  -20.8180  -47.0442 C.3       12 UNK         0.1400 
     71 CB         -4.6490  -20.7248  -45.6676 C.3       12 UNK        -0.1800 
     72 C          -3.5832  -22.2717  -47.3627 C.2       12 UNK         0.5000 
     73 O          -4.3154  -22.9478  -48.0861 O.2       12 UNK        -0.5000 
     74 N          -2.4266  -22.7134  -46.8508 N.am      13 UNK        -0.5000 
     75 CA         -1.8482  -24.0255  -47.1312 C.3       13 UNK         0.1400 
     76 CB         -0.6599  -24.2800  -46.1912 C.3       13 UNK        -0.1800 
     77 C          -1.4322  -24.1820  -48.6048 C.2       13 UNK         0.5000 
     78 O          -1.8173  -25.1637  -49.2401 O.2       13 UNK        -0.5000 
     79 N          -0.6813  -23.2049  -49.1318 N.am      14 UNK        -0.5000 
     80 CA         -0.1757  -23.1967  -50.5063 C.3       14 UNK         0.1400 
     81 CB          0.8822  -22.0948  -50.6518 C.3       14 UNK        -0.1800 
     82 C          -1.2855  -23.0418  -51.5635 C.2       14 UNK         0.5000 
     83 O          -1.1936  -23.6443  -52.6329 O.2       14 UNK        -0.5000 
     84 N          -2.3308  -22.2707  -51.2363 N.am      15 UNK        -0.5000 
     85 CA         -3.5402  -22.1071  -52.0431 C.3       15 UNK         0.1400 
     86 CB         -4.2208  -20.7838  -51.6616 C.3       15 UNK        -0.1800 
     87 C          -4.5329  -23.2789  -51.9085 C.2       15 UNK         0.5000 
     88 O          -5.5535  -23.2695  -52.6017 O.2       15 UNK        -0.5000 
     89 N          -4.2393  -24.2440  -51.0236 N.am      16 UNK        -0.5000 
     90 CA         -5.0166  -25.4482  -50.7182 C.3       16 UNK         0.1400 
     91 CB         -5.0024  -26.4148  -51.9208 C.3       16 UNK        -0.1800 
     92 C          -6.4393  -25.1136  -50.2314 C.2       16 UNK         0.5000 
     93 O          -7.4167  -25.6219  -50.7792 O.2       16 UNK        -0.5000 
     94 N          -6.5310  -24.2019  -49.2521 N.am      17 UNK        -0.5000 
     95 CA         -7.7663  -23.6240  -48.7045 C.3       17 UNK         0.1400 
     96 CB         -8.5733  -24.6856  -47.9288 C.3       17 UNK        -0.1800 
     97 C          -8.6030  -22.8903  -49.7774 C.2       17 UNK         0.5000 
     98 O          -9.8338  -22.9165  -49.7362 O.2       17 UNK        -0.5000 
     99 N          -7.8930  -22.2690  -50.7302 N.am      18 UNK        -0.5000 
    100 CA        -8.3805  -21.5704  -51.9219 C.3       18 UNK         0.1400 
    101 CB        -9.3197  -20.4029  -51.5546 C.3       18 UNK        -0.1800 
    102 C         -8.9699  -22.4955  -53.0089 C.2       18 UNK         0.5000 
    103 O         -9.5891  -21.9898  -53.9458 O.2       18 UNK        -0.5000 
    104 N         -8.7458  -23.8161  -52.9126 N.am      19 UNK        -0.5000 
    105 CA        -9.1299  -24.7789  -53.9488 C.3       19 UNK         0.1400 
    106 CB        -9.1597  -26.2002  -53.3682 C.3       19 UNK        -0.1800 
    107 C         -8.1941  -24.7147  -55.1694 C.2       19 UNK         0.5000 
    108 O         -8.6673  -24.8396  -56.2997 O.2       19 UNK        -0.5000 
    109 N         -6.8933  -24.5024  -54.9230 N.am      20 UNK        -0.5000 
    110 CA        -5.8872  -24.2691  -55.9609 C.3       20 UNK         0.1400 
    111 CB        -4.5476  -24.8847  -55.5267 C.3       20 UNK        -0.1800 
    112 C         -5.7241  -22.7665  -56.2475 C.2       20 UNK         0.5000 
    113 O         -5.3582  -22.3988  -57.3647 O.2       20 UNK        -0.5000 
    114 N         -5.9801  -21.9275  -55.2294 N.am      21 UNK        -0.5000 
    115 CA        -5.9930  -20.4566  -55.2611 C.3       21 UNK         0.1400 
    116 CB        -7.1503  -19.9530  -56.1473 C.3       21 UNK        -0.1800 
    117 C         -4.6393  -19.8162  -55.6440 C.2       21 UNK         0.5000 
    118 O         -4.6040  -18.6545  -56.0515 O.2       21 UNK        -0.5000 
    119 N         -3.5531  -20.5897  -55.5125 N.am      22 UNK        -0.5000 
    120 CA        -2.1992  -20.2721  -55.9914 C.3       22 UNK         0.1400 
    121 C         -2.0622  -20.2647  -57.5490 C.2       22 UNK         0.5000 
    122 N         -2.9795  -20.8689  -58.2978 N.am      22 UNK        -0.7600 
    123 O         -1.1029  -19.7284  -58.0961 O.2       22 UNK        -0.5000 
    124 C124       -1.5951  -19.0160  -55.2953 C.3       23 UNK        -0.0398 
    125 S125        0.2016  -19.1781  -55.0132 S.3       23 UNK        -0.2404 
    126 C126        0.2582  -19.7625  -53.2912 C.3       23 UNK        -0.0205 
    127 H127        2.0718  -12.9532  -47.1996 H         1 UNK         0.0600 
    128 H128        1.5060  -14.6249  -47.3249 H         1 UNK         0.0600 
    129 H129        1.8320  -13.6865  -48.7839 H         1 UNK         0.0600 
    130 H130        3.1679  -15.9947  -46.6647 H         1 UNK         0.3000 
    131 H131        5.9838  -15.3735  -47.1359 H         1 UNK         0.0600 
    132 H132        5.7211  -16.2937  -49.2432 H         1 UNK         0.0800 
    133 H133        6.2843  -17.6456  -48.3305 H         1 UNK         0.0800 
    134 H134        4.2708  -17.3806  -51.3182 H         1 UNK         0.0800 
    135 H135        3.6913  -16.0121  -50.4028 H         1 UNK         0.0800 
    136 H136        2.6614  -19.0385  -52.2297 H         1 UNK         0.1150 
    137 H137       -1.4954  -17.9701  -52.1942 H         1 UNK         0.1150 
    138 H138        1.3160  -15.7442  -49.8501 H         1 UNK         0.1150 
    139 H139       -0.9187  -14.9625  -49.9892 H         1 UNK         0.0800 
    140 H140       -1.8757  -15.4680  -51.3582 H         1 UNK         0.0800 
    141 H141       -1.9373  -17.0203  -47.0716 H         1 UNK         0.0800 
    142 H142       -0.5295  -16.5401  -47.9680 H         1 UNK         0.0800 
    143 H143       -0.3167  -18.7919  -48.9646 H         1 UNK         0.0600 
    144 H144        0.0378  -18.3125  -46.2204 H         1 UNK         0.3000 
    145 H145        1.4586  -21.4872  -45.3250 H         1 UNK         0.0600 
    146 H146        3.2255  -19.9487  -44.5558 H         1 UNK         0.0600 
    147 H147        3.2483  -20.0362  -46.3100 H         1 UNK         0.0600 
    148 H148        2.5497  -18.6330  -45.5134 H         1 UNK         0.0600 
    149 H149        0.9086  -19.2035  -43.7449 H         1 UNK         0.3000 
    150 H150       -2.4363  -20.1462  -42.7591 H         1 UNK         0.0600 
    151 H151       -0.7944  -21.3006  -41.2885 H         1 UNK         0.0600 
    152 H152       -1.3164  -19.7840  -40.5703 H         1 UNK         0.0600 
    153 H153        0.2666  -19.8993  -41.3372 H         1 UNK         0.0600 
    154 H154       -0.9524  -17.8259  -42.1214 H         1 UNK         0.3000 
    155 H155       -2.0896  -15.7728  -44.8501 H         1 UNK         0.0600 
    156 H156       -2.5393  -15.7799  -41.8166 H         1 UNK         0.0600 
    157 H157       -3.8021  -15.7142  -43.0394 H         1 UNK         0.0600 
    158 H158       -2.6690  -14.3801  -42.8783 H         1 UNK         0.0600 
    159 H159       -0.2771  -15.2007  -42.7481 H         1 UNK         0.3000 
    160 H160        2.7478  -16.1778  -44.3712 H         1 UNK         0.0600 
    161 H161        2.9226  -13.7072  -43.3538 H         1 UNK         0.0600 
    162 H162        1.2793  -13.5424  -43.9268 H         1 UNK         0.0600 
    163 H163        2.5634  -13.9253  -45.0474 H         1 UNK         0.0600 
    164 H164        2.0653  -15.2021  -41.7517 H         1 UNK         0.3000 
    165 H165        1.6762  -18.3306  -40.1765 H         1 UNK         0.0600 
    166 H166        3.5957  -17.7273  -38.7771 H         1 UNK         0.0600 
    167 H167        4.1694  -18.2744  -40.3461 H         1 UNK         0.0600 
    168 H168        4.1587  -16.5589  -39.9671 H         1 UNK         0.0600 
    169 H169        2.0160  -15.5668  -39.3265 H         1 UNK         0.3000 
    170 H170       -1.4341  -14.7310  -39.6001 H         1 UNK         0.0600 
    171 H171       -1.3680  -16.0016  -37.4467 H         1 UNK         0.0600 
    172 H172        0.2008  -15.2998  -37.0686 H         1 UNK         0.0600 
    173 H173       -1.2294  -14.2723  -37.1733 H         1 UNK         0.0600 
    174 H174        0.7432  -13.3110  -38.4670 H         1 UNK         0.3000 
    175 H175        1.1468  -11.2636  -41.2012 H         1 UNK         0.0600 
    176 H176        2.1771  -11.8480  -38.3705 H         1 UNK         0.0600 
    177 H177        2.2202  -10.3051  -39.2109 H         1 UNK         0.0600 
    178 H178        0.6782  -10.9998  -38.7529 H         1 UNK         0.0600 
    179 H179        3.2873  -11.5740  -41.6850 H         1 UNK         0.3000 
    180 H180        5.4824  -11.9122  -41.0607 H         1 UNK         0.0600 
    181 H181        6.1792  -14.6640  -39.9279 H         1 UNK         0.0600 
    182 H182        6.2473  -13.1283  -39.0852 H         1 UNK         0.0600 
    183 H183        7.3358  -13.4317  -40.4302 H         1 UNK         0.0600 
    184 H184        5.6138  -12.7161  -43.0933 H         1 UNK         0.3000 
    185 H185        5.0958  -14.3061  -44.9304 H         1 UNK         0.0600 
    186 H186        7.4072  -13.4389  -44.4820 H         1 UNK         0.0600 
    187 H187        7.9633  -15.0542  -44.0718 H         1 UNK         0.0600 
    188 H188        7.5125  -14.6657  -45.7233 H         1 UNK         0.0600 
    189 H189        5.6298  -16.8948  -43.8292 H         1 UNK         0.3000 
    190 H190       -2.6463  -19.3633  -46.2568 H         1 UNK         0.3000 
    191 H191       -4.6992  -20.5027  -47.7982 H         1 UNK         0.0600 
    192 H192       -3.9598  -20.9862  -44.8639 H         1 UNK         0.0600 
    193 H193       -5.5031  -21.4001  -45.6029 H         1 UNK         0.0600 
    194 H194       -5.0160  -19.7162  -45.4768 H         1 UNK         0.0600 
    195 H195       -1.9052  -22.1080  -46.2234 H         1 UNK         0.3000 
    196 H196       -2.6105  -24.7784  -46.9199 H         1 UNK         0.0600 
    197 H197       -0.2180  -25.2599  -46.3756 H         1 UNK         0.0600 
    198 H198       -0.9728  -24.2550  -45.1472 H         1 UNK         0.0600 
    199 H199        0.1254  -23.5349  -46.3205 H         1 UNK         0.0600 
    200 H200       -0.3968  -22.4241  -48.5434 H         1 UNK         0.3000 
    201 H201        0.3142  -24.1564  -50.6833 H         1 UNK         0.0600 
    202 H202        1.6790  -22.2131  -49.9174 H         1 UNK         0.0600 
    203 H203        0.4507  -21.1017  -50.5177 H         1 UNK         0.0600 
    204 H204        1.3475  -22.1335  -51.6361 H         1 UNK         0.0600 
    205 H205       -2.2975  -21.7394  -50.3675 H         1 UNK         0.3000 
    206 H206       -3.2511  -22.0502  -53.0931 H         1 UNK         0.0600 
    207 H207       -3.5432  -19.9399  -51.7943 H         1 UNK         0.0600 
    208 H208       -5.0967  -20.5937  -52.2787 H         1 UNK         0.0600 
    209 H209       -4.5508  -20.7887  -50.6220 H         1 UNK         0.0600 
    210 H210       -3.3873  -24.1428  -50.4867 H         1 UNK         0.3000 
    211 H211       -4.5123  -25.9424  -49.8867 H         1 UNK         0.0600 
    212 H212       -5.4840  -27.3597  -51.6669 H         1 UNK         0.0600 
    213 H213       -3.9824  -26.6425  -52.2302 H         1 UNK         0.0600 
    214 H214       -5.5284  -26.0029  -52.7817 H         1 UNK         0.0600 
    215 H215       -5.6662  -23.8132  -48.8745 H         1 UNK         0.3000 
    216 H216       -7.4535  -22.8611  -47.9902 H         1 UNK         0.0600 
    217 H217       -9.4144  -24.2308  -47.4045 H         1 UNK         0.0600 
    218 H218       -7.9548  -25.1803  -47.1800 H         1 UNK         0.0600 
    219 H219       -8.9775  -25.4524  -48.5903 H         1 UNK         0.0600 
    220 H220       -6.8892  -22.3687  -50.6811 H         1 UNK         0.3000 
    221 H221       -7.4932  -21.1293  -52.3751 H         1 UNK         0.0600 
    222 H222      -10.2821  -20.7554  -51.1836 H         1 UNK         0.0600 
    223 H223       -8.8765  -19.7647  -50.7902 H         1 UNK         0.0600 
    224 H224       -9.5190  -19.7741  -52.4232 H         1 UNK         0.0600 
    225 H225       -8.2372  -24.1827  -52.1158 H         1 UNK         0.3000 
    226 H226      -10.1406  -24.5374  -54.2852 H         1 UNK         0.0600 
    227 H227       -9.7799  -26.2508  -52.4731 H         1 UNK         0.0600 
    228 H228       -9.5719  -26.9046  -54.0916 H         1 UNK         0.0600 
    229 H229       -8.1613  -26.5521  -53.1073 H         1 UNK         0.0600 
    230 H230       -6.5907  -24.3743  -53.9636 H         1 UNK         0.3000 
    231 H231       -6.1917  -24.7544  -56.8905 H         1 UNK         0.0600 
    232 H232       -4.6501  -25.9529  -55.3348 H         1 UNK         0.0600 
    233 H233       -4.1544  -24.4202  -54.6232 H         1 UNK         0.0600 
    234 H234       -3.7950  -24.7665  -56.3072 H         1 UNK         0.0600 
    235 H235       -6.1876  -22.3490  -54.3318 H         1 UNK         0.3000 
    236 H236       -6.2029  -20.1275  -54.2441 H         1 UNK         0.0600 
    237 H237       -6.9826  -20.1814  -57.2002 H         1 UNK         0.0600 
    238 H238       -8.0971  -20.4059  -55.8527 H         1 UNK         0.0600 
    239 H239       -7.2704  -18.8724  -56.0622 H         1 UNK         0.0600 
    240 H240       -3.6950  -21.5392  -55.2050 H         1 UNK         0.3000 
    241 H241       -1.6107  -21.1349  -55.6770 H         1 UNK         0.0600 
    242 H242       -3.7833  -21.3327  -57.8859 H         1 UNK         0.3800 
    243 H243       -2.8742  -20.8633  -59.2999 H         1 UNK         0.3800 
    244 H244       -1.7857  -18.1147  -55.8801 H         1 UNK         0.0800 
    245 H245       -2.0781  -18.8424  -54.3335 H         1 UNK         0.0800 
    246 H246        1.0420  -20.5166  -53.2258 H         1 UNK         0.0800 
    247 H247       -0.6707  -20.2672  -53.0208 H         1 UNK         0.0800 
@<TRIPOS>BOND
     1    1    2 1    
     2    1  127 1    
     3    1  128 1    
     4    1  129 1    
     5    2    3 2    
     6    2    4 am   BACKBONE|DICT|INTERRES
     7    4    5 1    
     8    4  130 1    
     9    5    6 1    
    10    5   65 1    
    11    5  131 1    
    12    6    7 1    
    13    6  132 1    
    14    6  133 1    
    15    7    8 1    
    16    8    9 1    
    17    8  134 1    
    18    8  135 1    
    19    9   10 ar   
    20    9   14 ar   
    21   10   11 ar   
    22   10  136 1    
    23   11   12 ar   
    24   11  126 1    
    25   12   13 ar   
    26   12  137 1    
    27   13   14 ar   
    28   13   15 1    
    29   14  138 1    
    30   15   16 1    
    31   15  139 1    
    32   15  140 1    
    33   16   17 1    
    34   17   18 1    
    35   17  141 1    
    36   17  142 1    
    37   18   19 1    
    38   18   67 1    
    39   18  143 1    
    40   19   20 am   BACKBONE|DICT|INTERRES
    41   19  144 1    
    42   20   21 2    
    43   20   22 1    
    44   22   23 1    
    45   22   24 1    
    46   22  145 1    
    47   23  146 1    
    48   23  147 1    
    49   23  148 1    
    50   24   25 am   BACKBONE|DICT|INTERRES
    51   24  149 1    
    52   25   26 2    
    53   25   27 1    
    54   27   28 1    
    55   27   29 1    
    56   27  150 1    
    57   28  151 1    
    58   28  152 1    
    59   28  153 1    
    60   29   30 am   BACKBONE|DICT|INTERRES
    61   29  154 1    
    62   30   31 2    
    63   30   32 1    
    64   32   33 1    
    65   32   34 1    
    66   32  155 1    
    67   33  156 1    
    68   33  157 1    
    69   33  158 1    
    70   34   35 am   BACKBONE|DICT|INTERRES
    71   34  159 1    
    72   35   36 2    
    73   35   37 1    
    74   37   38 1    
    75   37   39 1    
    76   37  160 1    
    77   38  161 1    
    78   38  162 1    
    79   38  163 1    
    80   39   40 am   BACKBONE|DICT|INTERRES
    81   39  164 1    
    82   40   41 2    
    83   40   42 1    
    84   42   43 1    
    85   42   44 1    
    86   42  165 1    
    87   43  166 1    
    88   43  167 1    
    89   43  168 1    
    90   44   45 am   BACKBONE|DICT|INTERRES
    91   44  169 1    
    92   45   46 2    
    93   45   47 1    
    94   47   48 1    
    95   47   49 1    
    96   47  170 1    
    97   48  171 1    
    98   48  172 1    
    99   48  173 1    
   100   49   50 am   BACKBONE|DICT|INTERRES
   101   49  174 1    
   102   50   51 2    
   103   50   52 1    
   104   52   53 1    
   105   52   54 1    
   106   52  175 1    
   107   53  176 1    
   108   53  177 1    
   109   53  178 1    
   110   54   55 am   BACKBONE|DICT|INTERRES
   111   54  179 1    
   112   55   56 2    
   113   55   57 1    
   114   57   58 1    
   115   57   59 1    
   116   57  180 1    
   117   58  181 1    
   118   58  182 1    
   119   58  183 1    
   120   59   60 am   BACKBONE|DICT|INTERRES
   121   59  184 1    
   122   60   61 2    
   123   60   62 1    
   124   62   63 1    
   125   62   64 1    
   126   62  185 1    
   127   63  186 1    
   128   63  187 1    
   129   63  188 1    
   130   64   65 am   BACKBONE|DICT|INTERRES
   131   64  189 1    
   132   65   66 2    
   133   67   68 2    
   134   67   69 am   BACKBONE|DICT|INTERRES
   135   69   70 1    
   136   69  190 1    
   137   70   71 1    
   138   70   72 1    
   139   70  191 1    
   140   71  192 1    
   141   71  193 1    
   142   71  194 1    
   143   72   73 2    
   144   72   74 am   BACKBONE|DICT|INTERRES
   145   74   75 1    
   146   74  195 1    
   147   75   76 1    
   148   75   77 1    
   149   75  196 1    
   150   76  197 1    
   151   76  198 1    
   152   76  199 1    
   153   77   78 2    
   154   77   79 am   BACKBONE|DICT|INTERRES
   155   79   80 1    
   156   79  200 1    
   157   80   81 1    
   158   80   82 1    
   159   80  201 1    
   160   81  202 1    
   161   81  203 1    
   162   81  204 1    
   163   82   83 2    
   164   82   84 am   BACKBONE|DICT|INTERRES
   165   84   85 1    
   166   84  205 1    
   167   85   86 1    
   168   85   87 1    
   169   85  206 1    
   170   86  207 1    
   171   86  208 1    
   172   86  209 1    
   173   87   88 2    
   174   87   89 am   BACKBONE|DICT|INTERRES
   175   89   90 1    
   176   89  210 1    
   177   90   91 1    
   178   90   92 1    
   179   90  211 1    
   180   91  212 1    
   181   91  213 1    
   182   91  214 1    
   183   92   93 2    
   184   92   94 am   BACKBONE|DICT|INTERRES
   185   94   95 1    
   186   94  215 1    
   187   95   96 1    
   188   95   97 1    
   189   95  216 1    
   190   96  217 1    
   191   96  218 1    
   192   96  219 1    
   193   97   98 2    
   194   97   99 am   BACKBONE|DICT|INTERRES
   195   99  100 1    
   196   99  220 1    
   197  100  101 1    
   198  100  102 1    
   199  100  221 1    
   200  101  222 1    
   201  101  223 1    
   202  101  224 1    
   203  102  103 2    
   204  102  104 am   BACKBONE|DICT|INTERRES
   205  104  105 1    
   206  104  225 1    
   207  105  106 1    
   208  105  107 1    
   209  105  226 1    
   210  106  227 1    
   211  106  228 1    
   212  106  229 1    
   213  107  108 2    
   214  107  109 am   BACKBONE|DICT|INTERRES
   215  109  110 1    
   216  109  230 1    
   217  110  111 1    
   218  110  112 1    
   219  110  231 1    
   220  111  232 1    
   221  111  233 1    
   222  111  234 1    
   223  112  113 2    
   224  112  114 am   BACKBONE|DICT|INTERRES
   225  114  115 1    
   226  114  235 1    
   227  115  116 1    
   228  115  117 1    
   229  115  236 1    
   230  116  237 1    
   231  116  238 1    
   232  116  239 1    
   233  117  118 2    
   234  117  119 am   BACKBONE|DICT|INTERRES
   235  119  120 1    
   236  119  240 1    
   237  120  121 1    
   238  120  124 1    
   239  120  241 1    
   240  121  122 am   BACKBONE|DICT|INTERRES
   241  121  123 2    
   242  122  242 1    
   243  122  243 1    
   244  124  125 1    
   245  124  244 1    
   246  124  245 1    
   247  125  126 1    
   248  126  246 1    
   249  126  247 1    
@<TRIPOS>SUBSTRUCTURE
     1 UNK         1 GROUP             0       ****    0 ROOT    
