@<TRIPOS>MOLECULE
3R540
247   249    1
SMALL
USER_CHARGES


@<TRIPOS>ATOM
      1 CA          1.1149  -11.8002  -50.3274 C.3       0 UNK        -0.1800 
      2 C           2.2464  -11.7094  -49.3128 C.2       0 UNK         0.5000 
      3 O           2.9899  -10.7275  -49.3081 O.2       0 UNK        -0.5000 
      4 N           2.3818  -12.7343  -48.4635 N.am      1 UNK        -0.5000 
      5 CA          3.3773  -12.8134  -47.3867 C.3       1 UNK         0.1400 
      6 C6          3.6455  -14.2754  -46.9304 C.3       23 UNK        -0.0398 
      7 S7          3.9106  -15.4510  -48.3045 S.3       23 UNK        -0.2404 
      8 C8          2.3272  -16.3433  -48.2563 C.3       23 UNK        -0.0205 
      9 C9          2.2448  -17.4355  -49.3078 C.ar      23 UNK        -0.0193 
     10 C10         1.5679  -17.2138  -50.5083 C.ar      23 UNK        -0.1150 
     11 C11         1.4431  -18.2405  -51.4470 C.ar      23 UNK        -0.0193 
     12 C12         2.0017  -19.4941  -51.1777 C.ar      23 UNK        -0.1150 
     13 C13         2.6593  -19.7428  -49.9684 C.ar      23 UNK        -0.0193 
     14 C14         2.7996  -18.6911  -49.0532 C.ar      23 UNK        -0.1150 
     15 C15         3.1770  -21.1565  -49.6829 C.3       23 UNK        -0.0205 
     16 S16         3.4267  -21.5256  -47.9088 S.3       23 UNK        -0.2404 
     17 C17         3.1491  -23.3312  -47.7978 C.3       23 UNK        -0.0398 
     18 CA          1.8552  -23.7278  -47.0325 C.3       11 UNK         0.1400 
     19 N           1.6932  -22.9781  -45.7804 N.am      11 UNK        -0.5000 
     20 C           0.6874  -23.0661  -44.9021 C.2       10 UNK         0.5000 
     21 O          -0.3007  -23.7779  -45.0689 O.2       10 UNK        -0.5000 
     22 CA          0.7699  -22.2174  -43.6199 C.3       10 UNK         0.1400 
     23 CB          1.2928  -23.0500  -42.4352 C.3       10 UNK        -0.1800 
     24 N           1.4995  -20.9513  -43.7486 N.am      10 UNK        -0.5000 
     25 C           2.8089  -20.7190  -43.9139 C.2       9 UNK         0.5000 
     26 O           3.6516  -21.6038  -44.0594 O.2       9 UNK        -0.5000 
     27 CA          3.2455  -19.2399  -43.9352 C.3       9 UNK         0.1400 
     28 CB          3.4033  -18.7481  -45.3780 C.3       9 UNK        -0.1800 
     29 N           2.3009  -18.3597  -43.2466 N.am      9 UNK        -0.5000 
     30 C           2.1408  -18.3048  -41.9175 C.2       8 UNK         0.5000 
     31 O           2.8245  -18.9401  -41.1143 O.2       8 UNK        -0.5000 
     32 CA          0.9958  -17.4152  -41.4108 C.3       8 UNK         0.1400 
     33 CB          1.4107  -15.9356  -41.4153 C.3       8 UNK        -0.1800 
     34 N          -0.2140  -17.6053  -42.2156 N.am      8 UNK        -0.5000 
     35 C          -1.0623  -18.6337  -42.0618 C.2       7 UNK         0.5000 
     36 O          -0.9451  -19.4843  -41.1801 O.2       7 UNK        -0.5000 
     37 CA         -2.2272  -18.7550  -43.0624 C.3       7 UNK         0.1400 
     38 CB         -3.5123  -18.1473  -42.4834 C.3       7 UNK        -0.1800 
     39 N          -1.9342  -18.1253  -44.3496 N.am      7 UNK        -0.5000 
     40 C          -1.2266  -18.7111  -45.3259 C.2       6 UNK         0.5000 
     41 O          -0.7971  -19.8618  -45.2619 O.2       6 UNK        -0.5000 
     42 CA         -0.9226  -17.8713  -46.5803 C.3       6 UNK         0.1400 
     43 CB         -1.9755  -18.1419  -47.6624 C.3       6 UNK        -0.1800 
     44 N          -0.8481  -16.4297  -46.3346 N.am      6 UNK        -0.5000 
     45 C           0.0043  -15.8315  -45.4928 C.2       5 UNK         0.5000 
     46 O           0.8393  -16.4435  -44.8255 O.2       5 UNK        -0.5000 
     47 CA         -0.0920  -14.3027  -45.3512 C.3       5 UNK         0.1400 
     48 CB         -0.9809  -13.6160  -46.4119 C.3       5 UNK        -0.1800 
     49 N          -0.4900  -13.9074  -44.0022 N.am      5 UNK        -0.5000 
     50 C          -1.6276  -14.2132  -43.3617 C.2       4 UNK         0.5000 
     51 O          -2.4791  -14.9741  -43.8249 O.2       4 UNK        -0.5000 
     52 CA         -1.8575  -13.5762  -41.9712 C.3       4 UNK         0.1400 
     53 CB         -2.3552  -14.6103  -40.9467 C.3       4 UNK        -0.1800 
     54 N          -0.6735  -12.9017  -41.4290 N.am      4 UNK        -0.5000 
     55 C          -0.2590  -11.6708  -41.7570 C.2       3 UNK         0.5000 
     56 O          -0.8579  -10.9397  -42.5471 O.2       3 UNK        -0.5000 
     57 CA          1.0543  -11.1693  -41.1184 C.3       3 UNK         0.1400 
     58 CB          1.6567  -12.1240  -40.0613 C.3       3 UNK        -0.1800 
     59 N           2.0594  -10.8329  -42.1329 N.am      3 UNK        -0.5000 
     60 C           2.5759  -11.6498  -43.0629 C.2       2 UNK         0.5000 
     61 O           2.2610  -12.8363  -43.1905 O.2       2 UNK        -0.5000 
     62 CA          3.6581  -11.0276  -43.9725 C.3       2 UNK         0.1400 
     63 CB          4.9971  -10.9365  -43.2225 C.3       2 UNK        -0.1800 
     64 N           3.8760  -11.7714  -45.2165 N.am      2 UNK        -0.5000 
     65 C           2.9677  -11.9211  -46.1888 C.2       1 UNK         0.5000 
     66 O           1.8477  -11.4033  -46.1499 O.2       1 UNK        -0.5000 
     67 C           0.6089  -23.7008  -47.9414 C.2       11 UNK         0.5000 
     68 O           0.0363  -24.7555  -48.2201 O.2       11 UNK        -0.5000 
     69 N           0.1874  -22.5004  -48.3589 N.am      12 UNK        -0.5000 
     70 CA         -0.9622  -22.3131  -49.2457 C.3       12 UNK         0.1400 
     71 CB         -0.8979  -20.9324  -49.9094 C.3       12 UNK        -0.1800 
     72 C          -2.3183  -22.5449  -48.5618 C.2       12 UNK         0.5000 
     73 O          -3.2797  -22.8837  -49.2528 O.2       12 UNK        -0.5000 
     74 N          -2.3807  -22.3807  -47.2341 N.am      13 UNK        -0.5000 
     75 CA         -3.5627  -22.7029  -46.4368 C.3       13 UNK         0.1400 
     76 CB         -3.4634  -22.0320  -45.0592 C.3       13 UNK        -0.1800 
     77 C          -3.7624  -24.2243  -46.3128 C.2       13 UNK         0.5000 
     78 O          -4.8731  -24.7082  -46.5297 O.2       13 UNK        -0.5000 
     79 N          -2.6778  -24.9530  -46.0126 N.am      14 UNK        -0.5000 
     80 CA         -2.6494  -26.4124  -45.8970 C.3       14 UNK         0.1400 
     81 CB         -1.3109  -26.8516  -45.2841 C.3       14 UNK        -0.1800 
     82 C          -2.8875  -27.1230  -47.2407 C.2       14 UNK         0.5000 
     83 O          -3.6036  -28.1241  -47.2795 O.2       14 UNK        -0.5000 
     84 N          -2.3100  -26.5784  -48.3209 N.am      15 UNK        -0.5000 
     85 CA         -2.5017  -27.0572  -49.6925 C.3       15 UNK         0.1400 
     86 CB         -1.3884  -26.4780  -50.5798 C.3       15 UNK        -0.1800 
     87 C          -3.8827  -26.7024  -50.2809 C.2       15 UNK         0.5000 
     88 O          -4.2543  -27.2618  -51.3127 O.2       15 UNK        -0.5000 
     89 N          -4.5915  -25.7578  -49.6426 N.am      16 UNK        -0.5000 
     90 CA         -5.8607  -25.1457  -50.0556 C.3       16 UNK         0.1400 
     91 CB         -6.9947  -26.1883  -50.1266 C.3       16 UNK        -0.1800 
     92 C          -5.7461  -24.2988  -51.3421 C.2       16 UNK         0.5000 
     93 O          -6.7615  -23.9691  -51.9558 O.2       16 UNK        -0.5000 
     94 N          -4.5142  -23.9154  -51.7029 N.am      17 UNK        -0.5000 
     95 CA         -4.1919  -23.0218  -52.8134 C.3       17 UNK         0.1400 
     96 CB         -2.6780  -23.0665  -53.0683 C.3       17 UNK        -0.1800 
     97 C          -4.6579  -21.5809  -52.5432 C.2       17 UNK         0.5000 
     98 O          -5.0262  -20.8770  -53.4798 O.2       17 UNK        -0.5000 
     99 N          -4.6940  -21.1869  -51.2617 N.am      18 UNK        -0.5000 
    100 CA        -5.1869  -19.8913  -50.7867 C.3       18 UNK         0.1400 
    101 CB        -4.9478  -19.8043  -49.2725 C.3       18 UNK        -0.1800 
    102 C         -6.6746  -19.6274  -51.1046 C.2       18 UNK         0.5000 
    103 O         -7.0824  -18.4675  -51.1677 O.2       18 UNK        -0.5000 
    104 N         -7.4535  -20.6998  -51.3030 N.am      19 UNK        -0.5000 
    105 CA        -8.8676  -20.6553  -51.6748 C.3       19 UNK         0.1400 
    106 CB        -9.5638  -21.8930  -51.0842 C.3       19 UNK        -0.1800 
    107 C         -9.0917  -20.5790  -53.2004 C.2       19 UNK         0.5000 
    108 O        -10.2429  -20.4719  -53.6268 O.2       19 UNK        -0.5000 
    109 N         -8.0184  -20.6506  -53.9978 N.am      20 UNK        -0.5000 
    110 CA        -8.0472  -20.6390  -55.4572 C.3       20 UNK         0.1400 
    111 CB        -8.0857  -22.0929  -55.9739 C.3       20 UNK        -0.1800 
    112 C         -6.8566  -19.8108  -55.9739 C.2       20 UNK         0.5000 
    113 O         -6.5918  -18.7327  -55.4366 O.2       20 UNK        -0.5000 
    114 N         -6.1621  -20.3086  -57.0049 N.am      21 UNK        -0.5000 
    115 CA        -4.9071  -19.7510  -57.5006 C.3       21 UNK         0.1400 
    116 CB        -4.6679  -20.2387  -58.9388 C.3       21 UNK        -0.1800 
    117 C         -3.7585  -20.1722  -56.5678 C.2       21 UNK         0.5000 
    118 O         -3.4884  -21.3693  -56.4435 O.2       21 UNK        -0.5000 
    119 N         -3.1291  -19.1874  -55.9179 N.am      22 UNK        -0.5000 
    120 CA        -2.0236  -19.3826  -54.9704 C.3       22 UNK         0.1400 
    121 C         -0.7369  -19.9348  -55.6482 C.2       22 UNK         0.5000 
    122 N         -0.0240  -20.8466  -55.0004 N.am      22 UNK        -0.7600 
    123 O         -0.3607  -19.5136  -56.7400 O.2       22 UNK        -0.5000 
    124 C124       -1.7396  -18.0785  -54.1815 C.3       23 UNK        -0.0398 
    125 S125       -1.0877  -18.4038  -52.5109 S.3       23 UNK        -0.2404 
    126 C126        0.6731  -18.0049  -52.7350 C.3       23 UNK        -0.0205 
    127 H127        0.5518  -12.7284  -50.2260 H         1 UNK         0.0600 
    128 H128        1.5143  -11.7543  -51.3405 H         1 UNK         0.0600 
    129 H129        0.4242  -10.9676  -50.1936 H         1 UNK         0.0600 
    130 H130        1.7359  -13.5049  -48.5196 H         1 UNK         0.3000 
    131 H131        4.3168  -12.4156  -47.7768 H         1 UNK         0.0600 
    132 H132        2.8429  -14.6490  -46.2963 H         1 UNK         0.0800 
    133 H133        4.5398  -14.3094  -46.3064 H         1 UNK         0.0800 
    134 H134        1.5037  -15.6400  -48.3838 H         1 UNK         0.0800 
    135 H135        2.2010  -16.7886  -47.2698 H         1 UNK         0.0800 
    136 H136        1.1224  -16.2489  -50.7061 H         1 UNK         0.1150 
    137 H137        1.8898  -20.2908  -51.8997 H         1 UNK         0.1150 
    138 H138        3.3269  -18.8421  -48.1255 H         1 UNK         0.1150 
    139 H139        2.4709  -21.8780  -50.0964 H         1 UNK         0.0800 
    140 H140        4.1197  -21.3040  -50.2109 H         1 UNK         0.0800 
    141 H141        4.0077  -23.7456  -47.2679 H         1 UNK         0.0800 
    142 H142        3.1820  -23.7837  -48.7906 H         1 UNK         0.0800 
    143 H143        1.9757  -24.7711  -46.7335 H         1 UNK         0.0600 
    144 H144        2.4709  -22.3806  -45.5246 H         1 UNK         0.3000 
    145 H145       -0.2557  -21.9297  -43.3833 H         1 UNK         0.0600 
    146 H146        1.2854  -22.4690  -41.5128 H         1 UNK         0.0600 
    147 H147        0.6664  -23.9278  -42.2719 H         1 UNK         0.0600 
    148 H148        2.3102  -23.4043  -42.6024 H         1 UNK         0.0600 
    149 H149        0.8992  -20.1382  -43.7510 H         1 UNK         0.3000 
    150 H150        4.2146  -19.1683  -43.4372 H         1 UNK         0.0600 
    151 H151        4.1608  -19.3293  -45.9045 H         1 UNK         0.0600 
    152 H152        3.7143  -17.7036  -45.4110 H         1 UNK         0.0600 
    153 H153        2.4669  -18.8396  -45.9297 H         1 UNK         0.0600 
    154 H154        1.7322  -17.7518  -43.8315 H         1 UNK         0.3000 
    155 H155        0.7856  -17.6978  -40.3769 H         1 UNK         0.0600 
    156 H156        2.3466  -15.7912  -40.8740 H         1 UNK         0.0600 
    157 H157        0.6617  -15.3197  -40.9235 H         1 UNK         0.0600 
    158 H158        1.5572  -15.5503  -42.4245 H         1 UNK         0.0600 
    159 H159       -0.3315  -16.9905  -43.0091 H         1 UNK         0.3000 
    160 H160       -2.4070  -19.8204  -43.2197 H         1 UNK         0.0600 
    161 H161       -3.4151  -17.0738  -42.3291 H         1 UNK         0.0600 
    162 H162       -3.7610  -18.5976  -41.5216 H         1 UNK         0.0600 
    163 H163       -4.3594  -18.3137  -43.1490 H         1 UNK         0.0600 
    164 H164       -2.2449  -17.1687  -44.4711 H         1 UNK         0.3000 
    165 H165        0.0483  -18.1989  -46.9578 H         1 UNK         0.0600 
    166 H166       -1.6715  -17.7286  -48.6247 H         1 UNK         0.0600 
    167 H167       -2.1199  -19.2133  -47.7967 H         1 UNK         0.0600 
    168 H168       -2.9445  -17.7160  -47.3998 H         1 UNK         0.0600 
    169 H169       -1.5234  -15.8564  -46.8191 H         1 UNK         0.3000 
    170 H170        0.9176  -13.9210  -45.4774 H         1 UNK         0.0600 
    171 H171       -0.6474  -13.8542  -47.4226 H         1 UNK         0.0600 
    172 H172       -2.0293  -13.9037  -46.3266 H         1 UNK         0.0600 
    173 H173       -0.9299  -12.5316  -46.3100 H         1 UNK         0.0600 
    174 H174        0.1937  -13.3413  -43.5130 H         1 UNK         0.3000 
    175 H175       -2.6474  -12.8328  -42.0959 H         1 UNK         0.0600 
    176 H176       -3.3349  -14.9950  -41.2306 H         1 UNK         0.0600 
    177 H177       -1.6806  -15.4616  -40.8612 H         1 UNK         0.0600 
    178 H178       -2.4645  -14.1667  -39.9568 H         1 UNK         0.0600 
    179 H179       -0.1100  -13.4350  -40.7838 H         1 UNK         0.3000 
    180 H180        0.8032  -10.2369  -40.6106 H         1 UNK         0.0600 
    181 H181        1.9583  -13.0803  -40.4894 H         1 UNK         0.0600 
    182 H182        0.9477  -12.3235  -39.2568 H         1 UNK         0.0600 
    183 H183        2.5402  -11.6813  -39.6012 H         1 UNK         0.0600 
    184 H184        2.3644   -9.8697  -42.1263 H         1 UNK         0.3000 
    185 H185        3.3374  -10.0183  -44.2391 H         1 UNK         0.0600 
    186 H186        4.8993  -10.3514  -42.3072 H         1 UNK         0.0600 
    187 H187        5.3670  -11.9235  -42.9413 H         1 UNK         0.0600 
    188 H188        5.7602  -10.4527  -43.8326 H         1 UNK         0.0600 
    189 H189        4.7678  -12.2364  -45.2994 H         1 UNK         0.3000 
    190 H190        0.6976  -21.6765  -48.0729 H         1 UNK         0.3000 
    191 H191       -0.8982  -23.0549  -50.0442 H         1 UNK         0.0600 
    192 H192       -0.5647  -20.1562  -49.2217 H         1 UNK         0.0600 
    193 H193       -1.8629  -20.6284  -50.3170 H         1 UNK         0.0600 
    194 H194       -0.2034  -20.9545  -50.7462 H         1 UNK         0.0600 
    195 H195       -1.5460  -22.1136  -46.7314 H         1 UNK         0.3000 
    196 H196       -4.4412  -22.2939  -46.9410 H         1 UNK         0.0600 
    197 H197       -4.3225  -22.2858  -44.4371 H         1 UNK         0.0600 
    198 H198       -3.4448  -20.9471  -45.1581 H         1 UNK         0.0600 
    199 H199       -2.5655  -22.3358  -44.5210 H         1 UNK         0.0600 
    200 H200       -1.8006  -24.4733  -45.8169 H         1 UNK         0.3000 
    201 H201       -3.4494  -26.7107  -45.2164 H         1 UNK         0.0600 
    202 H202       -1.1704  -26.4174  -44.2941 H         1 UNK         0.0600 
    203 H203       -0.4664  -26.5477  -45.9043 H         1 UNK         0.0600 
    204 H204       -1.2667  -27.9358  -45.1739 H         1 UNK         0.0600 
    205 H205       -1.6714  -25.7982  -48.1955 H         1 UNK         0.3000 
    206 H206       -2.4114  -28.1454  -49.6968 H         1 UNK         0.0600 
    207 H207       -0.4024  -26.7614  -50.2110 H         1 UNK         0.0600 
    208 H208       -1.4693  -26.8461  -51.6034 H         1 UNK         0.0600 
    209 H209       -1.4314  -25.3893  -50.6186 H         1 UNK         0.0600 
    210 H210       -4.1874  -25.3662  -48.8024 H         1 UNK         0.3000 
    211 H211       -6.1158  -24.4413  -49.2626 H         1 UNK         0.0600 
    212 H212       -6.8593  -26.8819  -50.9566 H         1 UNK         0.0600 
    213 H213       -7.9620  -25.7035  -50.2638 H         1 UNK         0.0600 
    214 H214       -7.0524  -26.7703  -49.2068 H         1 UNK         0.0600 
    215 H215       -3.7558  -24.1585  -51.0814 H         1 UNK         0.3000 
    216 H216       -4.7065  -23.3833  -53.7062 H         1 UNK         0.0600 
    217 H217       -2.4222  -22.5031  -53.9657 H         1 UNK         0.0600 
    218 H218       -2.3329  -24.0891  -53.2223 H         1 UNK         0.0600 
    219 H219       -2.1145  -22.6425  -52.2367 H         1 UNK         0.0600 
    220 H220       -4.3590  -21.8327  -50.5534 H         1 UNK         0.3000 
    221 H221       -4.5996  -19.1124  -51.2775 H         1 UNK         0.0600 
    222 H222       -5.5123  -20.5650  -48.7317 H         1 UNK         0.0600 
    223 H223       -3.8952  -19.9420  -49.0359 H         1 UNK         0.0600 
    224 H224       -5.2451  -18.8303  -48.8819 H         1 UNK         0.0600 
    225 H225       -7.0322  -21.6178  -51.2640 H         1 UNK         0.3000 
    226 H226       -9.3288  -19.7688  -51.2345 H         1 UNK         0.0600 
    227 H227       -9.4260  -21.9468  -50.0042 H         1 UNK         0.0600 
    228 H228      -10.6379  -21.8656  -51.2717 H         1 UNK         0.0600 
    229 H229       -9.1800  -22.8166  -51.5185 H         1 UNK         0.0600 
    230 H230       -7.0903  -20.6664  -53.5873 H         1 UNK         0.3000 
    231 H231       -8.9449  -20.1248  -55.8057 H         1 UNK         0.0600 
    232 H232       -8.9380  -22.6314  -55.5592 H         1 UNK         0.0600 
    233 H233       -7.1843  -22.6420  -55.6973 H         1 UNK         0.0600 
    234 H234       -8.1875  -22.1301  -57.0590 H         1 UNK         0.0600 
    235 H235       -6.4192  -21.2156  -57.3656 H         1 UNK         0.3000 
    236 H236       -4.9799  -18.6614  -57.5220 H         1 UNK         0.0600 
    237 H237       -3.7337  -19.8378  -59.3340 H         1 UNK         0.0600 
    238 H238       -4.6076  -21.3264  -58.9940 H         1 UNK         0.0600 
    239 H239       -5.4686  -19.9134  -59.6032 H         1 UNK         0.0600 
    240 H240       -3.4131  -18.2335  -56.0838 H         1 UNK         0.3000 
    241 H241       -2.3765  -20.1330  -54.2610 H         1 UNK         0.0600 
    242 H242        0.8151  -21.2041  -55.4294 H         1 UNK         0.3800 
    243 H243       -0.3018  -21.1880  -54.0950 H         1 UNK         0.3800 
    244 H244       -1.0799  -17.4057  -54.7328 H         1 UNK         0.0800 
    245 H245       -2.6669  -17.5231  -54.0334 H         1 UNK         0.0800 
    246 H246        0.7753  -16.9646  -53.0478 H         1 UNK         0.0800 
    247 H247        1.0931  -18.6131  -53.5370 H         1 UNK         0.0800 
@<TRIPOS>BOND
     1    1    2 1    
     2    1  127 1    
     3    1  128 1    
     4    1  129 1    
     5    2    3 2    
     6    2    4 am   BACKBONE|DICT|INTERRES
     7    4    5 1    
     8    4  130 1    
     9    5    6 1    
    10    5   65 1    
    11    5  131 1    
    12    6    7 1    
    13    6  132 1    
    14    6  133 1    
    15    7    8 1    
    16    8    9 1    
    17    8  134 1    
    18    8  135 1    
    19    9   10 ar   
    20    9   14 ar   
    21   10   11 ar   
    22   10  136 1    
    23   11   12 ar   
    24   11  126 1    
    25   12   13 ar   
    26   12  137 1    
    27   13   14 ar   
    28   13   15 1    
    29   14  138 1    
    30   15   16 1    
    31   15  139 1    
    32   15  140 1    
    33   16   17 1    
    34   17   18 1    
    35   17  141 1    
    36   17  142 1    
    37   18   19 1    
    38   18   67 1    
    39   18  143 1    
    40   19   20 am   BACKBONE|DICT|INTERRES
    41   19  144 1    
    42   20   21 2    
    43   20   22 1    
    44   22   23 1    
    45   22   24 1    
    46   22  145 1    
    47   23  146 1    
    48   23  147 1    
    49   23  148 1    
    50   24   25 am   BACKBONE|DICT|INTERRES
    51   24  149 1    
    52   25   26 2    
    53   25   27 1    
    54   27   28 1    
    55   27   29 1    
    56   27  150 1    
    57   28  151 1    
    58   28  152 1    
    59   28  153 1    
    60   29   30 am   BACKBONE|DICT|INTERRES
    61   29  154 1    
    62   30   31 2    
    63   30   32 1    
    64   32   33 1    
    65   32   34 1    
    66   32  155 1    
    67   33  156 1    
    68   33  157 1    
    69   33  158 1    
    70   34   35 am   BACKBONE|DICT|INTERRES
    71   34  159 1    
    72   35   36 2    
    73   35   37 1    
    74   37   38 1    
    75   37   39 1    
    76   37  160 1    
    77   38  161 1    
    78   38  162 1    
    79   38  163 1    
    80   39   40 am   BACKBONE|DICT|INTERRES
    81   39  164 1    
    82   40   41 2    
    83   40   42 1    
    84   42   43 1    
    85   42   44 1    
    86   42  165 1    
    87   43  166 1    
    88   43  167 1    
    89   43  168 1    
    90   44   45 am   BACKBONE|DICT|INTERRES
    91   44  169 1    
    92   45   46 2    
    93   45   47 1    
    94   47   48 1    
    95   47   49 1    
    96   47  170 1    
    97   48  171 1    
    98   48  172 1    
    99   48  173 1    
   100   49   50 am   BACKBONE|DICT|INTERRES
   101   49  174 1    
   102   50   51 2    
   103   50   52 1    
   104   52   53 1    
   105   52   54 1    
   106   52  175 1    
   107   53  176 1    
   108   53  177 1    
   109   53  178 1    
   110   54   55 am   BACKBONE|DICT|INTERRES
   111   54  179 1    
   112   55   56 2    
   113   55   57 1    
   114   57   58 1    
   115   57   59 1    
   116   57  180 1    
   117   58  181 1    
   118   58  182 1    
   119   58  183 1    
   120   59   60 am   BACKBONE|DICT|INTERRES
   121   59  184 1    
   122   60   61 2    
   123   60   62 1    
   124   62   63 1    
   125   62   64 1    
   126   62  185 1    
   127   63  186 1    
   128   63  187 1    
   129   63  188 1    
   130   64   65 am   BACKBONE|DICT|INTERRES
   131   64  189 1    
   132   65   66 2    
   133   67   68 2    
   134   67   69 am   BACKBONE|DICT|INTERRES
   135   69   70 1    
   136   69  190 1    
   137   70   71 1    
   138   70   72 1    
   139   70  191 1    
   140   71  192 1    
   141   71  193 1    
   142   71  194 1    
   143   72   73 2    
   144   72   74 am   BACKBONE|DICT|INTERRES
   145   74   75 1    
   146   74  195 1    
   147   75   76 1    
   148   75   77 1    
   149   75  196 1    
   150   76  197 1    
   151   76  198 1    
   152   76  199 1    
   153   77   78 2    
   154   77   79 am   BACKBONE|DICT|INTERRES
   155   79   80 1    
   156   79  200 1    
   157   80   81 1    
   158   80   82 1    
   159   80  201 1    
   160   81  202 1    
   161   81  203 1    
   162   81  204 1    
   163   82   83 2    
   164   82   84 am   BACKBONE|DICT|INTERRES
   165   84   85 1    
   166   84  205 1    
   167   85   86 1    
   168   85   87 1    
   169   85  206 1    
   170   86  207 1    
   171   86  208 1    
   172   86  209 1    
   173   87   88 2    
   174   87   89 am   BACKBONE|DICT|INTERRES
   175   89   90 1    
   176   89  210 1    
   177   90   91 1    
   178   90   92 1    
   179   90  211 1    
   180   91  212 1    
   181   91  213 1    
   182   91  214 1    
   183   92   93 2    
   184   92   94 am   BACKBONE|DICT|INTERRES
   185   94   95 1    
   186   94  215 1    
   187   95   96 1    
   188   95   97 1    
   189   95  216 1    
   190   96  217 1    
   191   96  218 1    
   192   96  219 1    
   193   97   98 2    
   194   97   99 am   BACKBONE|DICT|INTERRES
   195   99  100 1    
   196   99  220 1    
   197  100  101 1    
   198  100  102 1    
   199  100  221 1    
   200  101  222 1    
   201  101  223 1    
   202  101  224 1    
   203  102  103 2    
   204  102  104 am   BACKBONE|DICT|INTERRES
   205  104  105 1    
   206  104  225 1    
   207  105  106 1    
   208  105  107 1    
   209  105  226 1    
   210  106  227 1    
   211  106  228 1    
   212  106  229 1    
   213  107  108 2    
   214  107  109 am   BACKBONE|DICT|INTERRES
   215  109  110 1    
   216  109  230 1    
   217  110  111 1    
   218  110  112 1    
   219  110  231 1    
   220  111  232 1    
   221  111  233 1    
   222  111  234 1    
   223  112  113 2    
   224  112  114 am   BACKBONE|DICT|INTERRES
   225  114  115 1    
   226  114  235 1    
   227  115  116 1    
   228  115  117 1    
   229  115  236 1    
   230  116  237 1    
   231  116  238 1    
   232  116  239 1    
   233  117  118 2    
   234  117  119 am   BACKBONE|DICT|INTERRES
   235  119  120 1    
   236  119  240 1    
   237  120  121 1    
   238  120  124 1    
   239  120  241 1    
   240  121  122 am   BACKBONE|DICT|INTERRES
   241  121  123 2    
   242  122  242 1    
   243  122  243 1    
   244  124  125 1    
   245  124  244 1    
   246  124  245 1    
   247  125  126 1    
   248  126  246 1    
   249  126  247 1    
@<TRIPOS>SUBSTRUCTURE
     1 UNK         1 GROUP             0       ****    0 ROOT    
