@<TRIPOS>MOLECULE
3R540
247   249    1
SMALL
USER_CHARGES


@<TRIPOS>ATOM
      1 CA          1.3955  -12.3204  -48.0658 C.3       0 UNK        -0.1800 
      2 C           0.3875  -13.0393  -48.9511 C.2       0 UNK         0.5000 
      3 O          -0.1425  -12.4290  -49.8792 O.2       0 UNK        -0.5000 
      4 N           0.1373  -14.3273  -48.6842 N.am      1 UNK        -0.5000 
      5 CA         -0.7743  -15.1748  -49.4591 C.3       1 UNK         0.1400 
      6 C6         -2.1380  -15.3967  -48.7506 C.3       23 UNK        -0.0398 
      7 S7         -3.1892  -13.9135  -48.6408 S.3       23 UNK        -0.2404 
      8 C8         -4.2483  -14.3319  -47.2171 C.3       23 UNK        -0.0205 
      9 C9         -5.0435  -15.6143  -47.4301 C.ar      23 UNK        -0.0193 
     10 C10        -6.2600  -15.5866  -48.1208 C.ar      23 UNK        -0.1150 
     11 C11        -7.0055  -16.7573  -48.3004 C.ar      23 UNK        -0.0193 
     12 C12        -6.5149  -17.9626  -47.7880 C.ar      23 UNK        -0.1150 
     13 C13        -5.2947  -18.0065  -47.1097 C.ar      23 UNK        -0.0193 
     14 C14        -4.5697  -16.8280  -46.9208 C.ar      23 UNK        -0.1150 
     15 C15        -4.7415  -19.3363  -46.6285 C.3       23 UNK        -0.0205 
     16 S16        -5.2874  -19.7525  -44.9447 S.3       23 UNK        -0.2404 
     17 C17        -4.8310  -21.5204  -44.7718 C.3       23 UNK        -0.0398 
     18 CA         -3.5803  -22.0005  -45.5518 C.3       11 UNK         0.1400 
     19 N          -2.3671  -21.2437  -45.2104 N.am      11 UNK        -0.5000 
     20 C          -1.2051  -21.3311  -45.8750 C.2       10 UNK         0.5000 
     21 O          -1.0357  -22.0763  -46.8378 O.2       10 UNK        -0.5000 
     22 CA         -0.0268  -20.4931  -45.3543 C.3       10 UNK         0.1400 
     23 CB         -0.1041  -19.0458  -45.8658 C.3       10 UNK        -0.1800 
     24 N           0.0065  -20.5042  -43.8938 N.am      10 UNK        -0.5000 
     25 C           0.5562  -21.4829  -43.1615 C.2       9 UNK         0.5000 
     26 O           1.1707  -22.4344  -43.6440 O.2       9 UNK        -0.5000 
     27 CA          0.3657  -21.4030  -41.6333 C.3       9 UNK         0.1400 
     28 CB          1.5147  -20.6145  -40.9880 C.3       9 UNK        -0.1800 
     29 N          -0.9110  -20.8043  -41.2357 N.am      9 UNK        -0.5000 
     30 C          -2.1115  -21.3469  -41.4814 C.2       8 UNK         0.5000 
     31 O          -2.2679  -22.4261  -42.0500 O.2       8 UNK        -0.5000 
     32 CA         -3.3501  -20.5286  -41.0691 C.3       8 UNK         0.1400 
     33 CB         -3.7321  -20.8400  -39.6145 C.3       8 UNK        -0.1800 
     34 N          -3.2310  -19.0755  -41.2332 N.am      8 UNK        -0.5000 
     35 C          -2.8183  -18.4181  -42.3265 C.2       7 UNK         0.5000 
     36 O          -2.3643  -18.9737  -43.3297 O.2       7 UNK        -0.5000 
     37 CA         -2.9163  -16.8849  -42.2873 C.3       7 UNK         0.1400 
     38 CB         -2.5986  -16.2960  -40.8951 C.3       7 UNK        -0.1800 
     39 N          -2.0104  -16.3166  -43.2808 N.am      7 UNK        -0.5000 
     40 C          -2.1230  -15.0988  -43.8204 C.2       6 UNK         0.5000 
     41 O          -3.0829  -14.3535  -43.6146 O.2       6 UNK        -0.5000 
     42 CA         -0.9524  -14.6287  -44.7163 C.3       6 UNK         0.1400 
     43 CB         -0.9555  -13.1011  -44.9264 C.3       6 UNK        -0.1800 
     44 N           0.3744  -15.0648  -44.2553 N.am      6 UNK        -0.5000 
     45 C           0.9031  -14.9096  -43.0283 C.2       5 UNK         0.5000 
     46 O           0.3175  -14.4006  -42.0723 O.2       5 UNK        -0.5000 
     47 CA          2.3533  -15.3957  -42.8452 C.3       5 UNK         0.1400 
     48 CB          2.3868  -16.9174  -42.6307 C.3       5 UNK        -0.1800 
     49 N           3.2181  -15.0423  -43.9718 N.am      5 UNK        -0.5000 
     50 C           3.4921  -13.7891  -44.3622 C.2       4 UNK         0.5000 
     51 O           3.1054  -12.7881  -43.7577 O.2       4 UNK        -0.5000 
     52 CA          4.3422  -13.6043  -45.6353 C.3       4 UNK         0.1400 
     53 CB          5.7438  -13.0888  -45.2709 C.3       4 UNK        -0.1800 
     54 N           4.4916  -14.7869  -46.4904 N.am      4 UNK        -0.5000 
     55 C           3.5091  -15.4526  -47.1095 C.2       3 UNK         0.5000 
     56 O           2.3040  -15.2763  -46.9021 O.2       3 UNK        -0.5000 
     57 CA          3.9580  -16.5166  -48.1254 C.3       3 UNK         0.1400 
     58 CB          3.9133  -17.9144  -47.4888 C.3       3 UNK        -0.1800 
     59 N           3.0907  -16.5099  -49.2976 N.am      3 UNK        -0.5000 
     60 C           2.9439  -15.5021  -50.1729 C.2       2 UNK         0.5000 
     61 O           3.6614  -14.5025  -50.1963 O.2       2 UNK        -0.5000 
     62 CA          1.7661  -15.6222  -51.1654 C.3       2 UNK         0.1400 
     63 CB          2.2777  -15.9986  -52.5635 C.3       2 UNK        -0.1800 
     64 N           0.8250  -16.6482  -50.7133 N.am      2 UNK        -0.5000 
     65 C          -0.0998  -16.5316  -49.7515 C.2       1 UNK         0.5000 
     66 O          -0.4315  -17.5144  -49.0992 O.2       1 UNK        -0.5000 
     67 C          -3.3984  -23.5281  -45.4136 C.2       11 UNK         0.5000 
     68 O          -4.0122  -24.2752  -46.1748 O.2       11 UNK        -0.5000 
     69 N          -2.5358  -23.9653  -44.4855 N.am      12 UNK        -0.5000 
     70 CA         -2.1185  -25.3590  -44.3240 C.3       12 UNK         0.1400 
     71 CB         -1.3313  -25.4989  -43.0122 C.3       12 UNK        -0.1800 
     72 C          -1.2848  -25.8854  -45.5103 C.2       12 UNK         0.5000 
     73 O          -1.3745  -27.0709  -45.8314 O.2       12 UNK        -0.5000 
     74 N          -0.4969  -25.0023  -46.1390 N.am      13 UNK        -0.5000 
     75 CA          0.2852  -25.2956  -47.3402 C.3       13 UNK         0.1400 
     76 CB          1.4899  -24.3443  -47.3997 C.3       13 UNK        -0.1800 
     77 C          -0.5704  -25.1949  -48.6167 C.2       13 UNK         0.5000 
     78 O          -0.3727  -25.9845  -49.5416 O.2       13 UNK        -0.5000 
     79 N          -1.5131  -24.2403  -48.6352 N.am      14 UNK        -0.5000 
     80 CA         -2.4839  -23.9683  -49.6975 C.3       14 UNK         0.1400 
     81 CB         -3.5344  -25.0979  -49.7758 C.3       14 UNK        -0.1800 
     82 C          -1.7753  -23.6714  -51.0319 C.2       14 UNK         0.5000 
     83 O          -1.0750  -22.6647  -51.1250 O.2       14 UNK        -0.5000 
     84 N          -1.9171  -24.5615  -52.0226 N.am      15 UNK        -0.5000 
     85 CA         -1.2806  -24.4608  -53.3373 C.3       15 UNK         0.1400 
     86 CB         -1.7808  -25.6076  -54.2270 C.3       15 UNK        -0.1800 
     87 C           0.2608  -24.4410  -53.2886 C.2       15 UNK         0.5000 
     88 O           0.8781  -23.8362  -54.1652 O.2       15 UNK        -0.5000 
     89 N           0.8612  -25.0415  -52.2488 N.am      16 UNK        -0.5000 
     90 CA          2.3059  -24.9963  -52.0014 C.3       16 UNK         0.1400 
     91 CB          2.6972  -26.1109  -51.0196 C.3       16 UNK        -0.1800 
     92 C           2.7999  -23.6171  -51.5122 C.2       16 UNK         0.5000 
     93 O           3.9933  -23.3366  -51.6252 O.2       16 UNK        -0.5000 
     94 N           1.8833  -22.7725  -51.0177 N.am      17 UNK        -0.5000 
     95 CA          2.1142  -21.3623  -50.6956 C.3       17 UNK         0.1400 
     96 CB          1.5725  -21.0673  -49.2849 C.3       17 UNK        -0.1800 
     97 C           1.4971  -20.4310  -51.7607 C.2       17 UNK         0.5000 
     98 O           1.4144  -19.2251  -51.5293 O.2       17 UNK        -0.5000 
     99 N           1.0926  -20.9921  -52.9108 N.am      18 UNK        -0.5000 
    100 CA         0.4754  -20.3406  -54.0658 C.3       18 UNK         0.1400 
    101 CB         1.4614  -19.3669  -54.7482 C.3       18 UNK        -0.1800 
    102 C         -0.8871  -19.7089  -53.7235 C.2       18 UNK         0.5000 
    103 O         -1.8922  -20.4200  -53.7006 O.2       18 UNK        -0.5000 
    104 N         -0.9061  -18.3919  -53.4754 N.am      19 UNK        -0.5000 
    105 CA        -2.1072  -17.5689  -53.2962 C.3       19 UNK         0.1400 
    106 CB        -1.7135  -16.0838  -53.3403 C.3       19 UNK        -0.1800 
    107 C         -2.9633  -17.8930  -52.0534 C.2       19 UNK         0.5000 
    108 O         -4.0670  -17.3614  -51.9404 O.2       19 UNK        -0.5000 
    109 N         -2.4788  -18.7747  -51.1672 N.am      20 UNK        -0.5000 
    110 CA        -3.2630  -19.3803  -50.0886 C.3       20 UNK         0.1400 
    111 CB        -2.3388  -20.1350  -49.1265 C.3       20 UNK        -0.1800 
    112 C         -4.3827  -20.3040  -50.6055 C.2       20 UNK         0.5000 
    113 O         -5.3951  -20.4613  -49.9239 O.2       20 UNK        -0.5000 
    114 N         -4.2307  -20.8475  -51.8224 N.am      21 UNK        -0.5000 
    115 CA        -5.3194  -21.4430  -52.5981 C.3       21 UNK         0.1400 
    116 CB        -4.7344  -22.4668  -53.5870 C.3       21 UNK        -0.1800 
    117 C         -6.1272  -20.3225  -53.2906 C.2       21 UNK         0.5000 
    118 O         -6.1452  -20.2313  -54.5196 O.2       21 UNK        -0.5000 
    119 N         -6.7211  -19.4471  -52.4718 N.am      22 UNK        -0.5000 
    120 CA        -7.4571  -18.2434  -52.8749 C.3       22 UNK         0.1400 
    121 C         -8.7908  -18.5353  -53.6233 C.2       22 UNK         0.5000 
    122 N         -9.2895  -17.5817  -54.3994 N.am      22 UNK        -0.7600 
    123 O         -9.3921  -19.6003  -53.4947 O.2       22 UNK        -0.5000 
    124 C124       -7.6461  -17.2761  -51.6737 C.3       23 UNK        -0.0398 
    125 S125       -8.5835  -17.9878  -50.2767 S.3       23 UNK        -0.2404 
    126 C126       -8.3626  -16.7056  -48.9969 C.3       23 UNK        -0.0205 
    127 H127        1.0509  -11.3107  -47.8424 H         1 UNK         0.0600 
    128 H128        2.3573  -12.2512  -48.5740 H         1 UNK         0.0600 
    129 H129        1.5454  -12.8371  -47.1202 H         1 UNK         0.0600 
    130 H130        0.6688  -14.7927  -47.9531 H         1 UNK         0.3000 
    131 H131       -0.9816  -14.7227  -50.4303 H         1 UNK         0.0600 
    132 H132       -1.9733  -15.7933  -47.7490 H         1 UNK         0.0800 
    133 H133       -2.7252  -16.1490  -49.2820 H         1 UNK         0.0800 
    134 H134       -3.6320  -14.4140  -46.3228 H         1 UNK         0.0800 
    135 H135       -4.9335  -13.5032  -47.0332 H         1 UNK         0.0800 
    136 H136       -6.6308  -14.6472  -48.5065 H         1 UNK         0.1150 
    137 H137       -7.0798  -18.8740  -47.9257 H         1 UNK         0.1150 
    138 H138       -3.6315  -16.8613  -46.3853 H         1 UNK         0.1150 
    139 H139       -5.0622  -20.1207  -47.3139 H         1 UNK         0.0800 
    140 H140       -3.6524  -19.3081  -46.6596 H         1 UNK         0.0800 
    141 H141       -5.7025  -22.0964  -45.0888 H         1 UNK         0.0800 
    142 H142       -4.7112  -21.7345  -43.7105 H         1 UNK         0.0800 
    143 H143       -3.7647  -21.8435  -46.6140 H         1 UNK         0.0600 
    144 H144       -2.4441  -20.5736  -44.4511 H         1 UNK         0.3000 
    145 H145        0.8965  -20.9324  -45.7388 H         1 UNK         0.0600 
    146 H146        0.7004  -18.4357  -45.4555 H         1 UNK         0.0600 
    147 H147       -1.0517  -18.5686  -45.6149 H         1 UNK         0.0600 
    148 H148       -0.0026  -19.0206  -46.9505 H         1 UNK         0.0600 
    149 H149       -0.5698  -19.8119  -43.4293 H         1 UNK         0.3000 
    150 H150        0.3923  -22.4238  -41.2458 H         1 UNK         0.0600 
    151 H151        1.5235  -19.5757  -41.3178 H         1 UNK         0.0600 
    152 H152        2.4810  -21.0493  -41.2472 H         1 UNK         0.0600 
    153 H153        1.4373  -20.6219  -39.9007 H         1 UNK         0.0600 
    154 H154       -0.8736  -19.9098  -40.7701 H         1 UNK         0.3000 
    155 H155       -4.1762  -20.8485  -41.7037 H         1 UNK         0.0600 
    156 H156       -3.8516  -21.9136  -39.4620 H         1 UNK         0.0600 
    157 H157       -4.6776  -20.3693  -39.3444 H         1 UNK         0.0600 
    158 H158       -2.9708  -20.4916  -38.9154 H         1 UNK         0.0600 
    159 H159       -3.5637  -18.5243  -40.4558 H         1 UNK         0.3000 
    160 H160       -3.9429  -16.6306  -42.5582 H         1 UNK         0.0600 
    161 H161       -1.6072  -16.5943  -40.5516 H         1 UNK         0.0600 
    162 H162       -3.3239  -16.6139  -40.1458 H         1 UNK         0.0600 
    163 H163       -2.6249  -15.2062  -40.9104 H         1 UNK         0.0600 
    164 H164       -1.2368  -16.9096  -43.5453 H         1 UNK         0.3000 
    165 H165       -1.1040  -15.0970  -45.6885 H         1 UNK         0.0600 
    166 H166       -0.1245  -12.7857  -45.5537 H         1 UNK         0.0600 
    167 H167       -1.8723  -12.7714  -45.4164 H         1 UNK         0.0600 
    168 H168       -0.8760  -12.5667  -43.9791 H         1 UNK         0.0600 
    169 H169        0.9739  -15.4573  -44.9707 H         1 UNK         0.3000 
    170 H170        2.7559  -14.9152  -41.9511 H         1 UNK         0.0600 
    171 H171        2.0299  -17.4602  -43.5066 H         1 UNK         0.0600 
    172 H172        3.3969  -17.2631  -42.4103 H         1 UNK         0.0600 
    173 H173        1.7560  -17.2018  -41.7877 H         1 UNK         0.0600 
    174 H174        3.5806  -15.8013  -44.5286 H         1 UNK         0.3000 
    175 H175        3.8475  -12.8362  -46.2323 H         1 UNK         0.0600 
    176 H176        6.3063  -13.8275  -44.6986 H         1 UNK         0.0600 
    177 H177        6.3199  -12.8437  -46.1634 H         1 UNK         0.0600 
    178 H178        5.6857  -12.1816  -44.6677 H         1 UNK         0.0600 
    179 H179        5.4446  -15.0403  -46.7079 H         1 UNK         0.3000 
    180 H180        4.9776  -16.3031  -48.4525 H         1 UNK         0.0600 
    181 H181        4.5704  -17.9708  -46.6200 H         1 UNK         0.0600 
    182 H182        4.2405  -18.6797  -48.1930 H         1 UNK         0.0600 
    183 H183        2.9067  -18.1745  -47.1572 H         1 UNK         0.0600 
    184 H184        2.4234  -17.2654  -49.3514 H         1 UNK         0.3000 
    185 H185        1.2694  -14.6546  -51.2380 H         1 UNK         0.0600 
    186 H186        2.9633  -15.2405  -52.9441 H         1 UNK         0.0600 
    187 H187        2.8136  -16.9485  -52.5524 H         1 UNK         0.0600 
    188 H188        1.4583  -16.0809  -53.2769 H         1 UNK         0.0600 
    189 H189        1.0989  -17.5988  -50.9617 H         1 UNK         0.3000 
    190 H190       -2.1518  -23.2973  -43.8242 H         1 UNK         0.3000 
    191 H191       -3.0170  -25.9754  -44.2511 H         1 UNK         0.0600 
    192 H192       -1.9442  -25.2228  -42.1540 H         1 UNK         0.0600 
    193 H193       -0.4437  -24.8648  -43.0070 H         1 UNK         0.0600 
    194 H194       -1.0032  -26.5278  -42.8590 H         1 UNK         0.0600 
    195 H195       -0.5120  -24.0375  -45.8371 H         1 UNK         0.3000 
    196 H196        0.6684  -26.3164  -47.2795 H         1 UNK         0.0600 
    197 H197        2.1578  -24.5060  -46.5536 H         1 UNK         0.0600 
    198 H198        1.1789  -23.3017  -47.3785 H         1 UNK         0.0600 
    199 H199        2.0736  -24.4912  -48.3077 H         1 UNK         0.0600 
    200 H200       -1.5037  -23.5667  -47.8739 H         1 UNK         0.3000 
    201 H201       -3.0071  -23.0545  -49.4169 H         1 UNK         0.0600 
    202 H202       -4.0571  -25.2037  -48.8252 H         1 UNK         0.0600 
    203 H203       -3.0897  -26.0652  -50.0118 H         1 UNK         0.0600 
    204 H204       -4.2898  -24.8809  -50.5322 H         1 UNK         0.0600 
    205 H205       -2.4735  -25.3861  -51.8512 H         1 UNK         0.3000 
    206 H206       -1.6008  -23.5166  -53.7837 H         1 UNK         0.0600 
    207 H207       -1.5191  -26.5818  -53.8120 H         1 UNK         0.0600 
    208 H208       -2.8640  -25.5712  -54.3454 H         1 UNK         0.0600 
    209 H209       -1.3443  -25.5471  -55.2249 H         1 UNK         0.0600 
    210 H210        0.2914  -25.4903  -51.5396 H         1 UNK         0.3000 
    211 H211        2.8159  -25.1989  -52.9458 H         1 UNK         0.0600 
    212 H212        2.2192  -25.9867  -50.0500 H         1 UNK         0.0600 
    213 H213        3.7751  -26.1241  -50.8531 H         1 UNK         0.0600 
    214 H214        2.4170  -27.0910  -51.4059 H         1 UNK         0.0600 
    215 H215        0.9099  -23.0595  -50.9931 H         1 UNK         0.3000 
    216 H216        3.1831  -21.1412  -50.6890 H         1 UNK         0.0600 
    217 H217        1.5820  -20.0004  -49.0576 H         1 UNK         0.0600 
    218 H218        2.1871  -21.5548  -48.5296 H         1 UNK         0.0600 
    219 H219        0.5497  -21.4214  -49.1616 H         1 UNK         0.0600 
    220 H220        1.1854  -21.9954  -52.9984 H         1 UNK         0.3000 
    221 H221        0.2643  -21.1354  -54.7828 H         1 UNK         0.0600 
    222 H222        1.7987  -18.5741  -54.0821 H         1 UNK         0.0600 
    223 H223        2.3470  -19.8972  -55.0984 H         1 UNK         0.0600 
    224 H224        1.0050  -18.8945  -55.6190 H         1 UNK         0.0600 
    225 H225       -0.0221  -17.9054  -53.4604 H         1 UNK         0.3000 
    226 H226       -2.7520  -17.7597  -54.1565 H         1 UNK         0.0600 
    227 H227       -1.2458  -15.8298  -54.2916 H         1 UNK         0.0600 
    228 H228       -2.5871  -15.4399  -53.2299 H         1 UNK         0.0600 
    229 H229       -1.0156  -15.8251  -52.5480 H         1 UNK         0.0600 
    230 H230       -1.5525  -19.1478  -51.3181 H         1 UNK         0.3000 
    231 H231       -3.7491  -18.5775  -49.5309 H         1 UNK         0.0600 
    232 H232       -2.8891  -20.8551  -48.5236 H         1 UNK         0.0600 
    233 H233       -1.8548  -19.4543  -48.4307 H         1 UNK         0.0600 
    234 H234       -1.5603  -20.6776  -49.6557 H         1 UNK         0.0600 
    235 H235       -3.3761  -20.6568  -52.3377 H         1 UNK         0.3000 
    236 H236       -5.9987  -21.9786  -51.9315 H         1 UNK         0.0600 
    237 H237       -4.0241  -22.0069  -54.2746 H         1 UNK         0.0600 
    238 H238       -4.2202  -23.2699  -53.0610 H         1 UNK         0.0600 
    239 H239       -5.5223  -22.9255  -54.1854 H         1 UNK         0.0600 
    240 H240       -6.6516  -19.6035  -51.4735 H         1 UNK         0.3000 
    241 H241       -6.8143  -17.7304  -53.5931 H         1 UNK         0.0600 
    242 H242       -8.8204  -16.6980  -54.5252 H         1 UNK         0.3800 
    243 H243      -10.1576  -17.7512  -54.8840 H         1 UNK         0.3800 
    244 H244       -8.1408  -16.3583  -51.9951 H         1 UNK         0.0800 
    245 H245       -6.6678  -16.9682  -51.3017 H         1 UNK         0.0800 
    246 H246       -8.5368  -15.7245  -49.4415 H         1 UNK         0.0800 
    247 H247       -9.1362  -16.8390  -48.2398 H         1 UNK         0.0800 
@<TRIPOS>BOND
     1    1    2 1    
     2    1  127 1    
     3    1  128 1    
     4    1  129 1    
     5    2    3 2    
     6    2    4 am   BACKBONE|DICT|INTERRES
     7    4    5 1    
     8    4  130 1    
     9    5    6 1    
    10    5   65 1    
    11    5  131 1    
    12    6    7 1    
    13    6  132 1    
    14    6  133 1    
    15    7    8 1    
    16    8    9 1    
    17    8  134 1    
    18    8  135 1    
    19    9   10 ar   
    20    9   14 ar   
    21   10   11 ar   
    22   10  136 1    
    23   11   12 ar   
    24   11  126 1    
    25   12   13 ar   
    26   12  137 1    
    27   13   14 ar   
    28   13   15 1    
    29   14  138 1    
    30   15   16 1    
    31   15  139 1    
    32   15  140 1    
    33   16   17 1    
    34   17   18 1    
    35   17  141 1    
    36   17  142 1    
    37   18   19 1    
    38   18   67 1    
    39   18  143 1    
    40   19   20 am   BACKBONE|DICT|INTERRES
    41   19  144 1    
    42   20   21 2    
    43   20   22 1    
    44   22   23 1    
    45   22   24 1    
    46   22  145 1    
    47   23  146 1    
    48   23  147 1    
    49   23  148 1    
    50   24   25 am   BACKBONE|DICT|INTERRES
    51   24  149 1    
    52   25   26 2    
    53   25   27 1    
    54   27   28 1    
    55   27   29 1    
    56   27  150 1    
    57   28  151 1    
    58   28  152 1    
    59   28  153 1    
    60   29   30 am   BACKBONE|DICT|INTERRES
    61   29  154 1    
    62   30   31 2    
    63   30   32 1    
    64   32   33 1    
    65   32   34 1    
    66   32  155 1    
    67   33  156 1    
    68   33  157 1    
    69   33  158 1    
    70   34   35 am   BACKBONE|DICT|INTERRES
    71   34  159 1    
    72   35   36 2    
    73   35   37 1    
    74   37   38 1    
    75   37   39 1    
    76   37  160 1    
    77   38  161 1    
    78   38  162 1    
    79   38  163 1    
    80   39   40 am   BACKBONE|DICT|INTERRES
    81   39  164 1    
    82   40   41 2    
    83   40   42 1    
    84   42   43 1    
    85   42   44 1    
    86   42  165 1    
    87   43  166 1    
    88   43  167 1    
    89   43  168 1    
    90   44   45 am   BACKBONE|DICT|INTERRES
    91   44  169 1    
    92   45   46 2    
    93   45   47 1    
    94   47   48 1    
    95   47   49 1    
    96   47  170 1    
    97   48  171 1    
    98   48  172 1    
    99   48  173 1    
   100   49   50 am   BACKBONE|DICT|INTERRES
   101   49  174 1    
   102   50   51 2    
   103   50   52 1    
   104   52   53 1    
   105   52   54 1    
   106   52  175 1    
   107   53  176 1    
   108   53  177 1    
   109   53  178 1    
   110   54   55 am   BACKBONE|DICT|INTERRES
   111   54  179 1    
   112   55   56 2    
   113   55   57 1    
   114   57   58 1    
   115   57   59 1    
   116   57  180 1    
   117   58  181 1    
   118   58  182 1    
   119   58  183 1    
   120   59   60 am   BACKBONE|DICT|INTERRES
   121   59  184 1    
   122   60   61 2    
   123   60   62 1    
   124   62   63 1    
   125   62   64 1    
   126   62  185 1    
   127   63  186 1    
   128   63  187 1    
   129   63  188 1    
   130   64   65 am   BACKBONE|DICT|INTERRES
   131   64  189 1    
   132   65   66 2    
   133   67   68 2    
   134   67   69 am   BACKBONE|DICT|INTERRES
   135   69   70 1    
   136   69  190 1    
   137   70   71 1    
   138   70   72 1    
   139   70  191 1    
   140   71  192 1    
   141   71  193 1    
   142   71  194 1    
   143   72   73 2    
   144   72   74 am   BACKBONE|DICT|INTERRES
   145   74   75 1    
   146   74  195 1    
   147   75   76 1    
   148   75   77 1    
   149   75  196 1    
   150   76  197 1    
   151   76  198 1    
   152   76  199 1    
   153   77   78 2    
   154   77   79 am   BACKBONE|DICT|INTERRES
   155   79   80 1    
   156   79  200 1    
   157   80   81 1    
   158   80   82 1    
   159   80  201 1    
   160   81  202 1    
   161   81  203 1    
   162   81  204 1    
   163   82   83 2    
   164   82   84 am   BACKBONE|DICT|INTERRES
   165   84   85 1    
   166   84  205 1    
   167   85   86 1    
   168   85   87 1    
   169   85  206 1    
   170   86  207 1    
   171   86  208 1    
   172   86  209 1    
   173   87   88 2    
   174   87   89 am   BACKBONE|DICT|INTERRES
   175   89   90 1    
   176   89  210 1    
   177   90   91 1    
   178   90   92 1    
   179   90  211 1    
   180   91  212 1    
   181   91  213 1    
   182   91  214 1    
   183   92   93 2    
   184   92   94 am   BACKBONE|DICT|INTERRES
   185   94   95 1    
   186   94  215 1    
   187   95   96 1    
   188   95   97 1    
   189   95  216 1    
   190   96  217 1    
   191   96  218 1    
   192   96  219 1    
   193   97   98 2    
   194   97   99 am   BACKBONE|DICT|INTERRES
   195   99  100 1    
   196   99  220 1    
   197  100  101 1    
   198  100  102 1    
   199  100  221 1    
   200  101  222 1    
   201  101  223 1    
   202  101  224 1    
   203  102  103 2    
   204  102  104 am   BACKBONE|DICT|INTERRES
   205  104  105 1    
   206  104  225 1    
   207  105  106 1    
   208  105  107 1    
   209  105  226 1    
   210  106  227 1    
   211  106  228 1    
   212  106  229 1    
   213  107  108 2    
   214  107  109 am   BACKBONE|DICT|INTERRES
   215  109  110 1    
   216  109  230 1    
   217  110  111 1    
   218  110  112 1    
   219  110  231 1    
   220  111  232 1    
   221  111  233 1    
   222  111  234 1    
   223  112  113 2    
   224  112  114 am   BACKBONE|DICT|INTERRES
   225  114  115 1    
   226  114  235 1    
   227  115  116 1    
   228  115  117 1    
   229  115  236 1    
   230  116  237 1    
   231  116  238 1    
   232  116  239 1    
   233  117  118 2    
   234  117  119 am   BACKBONE|DICT|INTERRES
   235  119  120 1    
   236  119  240 1    
   237  120  121 1    
   238  120  124 1    
   239  120  241 1    
   240  121  122 am   BACKBONE|DICT|INTERRES
   241  121  123 2    
   242  122  242 1    
   243  122  243 1    
   244  124  125 1    
   245  124  244 1    
   246  124  245 1    
   247  125  126 1    
   248  126  246 1    
   249  126  247 1    
@<TRIPOS>SUBSTRUCTURE
     1 UNK         1 GROUP             0       ****    0 ROOT    
