@<TRIPOS>MOLECULE
3R540
247   249    1
SMALL
USER_CHARGES


@<TRIPOS>ATOM
      1 CA         -6.8659  -17.2601  -47.9746 C.3       0 UNK        -0.1800 
      2 C          -5.6181  -16.8524  -48.7429 C.2       0 UNK         0.5000 
      3 O          -5.7240  -16.1387  -49.7411 O.2       0 UNK        -0.5000 
      4 N          -4.4465  -17.3067  -48.2790 N.am      1 UNK        -0.5000 
      5 CA         -3.1228  -17.0282  -48.8496 C.3       1 UNK         0.1400 
      6 C6         -2.0298  -17.9427  -48.2362 C.3       23 UNK        -0.0398 
      7 S7         -2.4423  -19.7223  -48.2298 S.3       23 UNK        -0.2404 
      8 C8         -1.9583  -20.2765  -49.8959 C.3       23 UNK        -0.0205 
      9 C9         -0.4928  -20.0220  -50.2161 C.ar      23 UNK        -0.0193 
     10 C10        -0.1499  -19.2644  -51.3382 C.ar      23 UNK        -0.1150 
     11 C11         1.1908  -19.0144  -51.6449 C.ar      23 UNK        -0.0193 
     12 C12         2.1922  -19.5249  -50.8153 C.ar      23 UNK        -0.1150 
     13 C13         1.8632  -20.2984  -49.6987 C.ar      23 UNK        -0.0193 
     14 C14         0.5195  -20.5530  -49.4099 C.ar      23 UNK        -0.1150 
     15 C15         2.9654  -20.8402  -48.8038 C.3       23 UNK        -0.0205 
     16 S16         3.6416  -22.4076  -49.4314 S.3       23 UNK        -0.2404 
     17 C17         2.7911  -23.6261  -48.3704 C.3       23 UNK        -0.0398 
     18 CA          3.6883  -24.0884  -47.1925 C.3       11 UNK         0.1400 
     19 N           3.9845  -22.9789  -46.2785 N.am      11 UNK        -0.5000 
     20 C           5.2005  -22.6462  -45.8280 C.2       10 UNK         0.5000 
     21 O           6.2363  -23.2277  -46.1523 O.2       10 UNK        -0.5000 
     22 CA          5.2744  -21.4744  -44.8287 C.3       10 UNK         0.1400 
     23 CB          5.6637  -20.1756  -45.5508 C.3       10 UNK        -0.1800 
     24 N           4.0236  -21.2687  -44.0916 N.am      10 UNK        -0.5000 
     25 C           3.5704  -22.0969  -43.1379 C.2       9 UNK         0.5000 
     26 O           4.1725  -23.1093  -42.7802 O.2       9 UNK        -0.5000 
     27 CA          2.2030  -21.7829  -42.4997 C.3       9 UNK         0.1400 
     28 CB          2.3943  -20.9937  -41.1961 C.3       9 UNK        -0.1800 
     29 N           1.2770  -21.0547  -43.3671 N.am      9 UNK        -0.5000 
     30 C           0.8411  -21.4663  -44.5659 C.2       8 UNK         0.5000 
     31 O           1.1915  -22.5173  -45.1056 O.2       8 UNK        -0.5000 
     32 CA         -0.0928  -20.5048  -45.3192 C.3       8 UNK         0.1400 
     33 CB         -1.5330  -20.6579  -44.8159 C.3       8 UNK        -0.1800 
     34 N           0.3071  -19.0982  -45.2312 N.am      8 UNK        -0.5000 
     35 C           1.5111  -18.6100  -45.5673 C.2       7 UNK         0.5000 
     36 O           2.4637  -19.3026  -45.9185 O.2       7 UNK        -0.5000 
     37 CA          1.6921  -17.0913  -45.4592 C.3       7 UNK         0.1400 
     38 CB          1.0041  -16.3735  -46.6299 C.3       7 UNK        -0.1800 
     39 N           1.1831  -16.6004  -44.1799 N.am      7 UNK        -0.5000 
     40 C           1.8672  -16.6909  -43.0300 C.2       6 UNK         0.5000 
     41 O           3.0389  -17.0624  -42.9573 O.2       6 UNK        -0.5000 
     42 CA          1.1106  -16.3391  -41.7364 C.3       6 UNK         0.1400 
     43 CB          1.2961  -14.8558  -41.3831 C.3       6 UNK        -0.1800 
     44 N          -0.3173  -16.6568  -41.8056 N.am      6 UNK        -0.5000 
     45 C          -0.8092  -17.9048  -41.8401 C.2       5 UNK         0.5000 
     46 O          -0.1070  -18.9157  -41.8281 O.2       5 UNK        -0.5000 
     47 CA         -2.3401  -18.0549  -41.9393 C.3       5 UNK         0.1400 
     48 CB         -2.9644  -18.1147  -40.5378 C.3       5 UNK        -0.1800 
     49 N          -2.9981  -17.0010  -42.7131 N.am      5 UNK        -0.5000 
     50 C          -2.7345  -16.6928  -43.9896 C.2       4 UNK         0.5000 
     51 O          -1.8725  -17.2620  -44.6635 O.2       4 UNK        -0.5000 
     52 CA         -3.5355  -15.5346  -44.6208 C.3       4 UNK         0.1400 
     53 CB         -4.4855  -14.8065  -43.6442 C.3       4 UNK        -0.1800 
     54 N          -2.6531  -14.5719  -45.2835 N.am      4 UNK        -0.5000 
     55 C          -1.6169  -13.9134  -44.7402 C.2       3 UNK         0.5000 
     56 O          -1.2924  -14.0143  -43.5563 O.2       3 UNK        -0.5000 
     57 CA         -0.7920  -13.0244  -45.6898 C.3       3 UNK         0.1400 
     58 CB          0.6524  -12.8080  -45.1998 C.3       3 UNK        -0.1800 
     59 N          -0.7811  -13.5984  -47.0370 N.am      3 UNK        -0.5000 
     60 C          -1.0088  -12.9229  -48.1682 C.2       2 UNK         0.5000 
     61 O          -1.1387  -11.6992  -48.2177 O.2       2 UNK        -0.5000 
     62 CA         -1.1424  -13.7458  -49.4697 C.3       2 UNK         0.1400 
     63 CB          0.1883  -13.7518  -50.2362 C.3       2 UNK        -0.1800 
     64 N          -1.6157  -15.1343  -49.3353 N.am      2 UNK        -0.5000 
     65 C          -2.7346  -15.5334  -48.7098 C.2       1 UNK         0.5000 
     66 O          -3.4264  -14.7737  -48.0276 O.2       1 UNK        -0.5000 
     67 C           3.0404  -25.2693  -46.4355 C.2       11 UNK         0.5000 
     68 O           2.7247  -26.2809  -47.0631 O.2       11 UNK        -0.5000 
     69 N           2.8333  -25.1170  -45.1161 N.am      12 UNK        -0.5000 
     70 CA          2.0905  -26.0058  -44.2143 C.3       12 UNK         0.1400 
     71 CB          2.8386  -27.3410  -44.0210 C.3       12 UNK        -0.1800 
     72 C           0.6151  -26.1923  -44.6374 C.2       12 UNK         0.5000 
     73 O           0.0374  -27.2603  -44.4242 O.2       12 UNK        -0.5000 
     74 N           0.0385  -25.1492  -45.2465 N.am      13 UNK        -0.5000 
     75 CA         -1.3314  -25.1166  -45.7438 C.3       13 UNK         0.1400 
     76 CB         -1.3888  -24.1629  -46.9504 C.3       13 UNK        -0.1800 
     77 C          -2.3096  -24.6702  -44.6443 C.2       13 UNK         0.5000 
     78 O          -1.9121  -24.0070  -43.6841 O.2       13 UNK        -0.5000 
     79 N          -3.5901  -25.0064  -44.8376 N.am      14 UNK        -0.5000 
     80 CA         -4.7011  -24.6426  -43.9509 C.3       14 UNK         0.1400 
     81 CB         -5.7767  -25.7379  -44.0548 C.3       14 UNK        -0.1800 
     82 C          -5.3043  -23.2547  -44.2639 C.2       14 UNK         0.5000 
     83 O          -6.2977  -22.8791  -43.6411 O.2       14 UNK        -0.5000 
     84 N          -4.7242  -22.5421  -45.2430 N.am      15 UNK        -0.5000 
     85 CA         -5.1727  -21.2633  -45.8124 C.3       15 UNK         0.1400 
     86 CB         -5.2259  -20.1461  -44.7466 C.3       15 UNK        -0.1800 
     87 C          -6.4819  -21.3865  -46.6229 C.2       15 UNK         0.5000 
     88 O          -7.1985  -20.3993  -46.7882 O.2       15 UNK        -0.5000 
     89 N          -6.7687  -22.5981  -47.1212 N.am      16 UNK        -0.5000 
     90 CA         -7.9282  -22.8994  -47.9618 C.3       16 UNK         0.1400 
     91 CB         -8.2185  -24.4067  -47.8901 C.3       16 UNK        -0.1800 
     92 C          -7.7259  -22.4541  -49.4225 C.2       16 UNK         0.5000 
     93 O          -8.6978  -22.0905  -50.0861 O.2       16 UNK        -0.5000 
     94 N          -6.4724  -22.4895  -49.8952 N.am      17 UNK        -0.5000 
     95 CA         -6.0647  -21.9828  -51.2038 C.3       17 UNK         0.1400 
     96 CB         -4.7275  -22.6264  -51.5995 C.3       17 UNK        -0.1800 
     97 C          -5.9479  -20.4496  -51.1745 C.2       17 UNK         0.5000 
     98 O          -5.5255  -19.8887  -50.1626 O.2       17 UNK        -0.5000 
     99 N          -6.3223  -19.8061  -52.2840 N.am      18 UNK        -0.5000 
    100 CA        -6.3002  -18.3543  -52.4388 C.3       18 UNK         0.1400 
    101 CB        -7.2734  -17.9699  -53.5652 C.3       18 UNK        -0.1800 
    102 C         -4.8923  -17.8238  -52.7604 C.2       18 UNK         0.5000 
    103 O         -4.0779  -18.5363  -53.3515 O.2       18 UNK        -0.5000 
    104 N         -4.6732  -16.5386  -52.4527 N.am      19 UNK        -0.5000 
    105 CA        -3.4776  -15.7510  -52.7762 C.3       19 UNK         0.1400 
    106 CB        -3.6581  -14.3327  -52.2160 C.3       19 UNK        -0.1800 
    107 C         -3.1499  -15.6755  -54.2813 C.2       19 UNK         0.5000 
    108 O         -1.9993  -15.4256  -54.6368 O.2       19 UNK        -0.5000 
    109 N         -4.1474  -15.9335  -55.1401 N.am      20 UNK        -0.5000 
    110 CA        -4.0127  -16.0739  -56.5922 C.3       20 UNK         0.1400 
    111 CB        -5.4005  -16.3345  -57.1966 C.3       20 UNK        -0.1800 
    112 C         -3.0223  -17.1776  -57.0204 C.2       20 UNK         0.5000 
    113 O         -2.4246  -17.0680  -58.0922 O.2       20 UNK        -0.5000 
    114 N         -2.8179  -18.1870  -56.1582 N.am      21 UNK        -0.5000 
    115 CA        -1.8090  -19.2372  -56.3154 C.3       21 UNK         0.1400 
    116 CB        -1.9934  -20.2792  -55.2009 C.3       21 UNK        -0.1800 
    117 C         -0.3586  -18.7102  -56.3153 C.2       21 UNK         0.5000 
    118 O          0.5244  -19.3883  -56.8419 O.2       21 UNK        -0.5000 
    119 N         -0.1344  -17.5208  -55.7390 N.am      22 UNK        -0.5000 
    120 CA         1.1628  -16.8281  -55.7224 C.3       22 UNK         0.1400 
    121 C          1.4986  -16.0894  -57.0530 C.2       22 UNK         0.5000 
    122 N          0.6005  -16.0172  -58.0301 N.am      22 UNK        -0.7600 
    123 O          2.6043  -15.5780  -57.2071 O.2       22 UNK        -0.5000 
    124 C124        1.2972  -15.8673  -54.5075 C.3       23 UNK        -0.0398 
    125 S125        0.8482  -16.5505  -52.8680 S.3       23 UNK        -0.2404 
    126 C126        1.5531  -18.2299  -52.8951 C.3       23 UNK        -0.0205 
    127 H127       -7.4212  -18.0103  -48.5380 H         1 UNK         0.0600 
    128 H128       -7.5130  -16.3971  -47.8181 H         1 UNK         0.0600 
    129 H129       -6.6193  -17.6792  -46.9990 H         1 UNK         0.0600 
    130 H130       -4.4444  -17.9226  -47.4808 H         1 UNK         0.3000 
    131 H131       -3.1833  -17.2466  -49.9175 H         1 UNK         0.0600 
    132 H132       -1.8615  -17.6678  -47.1961 H         1 UNK         0.0800 
    133 H133       -1.0718  -17.8052  -48.7385 H         1 UNK         0.0800 
    134 H134       -2.1413  -21.3479  -49.9679 H         1 UNK         0.0800 
    135 H135       -2.6123  -19.7999  -50.6287 H         1 UNK         0.0800 
    136 H136       -0.9252  -18.8692  -51.9801 H         1 UNK         0.1150 
    137 H137        3.2315  -19.3361  -51.0453 H         1 UNK         0.1150 
    138 H138        0.2585  -21.1590  -48.5557 H         1 UNK         0.1150 
    139 H139        3.7721  -20.1093  -48.7314 H         1 UNK         0.0800 
    140 H140        2.5937  -20.9777  -47.7896 H         1 UNK         0.0800 
    141 H141        1.8454  -23.2183  -48.0085 H         1 UNK         0.0800 
    142 H142        2.5289  -24.4717  -49.0087 H         1 UNK         0.0800 
    143 H143        4.6156  -24.4792  -47.6163 H         1 UNK         0.0600 
    144 H144        3.1827  -22.4595  -45.9413 H         1 UNK         0.3000 
    145 H145        6.0593  -21.7055  -44.1054 H         1 UNK         0.0600 
    146 H146        5.6970  -19.3317  -44.8615 H         1 UNK         0.0600 
    147 H147        4.9628  -19.9314  -46.3491 H         1 UNK         0.0600 
    148 H148        6.6515  -20.2658  -46.0043 H         1 UNK         0.0600 
    149 H149        3.4509  -20.4838  -44.3809 H         1 UNK         0.3000 
    150 H150        1.7340  -22.7382  -42.2554 H         1 UNK         0.0600 
    151 H151        3.0897  -21.5009  -40.5259 H         1 UNK         0.0600 
    152 H152        1.4513  -20.8850  -40.6602 H         1 UNK         0.0600 
    153 H153        2.7880  -19.9943  -41.3872 H         1 UNK         0.0600 
    154 H154        0.9067  -20.1853  -42.9942 H         1 UNK         0.3000 
    155 H155       -0.0699  -20.7757  -46.3740 H         1 UNK         0.0600 
    156 H156       -1.9313  -21.6382  -45.0697 H         1 UNK         0.0600 
    157 H157       -2.1933  -19.9151  -45.2611 H         1 UNK         0.0600 
    158 H158       -1.5915  -20.5589  -43.7332 H         1 UNK         0.0600 
    159 H159       -0.4210  -18.4453  -44.9548 H         1 UNK         0.3000 
    160 H160        2.7621  -16.8827  -45.5289 H         1 UNK         0.0600 
    161 H161       -0.0764  -16.3407  -46.5031 H         1 UNK         0.0600 
    162 H162        1.2124  -16.8731  -47.5775 H         1 UNK         0.0600 
    163 H163        1.3721  -15.3533  -46.7257 H         1 UNK         0.0600 
    164 H164        0.2073  -16.3385  -44.1385 H         1 UNK         0.3000 
    165 H165        1.5457  -16.9333  -40.9298 H         1 UNK         0.0600 
    166 H166        0.7819  -14.6018  -40.4561 H         1 UNK         0.0600 
    167 H167        2.3519  -14.6198  -41.2441 H         1 UNK         0.0600 
    168 H168        0.9185  -14.2012  -42.1683 H         1 UNK         0.0600 
    169 H169       -0.9553  -15.8754  -41.8763 H         1 UNK         0.3000 
    170 H170       -2.5501  -19.0009  -42.4380 H         1 UNK         0.0600 
    171 H171       -2.5121  -18.9092  -39.9425 H         1 UNK         0.0600 
    172 H172       -2.8266  -17.1786  -39.9953 H         1 UNK         0.0600 
    173 H173       -4.0339  -18.3196  -40.5901 H         1 UNK         0.0600 
    174 H174       -3.7030  -16.4646  -42.2289 H         1 UNK         0.3000 
    175 H175       -4.1456  -15.9830  -45.4061 H         1 UNK         0.0600 
    176 H176       -3.9486  -14.3486  -42.8125 H         1 UNK         0.0600 
    177 H177       -5.0320  -14.0144  -44.1562 H         1 UNK         0.0600 
    178 H178       -5.2307  -15.4877  -43.2314 H         1 UNK         0.0600 
    179 H179       -2.8485  -14.4342  -46.2723 H         1 UNK         0.3000 
    180 H180       -1.2946  -12.0553  -45.7028 H         1 UNK         0.0600 
    181 H181        0.6646  -12.2714  -44.2505 H         1 UNK         0.0600 
    182 H182        1.2273  -12.2167  -45.9125 H         1 UNK         0.0600 
    183 H183        1.1755  -13.7512  -45.0448 H         1 UNK         0.0600 
    184 H184       -0.6958  -14.6020  -47.0913 H         1 UNK         0.3000 
    185 H185       -1.8769  -13.2210  -50.0824 H         1 UNK         0.0600 
    186 H186        0.5877  -12.7423  -50.3431 H         1 UNK         0.0600 
    187 H187        0.9434  -14.3522  -49.7273 H         1 UNK         0.0600 
    188 H188        0.0591  -14.1513  -51.2417 H         1 UNK         0.0600 
    189 H189       -1.0842  -15.8152  -49.8583 H         1 UNK         0.3000 
    190 H190        3.1491  -24.2523  -44.7002 H         1 UNK         0.3000 
    191 H191        2.0638  -25.5005  -43.2478 H         1 UNK         0.0600 
    192 H192        2.3683  -27.9437  -43.2432 H         1 UNK         0.0600 
    193 H193        3.8721  -27.1727  -43.7183 H         1 UNK         0.0600 
    194 H194        2.8486  -27.9367  -44.9340 H         1 UNK         0.0600 
    195 H195        0.5514  -24.2727  -45.2935 H         1 UNK         0.3000 
    196 H196       -1.6178  -26.1156  -46.0798 H         1 UNK         0.0600 
    197 H197       -1.0886  -23.1499  -46.6846 H         1 UNK         0.0600 
    198 H198       -0.7262  -24.5025  -47.7468 H         1 UNK         0.0600 
    199 H199       -2.3941  -24.1103  -47.3697 H         1 UNK         0.0600 
    200 H200       -3.8332  -25.5561  -45.6496 H         1 UNK         0.3000 
    201 H201       -4.3447  -24.6144  -42.9190 H         1 UNK         0.0600 
    202 H202       -6.5992  -25.5501  -43.3632 H         1 UNK         0.0600 
    203 H203       -5.3673  -26.7173  -43.8066 H         1 UNK         0.0600 
    204 H204       -6.1993  -25.7946  -45.0587 H         1 UNK         0.0600 
    205 H205       -3.9095  -22.9484  -45.6772 H         1 UNK         0.3000 
    206 H206       -4.4075  -20.9823  -46.5345 H         1 UNK         0.0600 
    207 H207       -4.3225  -20.1280  -44.1384 H         1 UNK         0.0600 
    208 H208       -5.3209  -19.1661  -45.2150 H         1 UNK         0.0600 
    209 H209       -6.0757  -20.2675  -44.0747 H         1 UNK         0.0600 
    210 H210       -6.1418  -23.3614  -46.9187 H         1 UNK         0.3000 
    211 H211       -8.7968  -22.3675  -47.5675 H         1 UNK         0.0600 
    212 H212       -7.3825  -24.9981  -48.2658 H         1 UNK         0.0600 
    213 H213       -9.0957  -24.6633  -48.4856 H         1 UNK         0.0600 
    214 H214       -8.4190  -24.7211  -46.8656 H         1 UNK         0.0600 
    215 H215       -5.7303  -22.7493  -49.2644 H         1 UNK         0.3000 
    216 H216       -6.8155  -22.2672  -51.9443 H         1 UNK         0.0600 
    217 H217       -4.8294  -23.7059  -51.7119 H         1 UNK         0.0600 
    218 H218       -3.9571  -22.4407  -50.8525 H         1 UNK         0.0600 
    219 H219       -4.3669  -22.2320  -52.5506 H         1 UNK         0.0600 
    220 H220       -6.6085  -20.3386  -53.0922 H         1 UNK         0.3000 
    221 H221       -6.6496  -17.8975  -51.5112 H         1 UNK         0.0600 
    222 H222       -7.3287  -16.8872  -53.6858 H         1 UNK         0.0600 
    223 H223       -6.9687  -18.3923  -54.5238 H         1 UNK         0.0600 
    224 H224       -8.2830  -18.3206  -53.3502 H         1 UNK         0.0600 
    225 H225       -5.3694  -16.0642  -51.8894 H         1 UNK         0.3000 
    226 H226       -2.6268  -16.2201  -52.2784 H         1 UNK         0.0600 
    227 H227       -3.8786  -14.3485  -51.1494 H         1 UNK         0.0600 
    228 H228       -2.7529  -13.7403  -52.3561 H         1 UNK         0.0600 
    229 H229       -4.4744  -13.8070  -52.7129 H         1 UNK         0.0600 
    230 H230       -5.0610  -16.1177  -54.7546 H         1 UNK         0.3000 
    231 H231       -3.6363  -15.1265  -56.9830 H         1 UNK         0.0600 
    232 H232       -5.3441  -16.4197  -58.2827 H         1 UNK         0.0600 
    233 H233       -6.0891  -15.5199  -56.9717 H         1 UNK         0.0600 
    234 H234       -5.8371  -17.2592  -56.8169 H         1 UNK         0.0600 
    235 H235       -3.3361  -18.1980  -55.2860 H         1 UNK         0.3000 
    236 H236       -1.9825  -19.7253  -57.2765 H         1 UNK         0.0600 
    237 H237       -3.0028  -20.6911  -55.2056 H         1 UNK         0.0600 
    238 H238       -1.3009  -21.1125  -55.3254 H         1 UNK         0.0600 
    239 H239       -1.8125  -19.8481  -54.2154 H         1 UNK         0.0600 
    240 H240       -0.9080  -17.0034  -55.3361 H         1 UNK         0.3000 
    241 H241        1.9423  -17.5845  -55.6203 H         1 UNK         0.0600 
    242 H242       -0.3154  -16.4354  -57.9299 H         1 UNK         0.3800 
    243 H243        0.8385  -15.5398  -58.8852 H         1 UNK         0.3800 
    244 H244        0.6776  -14.9828  -54.6640 H         1 UNK         0.0800 
    245 H245        2.3227  -15.5010  -54.4372 H         1 UNK         0.0800 
    246 H246        2.6352  -18.1597  -53.0147 H         1 UNK         0.0800 
    247 H247        1.1784  -18.7909  -53.7495 H         1 UNK         0.0800 
@<TRIPOS>BOND
     1    1    2 1    
     2    1  127 1    
     3    1  128 1    
     4    1  129 1    
     5    2    3 2    
     6    2    4 am   BACKBONE|DICT|INTERRES
     7    4    5 1    
     8    4  130 1    
     9    5    6 1    
    10    5   65 1    
    11    5  131 1    
    12    6    7 1    
    13    6  132 1    
    14    6  133 1    
    15    7    8 1    
    16    8    9 1    
    17    8  134 1    
    18    8  135 1    
    19    9   10 ar   
    20    9   14 ar   
    21   10   11 ar   
    22   10  136 1    
    23   11   12 ar   
    24   11  126 1    
    25   12   13 ar   
    26   12  137 1    
    27   13   14 ar   
    28   13   15 1    
    29   14  138 1    
    30   15   16 1    
    31   15  139 1    
    32   15  140 1    
    33   16   17 1    
    34   17   18 1    
    35   17  141 1    
    36   17  142 1    
    37   18   19 1    
    38   18   67 1    
    39   18  143 1    
    40   19   20 am   BACKBONE|DICT|INTERRES
    41   19  144 1    
    42   20   21 2    
    43   20   22 1    
    44   22   23 1    
    45   22   24 1    
    46   22  145 1    
    47   23  146 1    
    48   23  147 1    
    49   23  148 1    
    50   24   25 am   BACKBONE|DICT|INTERRES
    51   24  149 1    
    52   25   26 2    
    53   25   27 1    
    54   27   28 1    
    55   27   29 1    
    56   27  150 1    
    57   28  151 1    
    58   28  152 1    
    59   28  153 1    
    60   29   30 am   BACKBONE|DICT|INTERRES
    61   29  154 1    
    62   30   31 2    
    63   30   32 1    
    64   32   33 1    
    65   32   34 1    
    66   32  155 1    
    67   33  156 1    
    68   33  157 1    
    69   33  158 1    
    70   34   35 am   BACKBONE|DICT|INTERRES
    71   34  159 1    
    72   35   36 2    
    73   35   37 1    
    74   37   38 1    
    75   37   39 1    
    76   37  160 1    
    77   38  161 1    
    78   38  162 1    
    79   38  163 1    
    80   39   40 am   BACKBONE|DICT|INTERRES
    81   39  164 1    
    82   40   41 2    
    83   40   42 1    
    84   42   43 1    
    85   42   44 1    
    86   42  165 1    
    87   43  166 1    
    88   43  167 1    
    89   43  168 1    
    90   44   45 am   BACKBONE|DICT|INTERRES
    91   44  169 1    
    92   45   46 2    
    93   45   47 1    
    94   47   48 1    
    95   47   49 1    
    96   47  170 1    
    97   48  171 1    
    98   48  172 1    
    99   48  173 1    
   100   49   50 am   BACKBONE|DICT|INTERRES
   101   49  174 1    
   102   50   51 2    
   103   50   52 1    
   104   52   53 1    
   105   52   54 1    
   106   52  175 1    
   107   53  176 1    
   108   53  177 1    
   109   53  178 1    
   110   54   55 am   BACKBONE|DICT|INTERRES
   111   54  179 1    
   112   55   56 2    
   113   55   57 1    
   114   57   58 1    
   115   57   59 1    
   116   57  180 1    
   117   58  181 1    
   118   58  182 1    
   119   58  183 1    
   120   59   60 am   BACKBONE|DICT|INTERRES
   121   59  184 1    
   122   60   61 2    
   123   60   62 1    
   124   62   63 1    
   125   62   64 1    
   126   62  185 1    
   127   63  186 1    
   128   63  187 1    
   129   63  188 1    
   130   64   65 am   BACKBONE|DICT|INTERRES
   131   64  189 1    
   132   65   66 2    
   133   67   68 2    
   134   67   69 am   BACKBONE|DICT|INTERRES
   135   69   70 1    
   136   69  190 1    
   137   70   71 1    
   138   70   72 1    
   139   70  191 1    
   140   71  192 1    
   141   71  193 1    
   142   71  194 1    
   143   72   73 2    
   144   72   74 am   BACKBONE|DICT|INTERRES
   145   74   75 1    
   146   74  195 1    
   147   75   76 1    
   148   75   77 1    
   149   75  196 1    
   150   76  197 1    
   151   76  198 1    
   152   76  199 1    
   153   77   78 2    
   154   77   79 am   BACKBONE|DICT|INTERRES
   155   79   80 1    
   156   79  200 1    
   157   80   81 1    
   158   80   82 1    
   159   80  201 1    
   160   81  202 1    
   161   81  203 1    
   162   81  204 1    
   163   82   83 2    
   164   82   84 am   BACKBONE|DICT|INTERRES
   165   84   85 1    
   166   84  205 1    
   167   85   86 1    
   168   85   87 1    
   169   85  206 1    
   170   86  207 1    
   171   86  208 1    
   172   86  209 1    
   173   87   88 2    
   174   87   89 am   BACKBONE|DICT|INTERRES
   175   89   90 1    
   176   89  210 1    
   177   90   91 1    
   178   90   92 1    
   179   90  211 1    
   180   91  212 1    
   181   91  213 1    
   182   91  214 1    
   183   92   93 2    
   184   92   94 am   BACKBONE|DICT|INTERRES
   185   94   95 1    
   186   94  215 1    
   187   95   96 1    
   188   95   97 1    
   189   95  216 1    
   190   96  217 1    
   191   96  218 1    
   192   96  219 1    
   193   97   98 2    
   194   97   99 am   BACKBONE|DICT|INTERRES
   195   99  100 1    
   196   99  220 1    
   197  100  101 1    
   198  100  102 1    
   199  100  221 1    
   200  101  222 1    
   201  101  223 1    
   202  101  224 1    
   203  102  103 2    
   204  102  104 am   BACKBONE|DICT|INTERRES
   205  104  105 1    
   206  104  225 1    
   207  105  106 1    
   208  105  107 1    
   209  105  226 1    
   210  106  227 1    
   211  106  228 1    
   212  106  229 1    
   213  107  108 2    
   214  107  109 am   BACKBONE|DICT|INTERRES
   215  109  110 1    
   216  109  230 1    
   217  110  111 1    
   218  110  112 1    
   219  110  231 1    
   220  111  232 1    
   221  111  233 1    
   222  111  234 1    
   223  112  113 2    
   224  112  114 am   BACKBONE|DICT|INTERRES
   225  114  115 1    
   226  114  235 1    
   227  115  116 1    
   228  115  117 1    
   229  115  236 1    
   230  116  237 1    
   231  116  238 1    
   232  116  239 1    
   233  117  118 2    
   234  117  119 am   BACKBONE|DICT|INTERRES
   235  119  120 1    
   236  119  240 1    
   237  120  121 1    
   238  120  124 1    
   239  120  241 1    
   240  121  122 am   BACKBONE|DICT|INTERRES
   241  121  123 2    
   242  122  242 1    
   243  122  243 1    
   244  124  125 1    
   245  124  244 1    
   246  124  245 1    
   247  125  126 1    
   248  126  246 1    
   249  126  247 1    
@<TRIPOS>SUBSTRUCTURE
     1 UNK         1 GROUP             0       ****    0 ROOT    
