@<TRIPOS>MOLECULE
3R540
247   249    1
SMALL
USER_CHARGES


@<TRIPOS>ATOM
      1 CA          4.2237   -9.9588  -43.2360 C.3       0 UNK        -0.1800 
      2 C           3.3773  -11.0430  -43.8877 C.2       0 UNK         0.5000 
      3 O           2.2126  -11.2073  -43.5266 O.2       0 UNK        -0.5000 
      4 N           3.9605  -11.7815  -44.8419 N.am      1 UNK        -0.5000 
      5 CA          3.2962  -12.8526  -45.5947 C.3       1 UNK         0.1400 
      6 C6          4.3314  -13.7579  -46.3108 C.3       23 UNK        -0.0398 
      7 S7          3.6977  -15.4325  -46.6599 S.3       23 UNK        -0.2404 
      8 C8          4.2527  -15.6784  -48.3735 C.3       23 UNK        -0.0205 
      9 C9          3.7543  -16.9947  -48.9560 C.ar      23 UNK        -0.0193 
     10 C10         2.7012  -17.0018  -49.8760 C.ar      23 UNK        -0.1150 
     11 C11         2.2725  -18.1958  -50.4607 C.ar      23 UNK        -0.0193 
     12 C12         2.9076  -19.3911  -50.1215 C.ar      23 UNK        -0.1150 
     13 C13         3.9392  -19.4075  -49.1787 C.ar      23 UNK        -0.0193 
     14 C14         4.3629  -18.2044  -48.6028 C.ar      23 UNK        -0.1150 
     15 C15         4.5994  -20.7261  -48.7995 C.3       23 UNK        -0.0205 
     16 S16         3.7408  -21.5607  -47.4253 S.3       23 UNK        -0.2404 
     17 C17         2.1276  -21.9514  -48.1838 C.3       23 UNK        -0.0398 
     18 CA          1.3186  -23.0064  -47.3950 C.3       11 UNK         0.1400 
     19 N           0.9705  -22.5592  -46.0419 N.am      11 UNK        -0.5000 
     20 C           0.3695  -23.3203  -45.1156 C.2       10 UNK         0.5000 
     21 O           0.1007  -24.5115  -45.2768 O.2       10 UNK        -0.5000 
     22 CA         -0.0552  -22.6183  -43.8135 C.3       10 UNK         0.1400 
     23 CB          1.1296  -22.4673  -42.8472 C.3       10 UNK        -0.1800 
     24 N          -0.6593  -21.3106  -44.0740 N.am      10 UNK        -0.5000 
     25 C          -1.8632  -21.1401  -44.6395 C.2       9 UNK         0.5000 
     26 O          -2.6092  -22.0687  -44.9445 O.2       9 UNK        -0.5000 
     27 CA         -2.2913  -19.6977  -44.9634 C.3       9 UNK         0.1400 
     28 CB         -2.9946  -19.0454  -43.7650 C.3       9 UNK        -0.1800 
     29 N          -1.1697  -18.8637  -45.3886 N.am      9 UNK        -0.5000 
     30 C          -0.5088  -19.0335  -46.5432 C.2       8 UNK         0.5000 
     31 O          -0.7915  -19.9006  -47.3652 O.2       8 UNK        -0.5000 
     32 CA          0.7002  -18.1187  -46.7941 C.3       8 UNK         0.1400 
     33 CB          0.2214  -16.8025  -47.4168 C.3       8 UNK        -0.1800 
     34 N           1.4546  -17.8408  -45.5702 N.am      8 UNK        -0.5000 
     35 C           2.0499  -18.7807  -44.8201 C.2       7 UNK         0.5000 
     36 O           2.0138  -19.9813  -45.0851 O.2       7 UNK        -0.5000 
     37 CA          2.7526  -18.3318  -43.5255 C.3       7 UNK         0.1400 
     38 CB          4.2568  -18.1379  -43.7669 C.3       7 UNK        -0.1800 
     39 N           2.1962  -17.1147  -42.9338 N.am      7 UNK        -0.5000 
     40 C           0.9405  -16.9711  -42.4872 C.2       6 UNK         0.5000 
     41 O           0.0972  -17.8689  -42.5225 O.2       6 UNK        -0.5000 
     42 CA          0.5423  -15.5844  -41.9352 C.3       6 UNK         0.1400 
     43 CB          1.7424  -14.6459  -41.6696 C.3       6 UNK        -0.1800 
     44 N          -0.4394  -14.9051  -42.7885 N.am      6 UNK        -0.5000 
     45 C          -0.3193  -14.6538  -44.1000 C.2       5 UNK         0.5000 
     46 O           0.6306  -15.0406  -44.7825 O.2       5 UNK        -0.5000 
     47 CA         -1.4423  -13.8158  -44.7345 C.3       5 UNK         0.1400 
     48 CB         -1.3351  -12.3468  -44.2912 C.3       5 UNK        -0.1800 
     49 N          -1.3560  -13.8617  -46.1941 N.am      5 UNK        -0.5000 
     50 C          -2.3627  -14.1848  -47.0155 C.2       4 UNK         0.5000 
     51 O          -3.4836  -14.4866  -46.6022 O.2       4 UNK        -0.5000 
     52 CA         -2.1176  -14.1771  -48.5409 C.3       4 UNK         0.1400 
     53 CB         -3.2292  -13.3847  -49.2660 C.3       4 UNK        -0.1800 
     54 N          -0.7977  -13.6786  -48.9529 N.am      4 UNK        -0.5000 
     55 C          -0.2710  -13.8770  -50.1735 C.2       3 UNK         0.5000 
     56 O          -0.7948  -14.6043  -51.0184 O.2       3 UNK        -0.5000 
     57 CA          1.0548  -13.1659  -50.5434 C.3       3 UNK         0.1400 
     58 CB          1.0128  -12.5585  -51.9612 C.3       3 UNK        -0.1800 
     59 N           1.5217  -12.1799  -49.5656 N.am      3 UNK        -0.5000 
     60 C           0.9458  -11.0272  -49.1966 C.2       2 UNK         0.5000 
     61 O          -0.0414  -10.5469  -49.7543 O.2       2 UNK        -0.5000 
     62 CA          1.5587  -10.3066  -47.9692 C.3       2 UNK         0.1400 
     63 CB          0.4602   -9.7106  -47.0645 C.3       2 UNK        -0.1800 
     64 N           2.4817  -11.1124  -47.1472 N.am      2 UNK        -0.5000 
     65 C           2.2294  -12.2979  -46.5661 C.2       1 UNK         0.5000 
     66 O           1.2007  -12.9374  -46.7762 O.2       1 UNK        -0.5000 
     67 C           0.0634  -23.4208  -48.1912 C.2       11 UNK         0.5000 
     68 O           0.0618  -24.4828  -48.8140 O.2       11 UNK        -0.5000 
     69 N          -0.9943  -22.6003  -48.1213 N.am      12 UNK        -0.5000 
     70 CA         -2.2937  -22.8664  -48.7311 C.3       12 UNK         0.1400 
     71 CB         -3.2004  -21.6410  -48.5864 C.3       12 UNK        -0.1800 
     72 C          -2.9747  -24.1126  -48.1472 C.2       12 UNK         0.5000 
     73 O          -3.4709  -24.9303  -48.9171 O.2       12 UNK        -0.5000 
     74 N          -2.9468  -24.2707  -46.8158 N.am      13 UNK        -0.5000 
     75 CA         -3.4786  -25.4419  -46.1154 C.3       13 UNK         0.1400 
     76 CB         -3.4083  -25.2241  -44.5969 C.3       13 UNK        -0.1800 
     77 C          -2.7719  -26.7502  -46.5143 C.2       13 UNK         0.5000 
     78 O          -3.4456  -27.7604  -46.7177 O.2       13 UNK        -0.5000 
     79 N          -1.4415  -26.6976  -46.6747 N.am      14 UNK        -0.5000 
     80 CA         -0.6239  -27.8048  -47.1766 C.3       14 UNK         0.1400 
     81 CB          0.8630  -27.4694  -46.9866 C.3       14 UNK        -0.1800 
     82 C          -0.9265  -28.1574  -48.6477 C.2       14 UNK         0.5000 
     83 O          -0.9117  -29.3357  -49.0053 O.2       14 UNK        -0.5000 
     84 N          -1.2251  -27.1377  -49.4638 N.am      15 UNK        -0.5000 
     85 CA         -1.6368  -27.2686  -50.8643 C.3       15 UNK         0.1400 
     86 CB         -1.3565  -25.9387  -51.5840 C.3       15 UNK        -0.1800 
     87 C          -3.1167  -27.6750  -51.0430 C.2       15 UNK         0.5000 
     88 O          -3.5162  -27.9882  -52.1652 O.2       15 UNK        -0.5000 
     89 N          -3.8985  -27.6456  -49.9531 N.am      16 UNK        -0.5000 
     90 CA         -5.3505  -27.8422  -49.8771 C.3       16 UNK         0.1400 
     91 CB         -5.7410  -29.2801  -50.2782 C.3       16 UNK        -0.1800 
     92 C          -6.1399  -26.7537  -50.6397 C.2       16 UNK         0.5000 
     93 O          -7.1389  -27.0529  -51.2972 O.2       16 UNK        -0.5000 
     94 N          -5.6697  -25.5068  -50.5317 N.am      17 UNK        -0.5000 
     95 CA         -6.2470  -24.3042  -51.1238 C.3       17 UNK         0.1400 
     96 CB         -5.1735  -23.6495  -52.0117 C.3       17 UNK        -0.1800 
     97 C          -6.6875  -23.3253  -50.0211 C.2       17 UNK         0.5000 
     98 O          -6.3217  -23.4884  -48.8544 O.2       17 UNK        -0.5000 
     99 N          -7.4431  -22.2950  -50.4194 N.am      18 UNK        -0.5000 
    100 CA        -7.7402  -21.1273  -49.5888 C.3       18 UNK         0.1400 
    101 CB        -8.9520  -20.3919  -50.1813 C.3       18 UNK        -0.1800 
    102 C         -6.5235  -20.1866  -49.5451 C.2       18 UNK         0.5000 
    103 O         -5.7876  -20.1084  -50.5316 O.2       18 UNK        -0.5000 
    104 N         -6.3510  -19.4538  -48.4367 N.am      19 UNK        -0.5000 
    105 CA        -5.2343  -18.5227  -48.2191 C.3       19 UNK         0.1400 
    106 CB        -5.3010  -17.9726  -46.7864 C.3       19 UNK        -0.1800 
    107 C         -5.1696  -17.3700  -49.2404 C.2       19 UNK         0.5000 
    108 O         -4.0766  -16.9212  -49.5795 O.2       19 UNK        -0.5000 
    109 N         -6.3387  -16.9383  -49.7332 N.am      20 UNK        -0.5000 
    110 CA        -6.4723  -15.9229  -50.7784 C.3       20 UNK         0.1400 
    111 CB        -7.9155  -15.3961  -50.7776 C.3       20 UNK        -0.1800 
    112 C         -6.0882  -16.4387  -52.1800 C.2       20 UNK         0.5000 
    113 O         -5.6902  -15.6363  -53.0252 O.2       20 UNK        -0.5000 
    114 N         -6.2207  -17.7532  -52.4081 N.am      21 UNK        -0.5000 
    115 CA        -5.8251  -18.4196  -53.6486 C.3       21 UNK         0.1400 
    116 CB        -6.7003  -19.6651  -53.8682 C.3       21 UNK        -0.1800 
    117 C         -4.3337  -18.7888  -53.6094 C.2       21 UNK         0.5000 
    118 O         -3.6051  -18.4914  -54.5561 O.2       21 UNK        -0.5000 
    119 N         -3.9120  -19.4024  -52.4960 N.am      22 UNK        -0.5000 
    120 CA        -2.5256  -19.7705  -52.1733 C.3       22 UNK         0.1400 
    121 C         -1.9060  -20.8896  -53.0681 C.2       22 UNK         0.5000 
    122 N         -2.7039  -21.6743  -53.7823 N.am      22 UNK        -0.7600 
    123 O         -0.6927  -21.0722  -53.1040 O.2       22 UNK        -0.5000 
    124 C124       -1.6185  -18.5179  -52.0075 C.3       23 UNK        -0.0398 
    125 S125       -0.4242  -18.7038  -50.6445 S.3       23 UNK        -0.2404 
    126 C126        1.1218  -18.2011  -51.4538 C.3       23 UNK        -0.0205 
    127 H127        3.7655   -8.9821  -43.3911 H         1 UNK         0.0600 
    128 H128        5.2335   -9.9299  -43.6461 H         1 UNK         0.0600 
    129 H129        4.2976  -10.1354  -42.1629 H         1 UNK         0.0600 
    130 H130        4.9246  -11.6002  -45.0831 H         1 UNK         0.3000 
    131 H131        2.7687  -13.4652  -44.8612 H         1 UNK         0.0600 
    132 H132        4.7024  -13.2877  -47.2230 H         1 UNK         0.0800 
    133 H133        5.2061  -13.8948  -45.6733 H         1 UNK         0.0800 
    134 H134        5.3431  -15.6577  -48.4049 H         1 UNK         0.0800 
    135 H135        3.9099  -14.8430  -48.9855 H         1 UNK         0.0800 
    136 H136        2.2113  -16.0787  -50.1406 H         1 UNK         0.1150 
    137 H137        2.5787  -20.3134  -50.5789 H         1 UNK         0.1150 
    138 H138        5.1682  -18.2072  -47.8818 H         1 UNK         0.1150 
    139 H139        4.6382  -21.3912  -49.6635 H         1 UNK         0.0800 
    140 H140        5.6357  -20.5493  -48.5081 H         1 UNK         0.0800 
    141 H141        2.3123  -22.3061  -49.1995 H         1 UNK         0.0800 
    142 H142        1.5553  -21.0270  -48.2749 H         1 UNK         0.0800 
    143 H143        1.9401  -23.8983  -47.2904 H         1 UNK         0.0600 
    144 H144        1.2120  -21.6001  -45.8064 H         1 UNK         0.3000 
    145 H145       -0.8044  -23.2460  -43.3262 H         1 UNK         0.0600 
    146 H146        0.8205  -21.9943  -41.9150 H         1 UNK         0.0600 
    147 H147        1.5481  -23.4421  -42.5942 H         1 UNK         0.0600 
    148 H148        1.9343  -21.8701  -43.2755 H         1 UNK         0.0600 
    149 H149       -0.0849  -20.4979  -43.9006 H         1 UNK         0.3000 
    150 H150       -3.0042  -19.7439  -45.7887 H         1 UNK         0.0600 
    151 H151       -3.8717  -19.6222  -43.4690 H         1 UNK         0.0600 
    152 H152       -3.3343  -18.0381  -44.0068 H         1 UNK         0.0600 
    153 H153       -2.3377  -18.9800  -42.8973 H         1 UNK         0.0600 
    154 H154       -0.8336  -18.1734  -44.7304 H         1 UNK         0.3000 
    155 H155        1.3714  -18.6157  -47.4969 H         1 UNK         0.0600 
    156 H156       -0.5242  -16.3319  -46.7823 H         1 UNK         0.0600 
    157 H157        1.0356  -16.0951  -47.5624 H         1 UNK         0.0600 
    158 H158       -0.2426  -16.9677  -48.3876 H         1 UNK         0.0600 
    159 H159        1.4909  -16.8701  -45.2740 H         1 UNK         0.3000 
    160 H160        2.6276  -19.1361  -42.7975 H         1 UNK         0.0600 
    161 H161        4.4518  -17.3137  -44.4530 H         1 UNK         0.0600 
    162 H162        4.7013  -19.0354  -44.1995 H         1 UNK         0.0600 
    163 H163        4.7834  -17.9317  -42.8350 H         1 UNK         0.0600 
    164 H164        2.8045  -16.3100  -42.9073 H         1 UNK         0.3000 
    165 H165        0.0508  -15.7694  -40.9791 H         1 UNK         0.0600 
    166 H166        1.4128  -13.7220  -41.1942 H         1 UNK         0.0600 
    167 H167        2.4665  -15.1090  -40.9980 H         1 UNK         0.0600 
    168 H168        2.2632  -14.3689  -42.5868 H         1 UNK         0.0600 
    169 H169       -1.2700  -14.5816  -42.3135 H         1 UNK         0.3000 
    170 H170       -2.3932  -14.2237  -44.3865 H         1 UNK         0.0600 
    171 H171       -1.4323  -12.2496  -43.2095 H         1 UNK         0.0600 
    172 H172       -0.3743  -11.9137  -44.5733 H         1 UNK         0.0600 
    173 H173       -2.1201  -11.7404  -44.7433 H         1 UNK         0.0600 
    174 H174       -0.4144  -13.7006  -46.5477 H         1 UNK         0.3000 
    175 H175       -2.1854  -15.2220  -48.8484 H         1 UNK         0.0600 
    176 H176       -3.1773  -12.3216  -49.0289 H         1 UNK         0.0600 
    177 H177       -3.1605  -13.4906  -50.3484 H         1 UNK         0.0600 
    178 H178       -4.2211  -13.7391  -48.9830 H         1 UNK         0.0600 
    179 H179       -0.2848  -13.1145  -48.2860 H         1 UNK         0.3000 
    180 H180        1.8187  -13.9415  -50.5537 H         1 UNK         0.0600 
    181 H181        0.2106  -11.8279  -52.0665 H         1 UNK         0.0600 
    182 H182        0.8475  -13.3311  -52.7130 H         1 UNK         0.0600 
    183 H183        1.9527  -12.0650  -52.2083 H         1 UNK         0.0600 
    184 H184        2.3077  -12.4768  -49.0063 H         1 UNK         0.3000 
    185 H185        2.1475   -9.4797  -48.3686 H         1 UNK         0.0600 
    186 H186       -0.1459   -8.9823  -47.6045 H         1 UNK         0.0600 
    187 H187       -0.2128  -10.4822  -46.6886 H         1 UNK         0.0600 
    188 H188        0.8915   -9.1967  -46.2053 H         1 UNK         0.0600 
    189 H189        3.3631  -10.6682  -46.9315 H         1 UNK         0.3000 
    190 H190       -0.8972  -21.7047  -47.6466 H         1 UNK         0.3000 
    191 H191       -2.1275  -23.0386  -49.7964 H         1 UNK         0.0600 
    192 H192       -3.4606  -21.4478  -47.5458 H         1 UNK         0.0600 
    193 H193       -4.1280  -21.7894  -49.1365 H         1 UNK         0.0600 
    194 H194       -2.7236  -20.7465  -48.9836 H         1 UNK         0.0600 
    195 H195       -2.5695  -23.5274  -46.2356 H         1 UNK         0.3000 
    196 H196       -4.5301  -25.5386  -46.3939 H         1 UNK         0.0600 
    197 H197       -3.8029  -26.0872  -44.0593 H         1 UNK         0.0600 
    198 H198       -3.9980  -24.3582  -44.2960 H         1 UNK         0.0600 
    199 H199       -2.3842  -25.0662  -44.2587 H         1 UNK         0.0600 
    200 H200       -0.9558  -25.8359  -46.4462 H         1 UNK         0.3000 
    201 H201       -0.8504  -28.6864  -46.5733 H         1 UNK         0.0600 
    202 H202        1.0937  -27.2829  -45.9376 H         1 UNK         0.0600 
    203 H203        1.1539  -26.5851  -47.5536 H         1 UNK         0.0600 
    204 H204        1.4948  -28.2945  -47.3179 H         1 UNK         0.0600 
    205 H205       -1.1601  -26.1929  -49.1008 H         1 UNK         0.3000 
    206 H206       -1.0274  -28.0428  -51.3348 H         1 UNK         0.0600 
    207 H207       -0.3081  -25.6536  -51.4946 H         1 UNK         0.0600 
    208 H208       -1.5835  -26.0126  -52.6481 H         1 UNK         0.0600 
    209 H209       -1.9595  -25.1263  -51.1779 H         1 UNK         0.0600 
    210 H210       -3.4656  -27.3313  -49.0945 H         1 UNK         0.3000 
    211 H211       -5.6110  -27.7168  -48.8252 H         1 UNK         0.0600 
    212 H212       -5.5742  -29.4674  -51.3391 H         1 UNK         0.0600 
    213 H213       -6.7964  -29.4672  -50.0769 H         1 UNK         0.0600 
    214 H214       -5.1685  -30.0154  -49.7128 H         1 UNK         0.0600 
    215 H215       -4.8727  -25.3400  -49.9168 H         1 UNK         0.3000 
    216 H216       -7.1179  -24.5515  -51.7340 H         1 UNK         0.0600 
    217 H217       -5.5575  -22.7576  -52.5076 H         1 UNK         0.0600 
    218 H218       -4.8363  -24.3339  -52.7903 H         1 UNK         0.0600 
    219 H219       -4.2993  -23.3506  -51.4311 H         1 UNK         0.0600 
    220 H220       -7.6776  -22.2133  -51.3974 H         1 UNK         0.3000 
    221 H221       -7.9816  -21.4535  -48.5749 H         1 UNK         0.0600 
    222 H222       -8.7537  -20.0339  -51.1927 H         1 UNK         0.0600 
    223 H223       -9.8256  -21.0428  -50.2222 H         1 UNK         0.0600 
    224 H224       -9.2218  -19.5270  -49.5740 H         1 UNK         0.0600 
    225 H225       -7.0039  -19.5575  -47.6732 H         1 UNK         0.3000 
    226 H226       -4.3063  -19.0865  -48.3178 H         1 UNK         0.0600 
    227 H227       -5.2841  -18.7771  -46.0512 H         1 UNK         0.0600 
    228 H228       -4.4482  -17.3244  -46.5782 H         1 UNK         0.0600 
    229 H229       -6.2060  -17.3866  -46.6221 H         1 UNK         0.0600 
    230 H230       -7.1905  -17.3567  -49.3902 H         1 UNK         0.3000 
    231 H231       -5.8059  -15.0913  -50.5394 H         1 UNK         0.0600 
    232 H232       -8.0468  -14.6158  -51.5284 H         1 UNK         0.0600 
    233 H233       -8.1769  -14.9629  -49.8119 H         1 UNK         0.0600 
    234 H234       -8.6334  -16.1874  -50.9975 H         1 UNK         0.0600 
    235 H235       -6.4821  -18.3542  -51.6388 H         1 UNK         0.3000 
    236 H236       -5.9867  -17.7455  -54.4926 H         1 UNK         0.0600 
    237 H237       -7.7545  -19.3961  -53.9356 H         1 UNK         0.0600 
    238 H238       -6.4336  -20.1679  -54.7986 H         1 UNK         0.0600 
    239 H239       -6.5931  -20.3906  -53.0620 H         1 UNK         0.0600 
    240 H240       -4.5982  -19.6291  -51.7780 H         1 UNK         0.3000 
    241 H241       -2.6185  -20.2419  -51.1967 H         1 UNK         0.0600 
    242 H242       -3.7001  -21.5339  -53.7743 H         1 UNK         0.3800 
    243 H243       -2.3003  -22.3980  -54.3552 H         1 UNK         0.3800 
    244 H244       -1.1122  -18.2718  -52.9422 H         1 UNK         0.0800 
    245 H245       -2.2201  -17.6415  -51.7595 H         1 UNK         0.0800 
    246 H246        1.3411  -18.8849  -52.2755 H         1 UNK         0.0800 
    247 H247        0.9940  -17.2103  -51.8932 H         1 UNK         0.0800 
@<TRIPOS>BOND
     1    1    2 1    
     2    1  127 1    
     3    1  128 1    
     4    1  129 1    
     5    2    3 2    
     6    2    4 am   BACKBONE|DICT|INTERRES
     7    4    5 1    
     8    4  130 1    
     9    5    6 1    
    10    5   65 1    
    11    5  131 1    
    12    6    7 1    
    13    6  132 1    
    14    6  133 1    
    15    7    8 1    
    16    8    9 1    
    17    8  134 1    
    18    8  135 1    
    19    9   10 ar   
    20    9   14 ar   
    21   10   11 ar   
    22   10  136 1    
    23   11   12 ar   
    24   11  126 1    
    25   12   13 ar   
    26   12  137 1    
    27   13   14 ar   
    28   13   15 1    
    29   14  138 1    
    30   15   16 1    
    31   15  139 1    
    32   15  140 1    
    33   16   17 1    
    34   17   18 1    
    35   17  141 1    
    36   17  142 1    
    37   18   19 1    
    38   18   67 1    
    39   18  143 1    
    40   19   20 am   BACKBONE|DICT|INTERRES
    41   19  144 1    
    42   20   21 2    
    43   20   22 1    
    44   22   23 1    
    45   22   24 1    
    46   22  145 1    
    47   23  146 1    
    48   23  147 1    
    49   23  148 1    
    50   24   25 am   BACKBONE|DICT|INTERRES
    51   24  149 1    
    52   25   26 2    
    53   25   27 1    
    54   27   28 1    
    55   27   29 1    
    56   27  150 1    
    57   28  151 1    
    58   28  152 1    
    59   28  153 1    
    60   29   30 am   BACKBONE|DICT|INTERRES
    61   29  154 1    
    62   30   31 2    
    63   30   32 1    
    64   32   33 1    
    65   32   34 1    
    66   32  155 1    
    67   33  156 1    
    68   33  157 1    
    69   33  158 1    
    70   34   35 am   BACKBONE|DICT|INTERRES
    71   34  159 1    
    72   35   36 2    
    73   35   37 1    
    74   37   38 1    
    75   37   39 1    
    76   37  160 1    
    77   38  161 1    
    78   38  162 1    
    79   38  163 1    
    80   39   40 am   BACKBONE|DICT|INTERRES
    81   39  164 1    
    82   40   41 2    
    83   40   42 1    
    84   42   43 1    
    85   42   44 1    
    86   42  165 1    
    87   43  166 1    
    88   43  167 1    
    89   43  168 1    
    90   44   45 am   BACKBONE|DICT|INTERRES
    91   44  169 1    
    92   45   46 2    
    93   45   47 1    
    94   47   48 1    
    95   47   49 1    
    96   47  170 1    
    97   48  171 1    
    98   48  172 1    
    99   48  173 1    
   100   49   50 am   BACKBONE|DICT|INTERRES
   101   49  174 1    
   102   50   51 2    
   103   50   52 1    
   104   52   53 1    
   105   52   54 1    
   106   52  175 1    
   107   53  176 1    
   108   53  177 1    
   109   53  178 1    
   110   54   55 am   BACKBONE|DICT|INTERRES
   111   54  179 1    
   112   55   56 2    
   113   55   57 1    
   114   57   58 1    
   115   57   59 1    
   116   57  180 1    
   117   58  181 1    
   118   58  182 1    
   119   58  183 1    
   120   59   60 am   BACKBONE|DICT|INTERRES
   121   59  184 1    
   122   60   61 2    
   123   60   62 1    
   124   62   63 1    
   125   62   64 1    
   126   62  185 1    
   127   63  186 1    
   128   63  187 1    
   129   63  188 1    
   130   64   65 am   BACKBONE|DICT|INTERRES
   131   64  189 1    
   132   65   66 2    
   133   67   68 2    
   134   67   69 am   BACKBONE|DICT|INTERRES
   135   69   70 1    
   136   69  190 1    
   137   70   71 1    
   138   70   72 1    
   139   70  191 1    
   140   71  192 1    
   141   71  193 1    
   142   71  194 1    
   143   72   73 2    
   144   72   74 am   BACKBONE|DICT|INTERRES
   145   74   75 1    
   146   74  195 1    
   147   75   76 1    
   148   75   77 1    
   149   75  196 1    
   150   76  197 1    
   151   76  198 1    
   152   76  199 1    
   153   77   78 2    
   154   77   79 am   BACKBONE|DICT|INTERRES
   155   79   80 1    
   156   79  200 1    
   157   80   81 1    
   158   80   82 1    
   159   80  201 1    
   160   81  202 1    
   161   81  203 1    
   162   81  204 1    
   163   82   83 2    
   164   82   84 am   BACKBONE|DICT|INTERRES
   165   84   85 1    
   166   84  205 1    
   167   85   86 1    
   168   85   87 1    
   169   85  206 1    
   170   86  207 1    
   171   86  208 1    
   172   86  209 1    
   173   87   88 2    
   174   87   89 am   BACKBONE|DICT|INTERRES
   175   89   90 1    
   176   89  210 1    
   177   90   91 1    
   178   90   92 1    
   179   90  211 1    
   180   91  212 1    
   181   91  213 1    
   182   91  214 1    
   183   92   93 2    
   184   92   94 am   BACKBONE|DICT|INTERRES
   185   94   95 1    
   186   94  215 1    
   187   95   96 1    
   188   95   97 1    
   189   95  216 1    
   190   96  217 1    
   191   96  218 1    
   192   96  219 1    
   193   97   98 2    
   194   97   99 am   BACKBONE|DICT|INTERRES
   195   99  100 1    
   196   99  220 1    
   197  100  101 1    
   198  100  102 1    
   199  100  221 1    
   200  101  222 1    
   201  101  223 1    
   202  101  224 1    
   203  102  103 2    
   204  102  104 am   BACKBONE|DICT|INTERRES
   205  104  105 1    
   206  104  225 1    
   207  105  106 1    
   208  105  107 1    
   209  105  226 1    
   210  106  227 1    
   211  106  228 1    
   212  106  229 1    
   213  107  108 2    
   214  107  109 am   BACKBONE|DICT|INTERRES
   215  109  110 1    
   216  109  230 1    
   217  110  111 1    
   218  110  112 1    
   219  110  231 1    
   220  111  232 1    
   221  111  233 1    
   222  111  234 1    
   223  112  113 2    
   224  112  114 am   BACKBONE|DICT|INTERRES
   225  114  115 1    
   226  114  235 1    
   227  115  116 1    
   228  115  117 1    
   229  115  236 1    
   230  116  237 1    
   231  116  238 1    
   232  116  239 1    
   233  117  118 2    
   234  117  119 am   BACKBONE|DICT|INTERRES
   235  119  120 1    
   236  119  240 1    
   237  120  121 1    
   238  120  124 1    
   239  120  241 1    
   240  121  122 am   BACKBONE|DICT|INTERRES
   241  121  123 2    
   242  122  242 1    
   243  122  243 1    
   244  124  125 1    
   245  124  244 1    
   246  124  245 1    
   247  125  126 1    
   248  126  246 1    
   249  126  247 1    
@<TRIPOS>SUBSTRUCTURE
     1 UNK         1 GROUP             0       ****    0 ROOT    
