@<TRIPOS>MOLECULE
3R540
247   249    1
SMALL
USER_CHARGES


@<TRIPOS>ATOM
      1 CA         -1.2828   -9.8055  -49.7266 C.3       0 UNK        -0.1800 
      2 C          -0.8251  -10.7372  -48.6126 C.2       0 UNK         0.5000 
      3 O          -0.6390  -10.2858  -47.4823 O.2       0 UNK        -0.5000 
      4 N          -0.6525  -12.0267  -48.9357 N.am      1 UNK        -0.5000 
      5 CA         -0.1945  -13.1110  -48.0530 C.3       1 UNK         0.1400 
      6 C6         -1.1116  -13.3406  -46.8149 C.3       23 UNK        -0.0398 
      7 S7         -2.8596  -13.6618  -47.2424 S.3       23 UNK        -0.2404 
      8 C8         -3.0514  -15.4262  -46.8259 C.3       23 UNK        -0.0205 
      9 C9         -2.6267  -16.3344  -47.9700 C.ar      23 UNK        -0.0193 
     10 C10        -3.5925  -16.9168  -48.7969 C.ar      23 UNK        -0.1150 
     11 C11        -3.2157  -17.7736  -49.8348 C.ar      23 UNK        -0.0193 
     12 C12        -1.8599  -18.0160  -50.0634 C.ar      23 UNK        -0.1150 
     13 C13        -0.8842  -17.4350  -49.2520 C.ar      23 UNK        -0.0193 
     14 C14        -1.2747  -16.6109  -48.1932 C.ar      23 UNK        -0.1150 
     15 C15         0.5896  -17.6917  -49.5312 C.3       23 UNK        -0.0205 
     16 S16         1.0599  -19.4274  -49.2496 S.3       23 UNK        -0.2404 
     17 C17         0.7739  -19.5858  -47.4566 C.3       23 UNK        -0.0398 
     18 CA         -0.0579  -20.8283  -47.0661 C.3       11 UNK         0.1400 
     19 N           0.0439  -21.0809  -45.6279 N.am      11 UNK        -0.5000 
     20 C          -0.3582  -22.1960  -45.0070 C.2       10 UNK         0.5000 
     21 O          -0.8606  -23.1566  -45.5870 O.2       10 UNK        -0.5000 
     22 CA         -0.2096  -22.2257  -43.4755 C.3       10 UNK         0.1400 
     23 CB          1.2445  -22.5110  -43.0721 C.3       10 UNK        -0.1800 
     24 N          -0.6641  -20.9869  -42.8422 N.am      10 UNK        -0.5000 
     25 C          -1.9299  -20.5456  -42.8741 C.2       9 UNK         0.5000 
     26 O          -2.8524  -21.1538  -43.4169 O.2       9 UNK        -0.5000 
     27 CA         -2.2070  -19.1764  -42.2289 C.3       9 UNK         0.1400 
     28 CB         -2.2854  -19.2991  -40.6999 C.3       9 UNK        -0.1800 
     29 N          -1.2128  -18.1665  -42.5915 N.am      9 UNK        -0.5000 
     30 C          -0.9858  -17.7367  -43.8407 C.2       8 UNK         0.5000 
     31 O          -1.6077  -18.1267  -44.8270 O.2       8 UNK        -0.5000 
     32 CA          0.1732  -16.7460  -44.0318 C.3       8 UNK         0.1400 
     33 CB         -0.2219  -15.3348  -43.5717 C.3       8 UNK        -0.1800 
     34 N           1.3867  -17.1693  -43.3363 N.am      8 UNK        -0.5000 
     35 C           2.0487  -18.3102  -43.5759 C.2       7 UNK         0.5000 
     36 O           1.7272  -19.1219  -44.4412 O.2       7 UNK        -0.5000 
     37 CA          3.2425  -18.6198  -42.6610 C.3       7 UNK         0.1400 
     38 CB          4.4933  -17.8548  -43.1175 C.3       7 UNK        -0.1800 
     39 N           2.9460  -18.3077  -41.2636 N.am      7 UNK        -0.5000 
     40 C           2.0541  -18.9739  -40.5156 C.2       6 UNK         0.5000 
     41 O           1.4160  -19.9494  -40.9127 O.2       6 UNK        -0.5000 
     42 CA          1.8028  -18.4239  -39.1007 C.3       6 UNK         0.1400 
     43 CB          2.8935  -18.8994  -38.1293 C.3       6 UNK        -0.1800 
     44 N           1.7322  -16.9618  -39.0778 N.am      6 UNK        -0.5000 
     45 C           0.7586  -16.2461  -39.6580 C.2       5 UNK         0.5000 
     46 O          -0.1973  -16.7465  -40.2498 O.2       5 UNK        -0.5000 
     47 CA          0.8979  -14.7140  -39.6012 C.3       5 UNK         0.1400 
     48 CB          0.3090  -14.1675  -38.2922 C.3       5 UNK        -0.1800 
     49 N           2.2789  -14.2447  -39.7470 N.am      5 UNK        -0.5000 
     50 C           3.0347  -14.4276  -40.8374 C.2       4 UNK         0.5000 
     51 O           2.6754  -15.0772  -41.8221 O.2       4 UNK        -0.5000 
     52 CA          4.4426  -13.8176  -40.8091 C.3       4 UNK         0.1400 
     53 CB          5.4993  -14.9065  -40.5677 C.3       4 UNK        -0.1800 
     54 N           4.7131  -13.1563  -42.0832 N.am      4 UNK        -0.5000 
     55 C           4.4930  -11.8574  -42.3237 C.2       3 UNK         0.5000 
     56 O           4.1081  -11.0584  -41.4687 O.2       3 UNK        -0.5000 
     57 CA          4.7461  -11.3606  -43.7607 C.3       3 UNK         0.1400 
     58 CB          6.2003  -10.8898  -43.9175 C.3       3 UNK        -0.1800 
     59 N           4.4529  -12.3629  -44.7890 N.am      3 UNK        -0.5000 
     60 C           3.2205  -12.7794  -45.1070 C.2       2 UNK         0.5000 
     61 O           2.1967  -12.3801  -44.5464 O.2       2 UNK        -0.5000 
     62 CA          3.1290  -13.8366  -46.2253 C.3       2 UNK         0.1400 
     63 CB          3.4694  -15.2287  -45.6718 C.3       2 UNK        -0.1800 
     64 N           1.7889  -13.8792  -46.8123 N.am      2 UNK        -0.5000 
     65 C           1.2993  -12.9636  -47.6605 C.2       1 UNK         0.5000 
     66 O           1.9929  -12.0660  -48.1475 O.2       1 UNK        -0.5000 
     67 C          -1.5274  -20.7528  -47.5414 C.2       11 UNK         0.5000 
     68 O          -1.8494  -21.2954  -48.6016 O.2       11 UNK        -0.5000 
     69 N          -2.4007  -20.1409  -46.7273 N.am      12 UNK        -0.5000 
     70 CA         -3.8463  -20.1003  -46.9417 C.3       12 UNK         0.1400 
     71 CB         -4.4994  -19.1237  -45.9525 C.3       12 UNK        -0.1800 
     72 C          -4.4914  -21.4919  -46.8432 C.2       12 UNK         0.5000 
     73 O          -5.2665  -21.8582  -47.7265 O.2       12 UNK        -0.5000 
     74 N          -4.1299  -22.2596  -45.8042 N.am      13 UNK        -0.5000 
     75 CA         -4.5818  -23.6379  -45.5892 C.3       13 UNK         0.1400 
     76 CB         -4.1066  -24.1266  -44.2128 C.3       13 UNK        -0.1800 
     77 C          -4.1222  -24.6023  -46.6996 C.2       13 UNK         0.5000 
     78 O          -4.8836  -25.4856  -47.0946 O.2       13 UNK        -0.5000 
     79 N          -2.9034  -24.3860  -47.2105 N.am      14 UNK        -0.5000 
     80 CA         -2.3280  -25.0936  -48.3538 C.3       14 UNK         0.1400 
     81 CB         -0.8001  -24.9274  -48.3204 C.3       14 UNK        -0.1800 
     82 C          -2.8845  -24.6286  -49.7150 C.2       14 UNK         0.5000 
     83 O          -2.5345  -25.2328  -50.7281 O.2       14 UNK        -0.5000 
     84 N          -3.7003  -23.5630  -49.7328 N.am      15 UNK        -0.5000 
     85 CA         -4.3118  -22.9273  -50.9038 C.3       15 UNK         0.1400 
     86 CB         -5.3858  -23.8470  -51.5217 C.3       15 UNK        -0.1800 
     87 C          -3.2648  -22.4546  -51.9312 C.2       15 UNK         0.5000 
     88 O          -3.3813  -22.7682  -53.1163 O.2       15 UNK        -0.5000 
     89 N          -2.2426  -21.7358  -51.4422 N.am      16 UNK        -0.5000 
     90 CA         -1.0865  -21.2356  -52.1971 C.3       16 UNK         0.1400 
     91 CB         -1.5152  -20.2040  -53.2632 C.3       16 UNK        -0.1800 
     92 C          -0.2277  -22.3757  -52.7826 C.2       16 UNK         0.5000 
     93 O           0.2231  -22.2873  -53.9257 O.2       16 UNK        -0.5000 
     94 N          -0.0296  -23.4275  -51.9736 N.am      17 UNK        -0.5000 
     95 CA          0.6726  -24.6736  -52.2958 C.3       17 UNK         0.1400 
     96 CB          2.1707  -24.4183  -52.5659 C.3       17 UNK        -0.1800 
     97 C          -0.0343  -25.4544  -53.4225 C.2       17 UNK         0.5000 
     98 O           0.5758  -25.7713  -54.4455 O.2       17 UNK        -0.5000 
     99 N          -1.3206  -25.7466  -53.1880 N.am      18 UNK        -0.5000 
    100 CA        -2.2398  -26.5005  -54.0412 C.3       18 UNK         0.1400 
    101 CB        -1.7935  -27.9733  -54.1596 C.3       18 UNK        -0.1800 
    102 C         -2.5008  -25.8290  -55.4042 C.2       18 UNK         0.5000 
    103 O         -2.5118  -26.5047  -56.4362 O.2       18 UNK        -0.5000 
    104 N         -2.7360  -24.5107  -55.3840 N.am      19 UNK        -0.5000 
    105 CA        -3.2612  -23.7610  -56.5238 C.3       19 UNK         0.1400 
    106 CB        -2.9002  -22.2752  -56.3601 C.3       19 UNK        -0.1800 
    107 C         -4.7881  -23.9443  -56.6277 C.2       19 UNK         0.5000 
    108 O         -5.4128  -24.5358  -55.7411 O.2       19 UNK        -0.5000 
    109 N         -5.3765  -23.4063  -57.7021 N.am      20 UNK        -0.5000 
    110 CA        -6.8191  -23.3800  -57.9453 C.3       20 UNK         0.1400 
    111 CB        -7.0638  -23.0516  -59.4288 C.3       20 UNK        -0.1800 
    112 C         -7.5246  -22.3868  -56.9986 C.2       20 UNK         0.5000 
    113 O         -7.8426  -21.2680  -57.4052 O.2       20 UNK        -0.5000 
    114 N         -7.6987  -22.8007  -55.7351 N.am      21 UNK        -0.5000 
    115 CA        -8.3260  -22.0676  -54.6291 C.3       21 UNK         0.1400 
    116 CB        -9.8484  -21.9609  -54.8557 C.3       21 UNK        -0.1800 
    117 C         -7.6561  -20.7013  -54.3716 C.2       21 UNK         0.5000 
    118 O         -8.3379  -19.6767  -54.3148 O.2       21 UNK        -0.5000 
    119 N         -6.3198  -20.7186  -54.2620 N.am      22 UNK        -0.5000 
    120 CA        -5.4375  -19.5395  -54.1672 C.3       22 UNK         0.1400 
    121 C         -5.1917  -18.8074  -55.5258 C.2       22 UNK         0.5000 
    122 N         -5.7889  -19.2194  -56.6385 N.am      22 UNK        -0.7600 
    123 O         -4.4092  -17.8645  -55.5906 O.2       22 UNK        -0.5000 
    124 C124       -5.8501  -18.5676  -53.0195 C.3       23 UNK        -0.0398 
    125 S125       -4.4681  -17.6228  -52.2909 S.3       23 UNK        -0.2404 
    126 C126       -4.2689  -18.4584  -50.6904 C.3       23 UNK        -0.0205 
    127 H127       -2.2321   -9.3406  -49.4603 H         1 UNK         0.0600 
    128 H128       -1.4170  -10.3349  -50.6702 H         1 UNK         0.0600 
    129 H129       -0.5469   -9.0164  -49.8814 H         1 UNK         0.0600 
    130 H130       -0.8123  -12.3053  -49.8933 H         1 UNK         0.3000 
    131 H131       -0.2405  -14.0095  -48.6687 H         1 UNK         0.0600 
    132 H132       -0.7528  -14.1766  -46.2185 H         1 UNK         0.0800 
    133 H133       -1.0801  -12.4786  -46.1472 H         1 UNK         0.0800 
    134 H134       -2.4957  -15.6755  -45.9223 H         1 UNK         0.0800 
    135 H135       -4.0998  -15.6047  -46.5829 H         1 UNK         0.0800 
    136 H136       -4.6402  -16.7174  -48.6211 H         1 UNK         0.1150 
    137 H137       -1.5581  -18.6672  -50.8671 H         1 UNK         0.1150 
    138 H138       -0.5259  -16.1784  -47.5480 H         1 UNK         0.1150 
    139 H139        0.8028  -17.4343  -50.5696 H         1 UNK         0.0800 
    140 H140        1.2221  -17.0455  -48.9204 H         1 UNK         0.0800 
    141 H141        0.3234  -18.6809  -47.0475 H         1 UNK         0.0800 
    142 H142        1.7628  -19.6527  -47.0019 H         1 UNK         0.0800 
    143 H143        0.3898  -21.6914  -47.5631 H         1 UNK         0.0600 
    144 H144        0.4821  -20.3465  -45.0763 H         1 UNK         0.3000 
    145 H145       -0.8312  -23.0404  -43.0986 H         1 UNK         0.0600 
    146 H146        1.3387  -22.6191  -41.9915 H         1 UNK         0.0600 
    147 H147        1.6012  -23.4372  -43.5244 H         1 UNK         0.0600 
    148 H148        1.9154  -21.7111  -43.3866 H         1 UNK         0.0600 
    149 H149        0.0358  -20.4439  -42.3470 H         1 UNK         0.3000 
    150 H150       -3.1771  -18.8306  -42.5918 H         1 UNK         0.0600 
    151 H151       -3.0251  -20.0442  -40.4042 H         1 UNK         0.0600 
    152 H152       -2.5767  -18.3527  -40.2442 H         1 UNK         0.0600 
    153 H153       -1.3281  -19.5953  -40.2697 H         1 UNK         0.0600 
    154 H154       -0.6765  -17.7634  -41.8281 H         1 UNK         0.3000 
    155 H155        0.3994  -16.7064  -45.0991 H         1 UNK         0.0600 
    156 H156       -1.1456  -15.0055  -44.0465 H         1 UNK         0.0600 
    157 H157        0.5527  -14.6072  -43.8147 H         1 UNK         0.0600 
    158 H158       -0.3862  -15.2954  -42.4962 H         1 UNK         0.0600 
    159 H159        1.7541  -16.5315  -42.6349 H         1 UNK         0.3000 
    160 H160        3.4530  -19.6890  -42.7328 H         1 UNK         0.0600 
    161 H161        4.3383  -16.7764  -43.0978 H         1 UNK         0.0600 
    162 H162        4.7605  -18.1249  -44.1399 H         1 UNK         0.0600 
    163 H163        5.3511  -18.0849  -42.4856 H         1 UNK         0.0600 
    164 H164        3.3871  -17.4876  -40.8764 H         1 UNK         0.3000 
    165 H165        0.8437  -18.8168  -38.7562 H         1 UNK         0.0600 
    166 H166        2.6805  -18.5774  -37.1098 H         1 UNK         0.0600 
    167 H167        2.9576  -19.9883  -38.1184 H         1 UNK         0.0600 
    168 H168        3.8766  -18.5153  -38.4044 H         1 UNK         0.0600 
    169 H169        2.4803  -16.4712  -38.6108 H         1 UNK         0.3000 
    170 H170        0.3198  -14.2999  -40.4294 H         1 UNK         0.0600 
    171 H171       -0.7270  -14.4859  -38.1676 H         1 UNK         0.0600 
    172 H172        0.8664  -14.5160  -37.4218 H         1 UNK         0.0600 
    173 H173        0.3153  -13.0775  -38.2814 H         1 UNK         0.0600 
    174 H174        2.6525  -13.7082  -38.9773 H         1 UNK         0.3000 
    175 H175        4.5067  -13.0972  -39.9907 H         1 UNK         0.0600 
    176 H176        5.5102  -15.6483  -41.3656 H         1 UNK         0.0600 
    177 H177        6.4980  -14.4743  -40.5035 H         1 UNK         0.0600 
    178 H178        5.3132  -15.4329  -39.6307 H         1 UNK         0.0600 
    179 H179        4.9649  -13.7541  -42.8559 H         1 UNK         0.3000 
    180 H180        4.0932  -10.5015  -43.9300 H         1 UNK         0.0600 
    181 H181        6.9066  -11.7100  -43.7827 H         1 UNK         0.0600 
    182 H182        6.4440  -10.1229  -43.1810 H         1 UNK         0.0600 
    183 H183        6.3712  -10.4569  -44.9033 H         1 UNK         0.0600 
    184 H184        5.2451  -12.7378  -45.2908 H         1 UNK         0.3000 
    185 H185        3.8478  -13.5856  -47.0084 H         1 UNK         0.0600 
    186 H186        4.5073  -15.2763  -45.3409 H         1 UNK         0.0600 
    187 H187        2.8456  -15.4754  -44.8144 H         1 UNK         0.0600 
    188 H188        3.3336  -16.0055  -46.4248 H         1 UNK         0.0600 
    189 H189        1.1738  -14.5823  -46.4373 H         1 UNK         0.3000 
    190 H190       -2.0541  -19.6556  -45.9044 H         1 UNK         0.3000 
    191 H191       -4.0230  -19.7282  -47.9514 H         1 UNK         0.0600 
    192 H192       -4.0914  -18.1202  -46.0630 H         1 UNK         0.0600 
    193 H193       -5.5748  -19.0579  -46.1208 H         1 UNK         0.0600 
    194 H194       -4.3453  -19.4310  -44.9182 H         1 UNK         0.0600 
    195 H195       -3.5130  -21.8698  -45.0963 H         1 UNK         0.3000 
    196 H196       -5.6736  -23.6321  -45.5890 H         1 UNK         0.0600 
    197 H197       -4.4460  -25.1450  -44.0203 H         1 UNK         0.0600 
    198 H198       -4.4988  -23.4965  -43.4144 H         1 UNK         0.0600 
    199 H199       -3.0189  -24.1223  -44.1375 H         1 UNK         0.0600 
    200 H200       -2.3092  -23.6911  -46.7665 H         1 UNK         0.3000 
    201 H201       -2.5570  -26.1565  -48.2556 H         1 UNK         0.0600 
    202 H202       -0.3857  -25.2846  -47.3775 H         1 UNK         0.0600 
    203 H203       -0.5074  -23.8838  -48.4403 H         1 UNK         0.0600 
    204 H204       -0.3237  -25.4991  -49.1171 H         1 UNK         0.0600 
    205 H205       -3.9140  -23.1194  -48.8479 H         1 UNK         0.3000 
    206 H206       -4.8141  -22.0293  -50.5417 H         1 UNK         0.0600 
    207 H207       -6.1266  -24.1407  -50.7780 H         1 UNK         0.0600 
    208 H208       -5.9176  -23.3404  -52.3277 H         1 UNK         0.0600 
    209 H209       -4.9509  -24.7557  -51.9395 H         1 UNK         0.0600 
    210 H210       -2.2092  -21.5713  -50.4371 H         1 UNK         0.3000 
    211 H211       -0.4543  -20.7201  -51.4746 H         1 UNK         0.0600 
    212 H212       -2.0277  -20.6752  -54.0996 H         1 UNK         0.0600 
    213 H213       -0.6478  -19.6823  -53.6684 H         1 UNK         0.0600 
    214 H214       -2.1848  -19.4510  -52.8541 H         1 UNK         0.0600 
    215 H215       -0.4817  -23.4046  -51.0714 H         1 UNK         0.3000 
    216 H216        0.6091  -25.3004  -51.4055 H         1 UNK         0.0600 
    217 H217        2.7074  -25.3594  -52.6899 H         1 UNK         0.0600 
    218 H218        2.6353  -23.8866  -51.7356 H         1 UNK         0.0600 
    219 H219        2.3310  -23.8323  -53.4711 H         1 UNK         0.0600 
    220 H220       -1.7267  -25.4389  -52.3046 H         1 UNK         0.3000 
    221 H221       -3.1985  -26.4939  -53.5203 H         1 UNK         0.0600 
    222 H222       -0.8586  -28.0717  -54.7120 H         1 UNK         0.0600 
    223 H223       -1.6516  -28.4219  -53.1764 H         1 UNK         0.0600 
    224 H224       -2.5447  -28.5681  -54.6805 H         1 UNK         0.0600 
    225 H225       -2.7748  -24.0291  -54.4899 H         1 UNK         0.3000 
    226 H226       -2.8014  -24.1309  -57.4425 H         1 UNK         0.0600 
    227 H227       -1.8409  -22.1467  -56.1355 H         1 UNK         0.0600 
    228 H228       -3.1067  -21.7161  -57.2731 H         1 UNK         0.0600 
    229 H229       -3.4742  -21.8079  -55.5604 H         1 UNK         0.0600 
    230 H230       -4.8056  -22.9157  -58.3751 H         1 UNK         0.3000 
    231 H231       -7.2284  -24.3743  -57.7536 H         1 UNK         0.0600 
    232 H232       -6.6400  -22.0855  -59.7061 H         1 UNK         0.0600 
    233 H233       -8.1315  -23.0176  -59.6495 H         1 UNK         0.0600 
    234 H234       -6.6232  -23.8089  -60.0775 H         1 UNK         0.0600 
    235 H235       -7.2840  -23.6945  -55.4913 H         1 UNK         0.3000 
    236 H236       -8.1669  -22.6631  -53.7289 H         1 UNK         0.0600 
    237 H237      -10.2952  -22.9451  -54.9965 H         1 UNK         0.0600 
    238 H238      -10.3405  -21.5020  -53.9974 H         1 UNK         0.0600 
    239 H239      -10.0866  -21.3568  -55.7318 H         1 UNK         0.0600 
    240 H240       -5.8459  -21.6068  -54.3484 H         1 UNK         0.3000 
    241 H241       -4.4691  -19.9632  -53.9005 H         1 UNK         0.0600 
    242 H242       -5.5969  -18.7320  -57.4990 H         1 UNK         0.3800 
    243 H243       -6.4792  -19.9604  -56.6355 H         1 UNK         0.3800 
    244 H244       -6.6008  -17.8576  -53.3700 H         1 UNK         0.0800 
    245 H245       -6.3348  -19.1255  -52.2175 H         1 UNK         0.0800 
    246 H246       -5.2253  -18.4751  -50.1654 H         1 UNK         0.0800 
    247 H247       -3.9877  -19.4988  -50.8557 H         1 UNK         0.0800 
@<TRIPOS>BOND
     1    1    2 1    
     2    1  127 1    
     3    1  128 1    
     4    1  129 1    
     5    2    3 2    
     6    2    4 am   BACKBONE|DICT|INTERRES
     7    4    5 1    
     8    4  130 1    
     9    5    6 1    
    10    5   65 1    
    11    5  131 1    
    12    6    7 1    
    13    6  132 1    
    14    6  133 1    
    15    7    8 1    
    16    8    9 1    
    17    8  134 1    
    18    8  135 1    
    19    9   10 ar   
    20    9   14 ar   
    21   10   11 ar   
    22   10  136 1    
    23   11   12 ar   
    24   11  126 1    
    25   12   13 ar   
    26   12  137 1    
    27   13   14 ar   
    28   13   15 1    
    29   14  138 1    
    30   15   16 1    
    31   15  139 1    
    32   15  140 1    
    33   16   17 1    
    34   17   18 1    
    35   17  141 1    
    36   17  142 1    
    37   18   19 1    
    38   18   67 1    
    39   18  143 1    
    40   19   20 am   BACKBONE|DICT|INTERRES
    41   19  144 1    
    42   20   21 2    
    43   20   22 1    
    44   22   23 1    
    45   22   24 1    
    46   22  145 1    
    47   23  146 1    
    48   23  147 1    
    49   23  148 1    
    50   24   25 am   BACKBONE|DICT|INTERRES
    51   24  149 1    
    52   25   26 2    
    53   25   27 1    
    54   27   28 1    
    55   27   29 1    
    56   27  150 1    
    57   28  151 1    
    58   28  152 1    
    59   28  153 1    
    60   29   30 am   BACKBONE|DICT|INTERRES
    61   29  154 1    
    62   30   31 2    
    63   30   32 1    
    64   32   33 1    
    65   32   34 1    
    66   32  155 1    
    67   33  156 1    
    68   33  157 1    
    69   33  158 1    
    70   34   35 am   BACKBONE|DICT|INTERRES
    71   34  159 1    
    72   35   36 2    
    73   35   37 1    
    74   37   38 1    
    75   37   39 1    
    76   37  160 1    
    77   38  161 1    
    78   38  162 1    
    79   38  163 1    
    80   39   40 am   BACKBONE|DICT|INTERRES
    81   39  164 1    
    82   40   41 2    
    83   40   42 1    
    84   42   43 1    
    85   42   44 1    
    86   42  165 1    
    87   43  166 1    
    88   43  167 1    
    89   43  168 1    
    90   44   45 am   BACKBONE|DICT|INTERRES
    91   44  169 1    
    92   45   46 2    
    93   45   47 1    
    94   47   48 1    
    95   47   49 1    
    96   47  170 1    
    97   48  171 1    
    98   48  172 1    
    99   48  173 1    
   100   49   50 am   BACKBONE|DICT|INTERRES
   101   49  174 1    
   102   50   51 2    
   103   50   52 1    
   104   52   53 1    
   105   52   54 1    
   106   52  175 1    
   107   53  176 1    
   108   53  177 1    
   109   53  178 1    
   110   54   55 am   BACKBONE|DICT|INTERRES
   111   54  179 1    
   112   55   56 2    
   113   55   57 1    
   114   57   58 1    
   115   57   59 1    
   116   57  180 1    
   117   58  181 1    
   118   58  182 1    
   119   58  183 1    
   120   59   60 am   BACKBONE|DICT|INTERRES
   121   59  184 1    
   122   60   61 2    
   123   60   62 1    
   124   62   63 1    
   125   62   64 1    
   126   62  185 1    
   127   63  186 1    
   128   63  187 1    
   129   63  188 1    
   130   64   65 am   BACKBONE|DICT|INTERRES
   131   64  189 1    
   132   65   66 2    
   133   67   68 2    
   134   67   69 am   BACKBONE|DICT|INTERRES
   135   69   70 1    
   136   69  190 1    
   137   70   71 1    
   138   70   72 1    
   139   70  191 1    
   140   71  192 1    
   141   71  193 1    
   142   71  194 1    
   143   72   73 2    
   144   72   74 am   BACKBONE|DICT|INTERRES
   145   74   75 1    
   146   74  195 1    
   147   75   76 1    
   148   75   77 1    
   149   75  196 1    
   150   76  197 1    
   151   76  198 1    
   152   76  199 1    
   153   77   78 2    
   154   77   79 am   BACKBONE|DICT|INTERRES
   155   79   80 1    
   156   79  200 1    
   157   80   81 1    
   158   80   82 1    
   159   80  201 1    
   160   81  202 1    
   161   81  203 1    
   162   81  204 1    
   163   82   83 2    
   164   82   84 am   BACKBONE|DICT|INTERRES
   165   84   85 1    
   166   84  205 1    
   167   85   86 1    
   168   85   87 1    
   169   85  206 1    
   170   86  207 1    
   171   86  208 1    
   172   86  209 1    
   173   87   88 2    
   174   87   89 am   BACKBONE|DICT|INTERRES
   175   89   90 1    
   176   89  210 1    
   177   90   91 1    
   178   90   92 1    
   179   90  211 1    
   180   91  212 1    
   181   91  213 1    
   182   91  214 1    
   183   92   93 2    
   184   92   94 am   BACKBONE|DICT|INTERRES
   185   94   95 1    
   186   94  215 1    
   187   95   96 1    
   188   95   97 1    
   189   95  216 1    
   190   96  217 1    
   191   96  218 1    
   192   96  219 1    
   193   97   98 2    
   194   97   99 am   BACKBONE|DICT|INTERRES
   195   99  100 1    
   196   99  220 1    
   197  100  101 1    
   198  100  102 1    
   199  100  221 1    
   200  101  222 1    
   201  101  223 1    
   202  101  224 1    
   203  102  103 2    
   204  102  104 am   BACKBONE|DICT|INTERRES
   205  104  105 1    
   206  104  225 1    
   207  105  106 1    
   208  105  107 1    
   209  105  226 1    
   210  106  227 1    
   211  106  228 1    
   212  106  229 1    
   213  107  108 2    
   214  107  109 am   BACKBONE|DICT|INTERRES
   215  109  110 1    
   216  109  230 1    
   217  110  111 1    
   218  110  112 1    
   219  110  231 1    
   220  111  232 1    
   221  111  233 1    
   222  111  234 1    
   223  112  113 2    
   224  112  114 am   BACKBONE|DICT|INTERRES
   225  114  115 1    
   226  114  235 1    
   227  115  116 1    
   228  115  117 1    
   229  115  236 1    
   230  116  237 1    
   231  116  238 1    
   232  116  239 1    
   233  117  118 2    
   234  117  119 am   BACKBONE|DICT|INTERRES
   235  119  120 1    
   236  119  240 1    
   237  120  121 1    
   238  120  124 1    
   239  120  241 1    
   240  121  122 am   BACKBONE|DICT|INTERRES
   241  121  123 2    
   242  122  242 1    
   243  122  243 1    
   244  124  125 1    
   245  124  244 1    
   246  124  245 1    
   247  125  126 1    
   248  126  246 1    
   249  126  247 1    
@<TRIPOS>SUBSTRUCTURE
     1 UNK         1 GROUP             0       ****    0 ROOT    
