@<TRIPOS>MOLECULE
3R540
247   249    1
SMALL
USER_CHARGES


@<TRIPOS>ATOM
      1 CA          7.1105  -11.2666  -46.2478 C.3       0 UNK        -0.1800 
      2 C           6.1390  -12.4321  -46.1256 C.2       0 UNK         0.5000 
      3 O           6.3232  -13.2930  -45.2665 O.2       0 UNK        -0.5000 
      4 N           5.1103  -12.4612  -46.9831 N.am      1 UNK        -0.5000 
      5 CA          4.0604  -13.4886  -47.0098 C.3       1 UNK         0.1400 
      6 C6          3.2860  -13.4421  -48.3526 C.3       23 UNK        -0.0398 
      7 S7          2.4207  -15.0004  -48.7355 S.3       23 UNK        -0.2404 
      8 C8          3.4194  -15.6576  -50.1030 C.3       23 UNK        -0.0205 
      9 C9          2.9264  -17.0375  -50.5052 C.ar      23 UNK        -0.0193 
     10 C10         1.9280  -17.1797  -51.4734 C.ar      23 UNK        -0.1150 
     11 C11         1.4632  -18.4485  -51.8341 C.ar      23 UNK        -0.0193 
     12 C12         2.0004  -19.5778  -51.2059 C.ar      23 UNK        -0.1150 
     13 C13         2.9896  -19.4491  -50.2252 C.ar      23 UNK        -0.0193 
     14 C14         3.4614  -18.1745  -49.8953 C.ar      23 UNK        -0.1150 
     15 C15         3.5449  -20.6937  -49.5383 C.3       23 UNK        -0.0205 
     16 S16         3.6964  -20.5490  -47.7210 S.3       23 UNK        -0.2404 
     17 C17         2.0333  -19.9913  -47.2143 C.3       23 UNK        -0.0398 
     18 CA          0.9511  -21.0820  -47.3666 C.3       11 UNK         0.1400 
     19 N           1.2144  -22.2696  -46.5517 N.am      11 UNK        -0.5000 
     20 C           0.6202  -23.4563  -46.7349 C.2       10 UNK         0.5000 
     21 O          -0.1890  -23.6841  -47.6323 O.2       10 UNK        -0.5000 
     22 CA          0.9567  -24.5626  -45.7197 C.3       10 UNK         0.1400 
     23 CB          2.2658  -25.2685  -46.1035 C.3       10 UNK        -0.1800 
     24 N           1.0630  -24.0524  -44.3528 N.am      10 UNK        -0.5000 
     25 C           0.0421  -23.5375  -43.6526 C.2       9 UNK         0.5000 
     26 O          -1.1154  -23.4849  -44.0669 O.2       9 UNK        -0.5000 
     27 CA          0.3877  -22.9312  -42.2799 C.3       9 UNK         0.1400 
     28 CB          0.3443  -24.0084  -41.1862 C.3       9 UNK        -0.1800 
     29 N           1.6947  -22.2661  -42.2592 N.am      9 UNK        -0.5000 
     30 C           2.0066  -21.1934  -42.9975 C.2       8 UNK         0.5000 
     31 O           1.2269  -20.6571  -43.7878 O.2       8 UNK        -0.5000 
     32 CA          3.4382  -20.6640  -42.8705 C.3       8 UNK         0.1400 
     33 CB          4.3790  -21.3847  -43.8505 C.3       8 UNK        -0.1800 
     34 N           3.4282  -19.2319  -43.1418 N.am      8 UNK        -0.5000 
     35 C           4.3066  -18.3516  -42.6485 C.2       7 UNK         0.5000 
     36 O           5.3060  -18.6762  -42.0050 O.2       7 UNK        -0.5000 
     37 CA          4.0184  -16.8527  -42.8807 C.3       7 UNK         0.1400 
     38 CB          4.8122  -16.3443  -44.0923 C.3       7 UNK        -0.1800 
     39 N           2.5980  -16.5190  -43.0486 N.am      7 UNK        -0.5000 
     40 C           1.6350  -16.7749  -42.1492 C.2       6 UNK         0.5000 
     41 O           1.8689  -17.2648  -41.0430 O.2       6 UNK        -0.5000 
     42 CA          0.1675  -16.4542  -42.5119 C.3       6 UNK         0.1400 
     43 CB         -0.4600  -15.5108  -41.4726 C.3       6 UNK        -0.1800 
     44 N          -0.0723  -15.9066  -43.8499 N.am      6 UNK        -0.5000 
     45 C           0.1114  -16.5519  -45.0113 C.2       5 UNK         0.5000 
     46 O           0.6106  -17.6744  -45.0883 O.2       5 UNK        -0.5000 
     47 CA         -0.3340  -15.8099  -46.2911 C.3       5 UNK         0.1400 
     48 CB         -0.5253  -16.7474  -47.4969 C.3       5 UNK        -0.1800 
     49 N          -1.5143  -14.9636  -46.0937 N.am      5 UNK        -0.5000 
     50 C          -2.7448  -15.3512  -45.7210 C.2       4 UNK         0.5000 
     51 O          -3.0679  -16.5251  -45.5395 O.2       4 UNK        -0.5000 
     52 CA         -3.7912  -14.2297  -45.5141 C.3       4 UNK         0.1400 
     53 CB         -4.8635  -14.6076  -44.4703 C.3       4 UNK        -0.1800 
     54 N          -3.2049  -12.9175  -45.2011 N.am      4 UNK        -0.5000 
     55 C          -2.4224  -12.6211  -44.1540 C.2       3 UNK         0.5000 
     56 O          -2.1131  -13.4229  -43.2718 O.2       3 UNK        -0.5000 
     57 CA         -1.8414  -11.1972  -44.1113 C.3       3 UNK         0.1400 
     58 CB         -2.5114  -10.3685  -43.0049 C.3       3 UNK        -0.1800 
     59 N          -0.3945  -11.2229  -43.8879 N.am      3 UNK        -0.5000 
     60 C           0.4967  -11.7909  -44.7116 C.2       2 UNK         0.5000 
     61 O           0.1872  -12.3041  -45.7912 O.2       2 UNK        -0.5000 
     62 CA          1.9672  -11.7449  -44.2444 C.3       2 UNK         0.1400 
     63 CB          2.1808  -12.5467  -42.9416 C.3       2 UNK        -0.1800 
     64 N           2.9116  -12.1558  -45.2911 N.am      2 UNK        -0.5000 
     65 C           3.1020  -13.3844  -45.7989 C.2       1 UNK         0.5000 
     66 O           2.5767  -14.4049  -45.3530 O.2       1 UNK        -0.5000 
     67 C          -0.4528  -20.5159  -47.0865 C.2       11 UNK         0.5000 
     68 O          -1.1542  -20.1587  -48.0308 O.2       11 UNK        -0.5000 
     69 N          -0.8677  -20.5021  -45.8122 N.am      12 UNK        -0.5000 
     70 CA         -2.2095  -20.0995  -45.3917 C.3       12 UNK         0.1400 
     71 CB         -2.2741  -20.0342  -43.8593 C.3       12 UNK        -0.1800 
     72 C          -3.3027  -21.0226  -45.9631 C.2       12 UNK         0.5000 
     73 O          -4.3030  -20.5291  -46.4825 O.2       12 UNK        -0.5000 
     74 N          -3.0668  -22.3423  -45.9153 N.am      13 UNK        -0.5000 
     75 CA         -3.9255  -23.3644  -46.5197 C.3       13 UNK         0.1400 
     76 CB         -3.4517  -24.7555  -46.0738 C.3       13 UNK        -0.1800 
     77 C          -3.9786  -23.2820  -48.0576 C.2       13 UNK         0.5000 
     78 O          -5.0174  -23.5795  -48.6472 O.2       13 UNK        -0.5000 
     79 N          -2.8668  -22.8724  -48.6812 N.am      14 UNK        -0.5000 
     80 CA         -2.7780  -22.6169  -50.1145 C.3       14 UNK         0.1400 
     81 CB         -1.3092  -22.5715  -50.5503 C.3       14 UNK        -0.1800 
     82 C          -3.5304  -21.3536  -50.5481 C.2       14 UNK         0.5000 
     83 O          -4.1334  -21.3657  -51.6205 O.2       14 UNK        -0.5000 
     84 N          -3.4730  -20.2988  -49.7268 N.am      15 UNK        -0.5000 
     85 CA         -4.1442  -19.0255  -49.9701 C.3       15 UNK         0.1400 
     86 CB         -3.5046  -17.9355  -49.1024 C.3       15 UNK        -0.1800 
     87 C          -5.6593  -19.0978  -49.7297 C.2       15 UNK         0.5000 
     88 O          -6.4088  -18.4518  -50.4631 O.2       15 UNK        -0.5000 
     89 N          -6.0850  -19.8860  -48.7306 N.am      16 UNK        -0.5000 
     90 CA         -7.4810  -20.1487  -48.3725 C.3       16 UNK         0.1400 
     91 CB         -7.5268  -21.1242  -47.1857 C.3       16 UNK        -0.1800 
     92 C          -8.2842  -20.6910  -49.5689 C.2       16 UNK         0.5000 
     93 O          -8.0656  -21.8286  -49.9876 O.2       16 UNK        -0.5000 
     94 N          -9.1345  -19.8274  -50.1444 N.am      17 UNK        -0.5000 
     95 CA         -9.9170  -20.0321  -51.3722 C.3       17 UNK         0.1400 
     96 CB        -11.0080  -21.0983  -51.1393 C.3       17 UNK        -0.1800 
     97 C          -9.0595  -20.3374  -52.6245 C.2       17 UNK         0.5000 
     98 O          -9.5827  -20.8816  -53.5982 O.2       17 UNK        -0.5000 
     99 N          -7.7586  -20.0039  -52.5682 N.am      18 UNK        -0.5000 
    100 CA        -6.7039  -20.3367  -53.5334 C.3       18 UNK         0.1400 
    101 CB        -6.9150  -19.5459  -54.8407 C.3       18 UNK        -0.1800 
    102 C         -6.5433  -21.8602  -53.7670 C.2       18 UNK         0.5000 
    103 O         -6.1536  -22.2728  -54.8604 O.2       18 UNK        -0.5000 
    104 N         -6.8892  -22.6702  -52.7545 N.am      19 UNK        -0.5000 
    105 CA        -7.0718  -24.1145  -52.8624 C.3       19 UNK         0.1400 
    106 CB        -7.7886  -24.6348  -51.6045 C.3       19 UNK        -0.1800 
    107 C         -5.7822  -24.9054  -53.1448 C.2       19 UNK         0.5000 
    108 O         -5.6474  -25.4745  -54.2290 O.2       19 UNK        -0.5000 
    109 N         -4.8947  -24.9975  -52.1440 N.am      20 UNK        -0.5000 
    110 CA        -3.8291  -26.0056  -52.1241 C.3       20 UNK         0.1400 
    111 CB        -3.3614  -26.2647  -50.6803 C.3       20 UNK        -0.1800 
    112 C         -2.6337  -25.7202  -53.0534 C.2       20 UNK         0.5000 
    113 O         -1.9440  -26.6772  -53.4095 O.2       20 UNK        -0.5000 
    114 N         -2.3961  -24.4556  -53.4410 N.am      21 UNK        -0.5000 
    115 CA        -1.2991  -24.1040  -54.3544 C.3       21 UNK         0.1400 
    116 CB         0.0797  -24.2425  -53.6710 C.3       21 UNK        -0.1800 
    117 C         -1.4180  -22.7182  -55.0092 C.2       21 UNK         0.5000 
    118 O         -0.9308  -22.5684  -56.1308 O.2       21 UNK        -0.5000 
    119 N         -2.0077  -21.7219  -54.3286 N.am      22 UNK        -0.5000 
    120 CA        -2.0095  -20.3238  -54.8125 C.3       22 UNK         0.1400 
    121 C         -2.9366  -20.0352  -56.0313 C.2       22 UNK         0.5000 
    122 N         -3.8279  -20.9343  -56.4257 N.am      22 UNK        -0.7600 
    123 O         -2.8326  -18.9751  -56.6421 O.2       22 UNK        -0.5000 
    124 C124       -2.2477  -19.2857  -53.6846 C.3       23 UNK        -0.0398 
    125 S125       -1.0926  -19.4302  -52.2790 S.3       23 UNK        -0.2404 
    126 C126        0.3955  -18.5978  -52.9121 C.3       23 UNK        -0.0205 
    127 H127        6.8294  -10.5856  -47.0515 H         1 UNK         0.0600 
    128 H128        7.1364  -10.7010  -45.3164 H         1 UNK         0.0600 
    129 H129        8.1156  -11.6360  -46.4514 H         1 UNK         0.0600 
    130 H130        5.0258  -11.7256  -47.6706 H         1 UNK         0.3000 
    131 H131        4.5613  -14.4572  -46.9406 H         1 UNK         0.0600 
    132 H132        2.5591  -12.6275  -48.3590 H         1 UNK         0.0800 
    133 H133        3.9726  -13.2277  -49.1728 H         1 UNK         0.0800 
    134 H134        3.3697  -14.9765  -50.9540 H         1 UNK         0.0800 
    135 H135        4.4669  -15.7062  -49.8010 H         1 UNK         0.0800 
    136 H136        1.5135  -16.2994  -51.9443 H         1 UNK         0.1150 
    137 H137        1.6366  -20.5586  -51.4792 H         1 UNK         0.1150 
    138 H138        4.2300  -18.0646  -49.1433 H         1 UNK         0.1150 
    139 H139        2.9276  -21.5641  -49.7650 H         1 UNK         0.0800 
    140 H140        4.5312  -20.9056  -49.9524 H         1 UNK         0.0800 
    141 H141        1.7717  -19.1062  -47.7939 H         1 UNK         0.0800 
    142 H142        2.0937  -19.6580  -46.1774 H         1 UNK         0.0800 
    143 H143        0.9527  -21.3968  -48.4115 H         1 UNK         0.0600 
    144 H144        1.8357  -22.1471  -45.7669 H         1 UNK         0.3000 
    145 H145        0.1493  -25.2975  -45.7465 H         1 UNK         0.0600 
    146 H146        2.4761  -26.1015  -45.4325 H         1 UNK         0.0600 
    147 H147        2.2076  -25.6736  -47.1147 H         1 UNK         0.0600 
    148 H148        3.1171  -24.5872  -46.0714 H         1 UNK         0.0600 
    149 H149        1.9800  -24.0585  -43.9319 H         1 UNK         0.3000 
    150 H150       -0.3721  -22.1816  -42.0499 H         1 UNK         0.0600 
    151 H151       -0.6262  -24.5063  -41.1678 H         1 UNK         0.0600 
    152 H152        0.5039  -23.5747  -40.1988 H         1 UNK         0.0600 
    153 H153        1.1038  -24.7752  -41.3438 H         1 UNK         0.0600 
    154 H154        2.3890  -22.6564  -41.6381 H         1 UNK         0.3000 
    155 H155        3.7768  -20.8352  -41.8463 H         1 UNK         0.0600 
    156 H156        5.4026  -21.0219  -43.7566 H         1 UNK         0.0600 
    157 H157        4.0676  -21.2381  -44.8839 H         1 UNK         0.0600 
    158 H158        4.3975  -22.4585  -43.6610 H         1 UNK         0.0600 
    159 H159        2.6066  -18.8984  -43.6338 H         1 UNK         0.3000 
    160 H160        4.3745  -16.3203  -41.9967 H         1 UNK         0.0600 
    161 H161        4.4072  -16.7271  -45.0300 H         1 UNK         0.0600 
    162 H162        5.8593  -16.6451  -44.0367 H         1 UNK         0.0600 
    163 H163        4.7979  -15.2563  -44.1346 H         1 UNK         0.0600 
    164 H164        2.3385  -16.0814  -43.9254 H         1 UNK         0.3000 
    165 H165       -0.3664  -17.4046  -42.4574 H         1 UNK         0.0600 
    166 H166       -0.0328  -14.5091  -41.5295 H         1 UNK         0.0600 
    167 H167       -1.5365  -15.4272  -41.6211 H         1 UNK         0.0600 
    168 H168       -0.3097  -15.8757  -40.4559 H         1 UNK         0.0600 
    169 H169       -0.5084  -14.9939  -43.8796 H         1 UNK         0.3000 
    170 H170        0.4704  -15.1231  -46.5441 H         1 UNK         0.0600 
    171 H171        0.4095  -17.2416  -47.7583 H         1 UNK         0.0600 
    172 H172       -1.2579  -17.5241  -47.2848 H         1 UNK         0.0600 
    173 H173       -0.8536  -16.1975  -48.3784 H         1 UNK         0.0600 
    174 H174       -1.3379  -13.9701  -46.1810 H         1 UNK         0.3000 
    175 H175       -4.2958  -14.1146  -46.4743 H         1 UNK         0.0600 
    176 H176       -5.5925  -13.8071  -44.3453 H         1 UNK         0.0600 
    177 H177       -5.4125  -15.4987  -44.7771 H         1 UNK         0.0600 
    178 H178       -4.4230  -14.8165  -43.4950 H         1 UNK         0.0600 
    179 H179       -3.3830  -12.1937  -45.8840 H         1 UNK         0.3000 
    180 H180       -2.0243  -10.7060  -45.0693 H         1 UNK         0.0600 
    181 H181       -2.3386  -10.8003  -42.0181 H         1 UNK         0.0600 
    182 H182       -3.5904  -10.3169  -43.1559 H         1 UNK         0.0600 
    183 H183       -2.1359   -9.3451  -42.9948 H         1 UNK         0.0600 
    184 H184       -0.0738  -10.8375  -43.0119 H         1 UNK         0.3000 
    185 H185        2.1989  -10.6997  -44.0349 H         1 UNK         0.0600 
    186 H186        3.2351  -12.5813  -42.6666 H         1 UNK         0.0600 
    187 H187        1.6449  -12.0930  -42.1077 H         1 UNK         0.0600 
    188 H188        1.8248  -13.5729  -43.0295 H         1 UNK         0.0600 
    189 H189        3.4028  -11.3973  -45.7411 H         1 UNK         0.3000 
    190 H190       -0.2052  -20.7354  -45.0781 H         1 UNK         0.3000 
    191 H191       -2.3872  -19.0954  -45.7796 H         1 UNK         0.0600 
    192 H192       -1.5170  -19.3561  -43.4654 H         1 UNK         0.0600 
    193 H193       -3.2459  -19.6672  -43.5276 H         1 UNK         0.0600 
    194 H194       -2.1176  -21.0123  -43.4051 H         1 UNK         0.0600 
    195 H195       -2.2413  -22.6751  -45.4246 H         1 UNK         0.3000 
    196 H196       -4.9403  -23.2122  -46.1464 H         1 UNK         0.0600 
    197 H197       -4.0848  -25.5381  -46.4939 H         1 UNK         0.0600 
    198 H198       -3.4871  -24.8550  -44.9888 H         1 UNK         0.0600 
    199 H199       -2.4281  -24.9525  -46.3944 H         1 UNK         0.0600 
    200 H200       -2.0265  -22.7174  -48.1370 H         1 UNK         0.3000 
    201 H201       -3.2545  -23.4394  -50.6400 H         1 UNK         0.0600 
    202 H202       -0.8135  -23.5267  -50.3767 H         1 UNK         0.0600 
    203 H203       -0.7514  -21.7999  -50.0230 H         1 UNK         0.0600 
    204 H204       -1.2325  -22.3485  -51.6120 H         1 UNK         0.0600 
    205 H205       -2.8625  -20.3464  -48.9158 H         1 UNK         0.3000 
    206 H206       -3.9908  -18.7510  -51.0154 H         1 UNK         0.0600 
    207 H207       -2.4543  -17.8108  -49.3641 H         1 UNK         0.0600 
    208 H208       -3.9942  -16.9724  -49.2508 H         1 UNK         0.0600 
    209 H209       -3.5631  -18.1775  -48.0402 H         1 UNK         0.0600 
    210 H210       -5.3854  -20.3342  -48.1470 H         1 UNK         0.3000 
    211 H211       -7.9231  -19.2046  -48.0487 H         1 UNK         0.0600 
    212 H212       -7.0303  -22.0664  -47.4204 H         1 UNK         0.0600 
    213 H213       -8.5561  -21.3552  -46.9086 H         1 UNK         0.0600 
    214 H214       -7.0416  -20.7000  -46.3067 H         1 UNK         0.0600 
    215 H215       -9.1936  -18.8969  -49.7539 H         1 UNK         0.3000 
    216 H216      -10.4178  -19.0847  -51.5757 H         1 UNK         0.0600 
    217 H217      -11.6048  -20.8662  -50.2573 H         1 UNK         0.0600 
    218 H218      -10.5797  -22.0918  -51.0028 H         1 UNK         0.0600 
    219 H219      -11.6929  -21.1520  -51.9863 H         1 UNK         0.0600 
    220 H220       -7.4338  -19.5270  -51.7318 H         1 UNK         0.3000 
    221 H221       -5.7696  -19.9909  -53.0920 H         1 UNK         0.0600 
    222 H222       -7.7928  -19.8925  -55.3866 H         1 UNK         0.0600 
    223 H223       -7.0415  -18.4818  -54.6416 H         1 UNK         0.0600 
    224 H224       -6.0579  -19.6468  -55.5047 H         1 UNK         0.0600 
    225 H225       -7.1786  -22.2505  -51.8777 H         1 UNK         0.3000 
    226 H226       -7.7414  -24.2897  -53.7072 H         1 UNK         0.0600 
    227 H227       -8.7773  -24.1862  -51.5049 H         1 UNK         0.0600 
    228 H228       -7.9263  -25.7159  -51.6483 H         1 UNK         0.0600 
    229 H229       -7.2313  -24.4091  -50.6943 H         1 UNK         0.0600 
    230 H230       -5.0817  -24.5033  -51.2822 H         1 UNK         0.3000 
    231 H231       -4.2743  -26.9402  -52.4738 H         1 UNK         0.0600 
    232 H232       -4.2009  -26.3198  -49.9868 H         1 UNK         0.0600 
    233 H233       -2.6696  -25.5069  -50.3174 H         1 UNK         0.0600 
    234 H234       -2.8331  -27.2169  -50.6209 H         1 UNK         0.0600 
    235 H235       -3.0542  -23.7336  -53.1878 H         1 UNK         0.3000 
    236 H236       -1.3295  -24.8178  -55.1810 H         1 UNK         0.0600 
    237 H237        0.2618  -25.2559  -53.3155 H         1 UNK         0.0600 
    238 H238        0.8831  -24.0078  -54.3707 H         1 UNK         0.0600 
    239 H239        0.1893  -23.5690  -52.8236 H         1 UNK         0.0600 
    240 H240       -2.3841  -21.8688  -53.4051 H         1 UNK         0.3000 
    241 H241       -1.0028  -20.1287  -55.1874 H         1 UNK         0.0600 
    242 H242       -4.4098  -20.7346  -57.2231 H         1 UNK         0.3800 
    243 H243       -3.9726  -21.7881  -55.9093 H         1 UNK         0.3800 
    244 H244       -2.1790  -18.2682  -54.0736 H         1 UNK         0.0800 
    245 H245       -3.2618  -19.3885  -53.2973 H         1 UNK         0.0800 
    246 H246        0.8066  -19.1728  -53.7425 H         1 UNK         0.0800 
    247 H247        0.1158  -17.6224  -53.3131 H         1 UNK         0.0800 
@<TRIPOS>BOND
     1    1    2 1    
     2    1  127 1    
     3    1  128 1    
     4    1  129 1    
     5    2    3 2    
     6    2    4 am   BACKBONE|DICT|INTERRES
     7    4    5 1    
     8    4  130 1    
     9    5    6 1    
    10    5   65 1    
    11    5  131 1    
    12    6    7 1    
    13    6  132 1    
    14    6  133 1    
    15    7    8 1    
    16    8    9 1    
    17    8  134 1    
    18    8  135 1    
    19    9   10 ar   
    20    9   14 ar   
    21   10   11 ar   
    22   10  136 1    
    23   11   12 ar   
    24   11  126 1    
    25   12   13 ar   
    26   12  137 1    
    27   13   14 ar   
    28   13   15 1    
    29   14  138 1    
    30   15   16 1    
    31   15  139 1    
    32   15  140 1    
    33   16   17 1    
    34   17   18 1    
    35   17  141 1    
    36   17  142 1    
    37   18   19 1    
    38   18   67 1    
    39   18  143 1    
    40   19   20 am   BACKBONE|DICT|INTERRES
    41   19  144 1    
    42   20   21 2    
    43   20   22 1    
    44   22   23 1    
    45   22   24 1    
    46   22  145 1    
    47   23  146 1    
    48   23  147 1    
    49   23  148 1    
    50   24   25 am   BACKBONE|DICT|INTERRES
    51   24  149 1    
    52   25   26 2    
    53   25   27 1    
    54   27   28 1    
    55   27   29 1    
    56   27  150 1    
    57   28  151 1    
    58   28  152 1    
    59   28  153 1    
    60   29   30 am   BACKBONE|DICT|INTERRES
    61   29  154 1    
    62   30   31 2    
    63   30   32 1    
    64   32   33 1    
    65   32   34 1    
    66   32  155 1    
    67   33  156 1    
    68   33  157 1    
    69   33  158 1    
    70   34   35 am   BACKBONE|DICT|INTERRES
    71   34  159 1    
    72   35   36 2    
    73   35   37 1    
    74   37   38 1    
    75   37   39 1    
    76   37  160 1    
    77   38  161 1    
    78   38  162 1    
    79   38  163 1    
    80   39   40 am   BACKBONE|DICT|INTERRES
    81   39  164 1    
    82   40   41 2    
    83   40   42 1    
    84   42   43 1    
    85   42   44 1    
    86   42  165 1    
    87   43  166 1    
    88   43  167 1    
    89   43  168 1    
    90   44   45 am   BACKBONE|DICT|INTERRES
    91   44  169 1    
    92   45   46 2    
    93   45   47 1    
    94   47   48 1    
    95   47   49 1    
    96   47  170 1    
    97   48  171 1    
    98   48  172 1    
    99   48  173 1    
   100   49   50 am   BACKBONE|DICT|INTERRES
   101   49  174 1    
   102   50   51 2    
   103   50   52 1    
   104   52   53 1    
   105   52   54 1    
   106   52  175 1    
   107   53  176 1    
   108   53  177 1    
   109   53  178 1    
   110   54   55 am   BACKBONE|DICT|INTERRES
   111   54  179 1    
   112   55   56 2    
   113   55   57 1    
   114   57   58 1    
   115   57   59 1    
   116   57  180 1    
   117   58  181 1    
   118   58  182 1    
   119   58  183 1    
   120   59   60 am   BACKBONE|DICT|INTERRES
   121   59  184 1    
   122   60   61 2    
   123   60   62 1    
   124   62   63 1    
   125   62   64 1    
   126   62  185 1    
   127   63  186 1    
   128   63  187 1    
   129   63  188 1    
   130   64   65 am   BACKBONE|DICT|INTERRES
   131   64  189 1    
   132   65   66 2    
   133   67   68 2    
   134   67   69 am   BACKBONE|DICT|INTERRES
   135   69   70 1    
   136   69  190 1    
   137   70   71 1    
   138   70   72 1    
   139   70  191 1    
   140   71  192 1    
   141   71  193 1    
   142   71  194 1    
   143   72   73 2    
   144   72   74 am   BACKBONE|DICT|INTERRES
   145   74   75 1    
   146   74  195 1    
   147   75   76 1    
   148   75   77 1    
   149   75  196 1    
   150   76  197 1    
   151   76  198 1    
   152   76  199 1    
   153   77   78 2    
   154   77   79 am   BACKBONE|DICT|INTERRES
   155   79   80 1    
   156   79  200 1    
   157   80   81 1    
   158   80   82 1    
   159   80  201 1    
   160   81  202 1    
   161   81  203 1    
   162   81  204 1    
   163   82   83 2    
   164   82   84 am   BACKBONE|DICT|INTERRES
   165   84   85 1    
   166   84  205 1    
   167   85   86 1    
   168   85   87 1    
   169   85  206 1    
   170   86  207 1    
   171   86  208 1    
   172   86  209 1    
   173   87   88 2    
   174   87   89 am   BACKBONE|DICT|INTERRES
   175   89   90 1    
   176   89  210 1    
   177   90   91 1    
   178   90   92 1    
   179   90  211 1    
   180   91  212 1    
   181   91  213 1    
   182   91  214 1    
   183   92   93 2    
   184   92   94 am   BACKBONE|DICT|INTERRES
   185   94   95 1    
   186   94  215 1    
   187   95   96 1    
   188   95   97 1    
   189   95  216 1    
   190   96  217 1    
   191   96  218 1    
   192   96  219 1    
   193   97   98 2    
   194   97   99 am   BACKBONE|DICT|INTERRES
   195   99  100 1    
   196   99  220 1    
   197  100  101 1    
   198  100  102 1    
   199  100  221 1    
   200  101  222 1    
   201  101  223 1    
   202  101  224 1    
   203  102  103 2    
   204  102  104 am   BACKBONE|DICT|INTERRES
   205  104  105 1    
   206  104  225 1    
   207  105  106 1    
   208  105  107 1    
   209  105  226 1    
   210  106  227 1    
   211  106  228 1    
   212  106  229 1    
   213  107  108 2    
   214  107  109 am   BACKBONE|DICT|INTERRES
   215  109  110 1    
   216  109  230 1    
   217  110  111 1    
   218  110  112 1    
   219  110  231 1    
   220  111  232 1    
   221  111  233 1    
   222  111  234 1    
   223  112  113 2    
   224  112  114 am   BACKBONE|DICT|INTERRES
   225  114  115 1    
   226  114  235 1    
   227  115  116 1    
   228  115  117 1    
   229  115  236 1    
   230  116  237 1    
   231  116  238 1    
   232  116  239 1    
   233  117  118 2    
   234  117  119 am   BACKBONE|DICT|INTERRES
   235  119  120 1    
   236  119  240 1    
   237  120  121 1    
   238  120  124 1    
   239  120  241 1    
   240  121  122 am   BACKBONE|DICT|INTERRES
   241  121  123 2    
   242  122  242 1    
   243  122  243 1    
   244  124  125 1    
   245  124  244 1    
   246  124  245 1    
   247  125  126 1    
   248  126  246 1    
   249  126  247 1    
@<TRIPOS>SUBSTRUCTURE
     1 UNK         1 GROUP             0       ****    0 ROOT    
