@<TRIPOS>MOLECULE
3R540
247   249    1
SMALL
USER_CHARGES


@<TRIPOS>ATOM
      1 CA         -3.1477  -14.7935  -47.3608 C.3       0 UNK        -0.1800 
      2 C          -2.1904  -14.1211  -48.3320 C.2       0 UNK         0.5000 
      3 O          -2.6276  -13.5852  -49.3509 O.2       0 UNK        -0.5000 
      4 N          -0.8884  -14.1296  -48.0194 N.am      1 UNK        -0.5000 
      5 CA          0.1650  -13.4476  -48.7782 C.3       1 UNK         0.1400 
      6 C6          1.5483  -14.1102  -48.5395 C.3       23 UNK        -0.0398 
      7 S7          1.8702  -15.4855  -49.6902 S.3       23 UNK        -0.2404 
      8 C8          1.1861  -16.9235  -48.8093 C.3       23 UNK        -0.0205 
      9 C9          1.5365  -18.2144  -49.5360 C.ar      23 UNK        -0.0193 
     10 C10         0.9988  -18.4709  -50.8005 C.ar      23 UNK        -0.1150 
     11 C11         1.3695  -19.6118  -51.5161 C.ar      23 UNK        -0.0193 
     12 C12         2.2546  -20.5249  -50.9364 C.ar      23 UNK        -0.1150 
     13 C13         2.7865  -20.2970  -49.6631 C.ar      23 UNK        -0.0193 
     14 C14         2.4275  -19.1332  -48.9708 C.ar      23 UNK        -0.1150 
     15 C15         3.7961  -21.2875  -49.0862 C.3       23 UNK        -0.0205 
     16 S16         3.5190  -21.7115  -47.3348 S.3       23 UNK        -0.2404 
     17 C17         1.8374  -22.4163  -47.3886 C.3       23 UNK        -0.0398 
     18 CA          1.5338  -23.3378  -46.1774 C.3       11 UNK         0.1400 
     19 N           1.6541  -22.6166  -44.9038 N.am      11 UNK        -0.5000 
     20 C           1.8996  -23.1647  -43.7070 C.2       10 UNK         0.5000 
     21 O           2.1093  -24.3672  -43.5415 O.2       10 UNK        -0.5000 
     22 CA          1.8264  -22.2298  -42.4868 C.3       10 UNK         0.1400 
     23 CB          3.1119  -21.4001  -42.3490 C.3       10 UNK        -0.1800 
     24 N           0.6621  -21.3440  -42.5451 N.am      10 UNK        -0.5000 
     25 C          -0.6108  -21.7514  -42.4269 C.2       9 UNK         0.5000 
     26 O          -0.9334  -22.9082  -42.1596 O.2       9 UNK        -0.5000 
     27 CA         -1.7141  -20.7008  -42.6609 C.3       9 UNK         0.1400 
     28 CB         -2.0168  -19.9286  -41.3686 C.3       9 UNK        -0.1800 
     29 N          -1.3852  -19.7591  -43.7311 N.am      9 UNK        -0.5000 
     30 C          -1.2667  -20.0963  -45.0238 C.2       8 UNK         0.5000 
     31 O          -1.4916  -21.2237  -45.4583 O.2       8 UNK        -0.5000 
     32 CA         -0.7755  -18.9989  -45.9851 C.3       8 UNK         0.1400 
     33 CB         -1.9474  -18.1461  -46.4855 C.3       8 UNK        -0.1800 
     34 N           0.2367  -18.1364  -45.3705 N.am      8 UNK        -0.5000 
     35 C           1.4637  -18.5604  -45.0359 C.2       7 UNK         0.5000 
     36 O           1.8688  -19.7009  -45.2485 O.2       7 UNK        -0.5000 
     37 CA          2.3630  -17.5679  -44.2812 C.3       7 UNK         0.1400 
     38 CB          3.0270  -16.5737  -45.2445 C.3       7 UNK        -0.1800 
     39 N           1.6261  -16.8444  -43.2447 N.am      7 UNK        -0.5000 
     40 C           1.1654  -17.4160  -42.1220 C.2       6 UNK         0.5000 
     41 O           1.3522  -18.5972  -41.8365 O.2       6 UNK        -0.5000 
     42 CA          0.3289  -16.5390  -41.1720 C.3       6 UNK         0.1400 
     43 CB          1.2340  -15.8637  -40.1314 C.3       6 UNK        -0.1800 
     44 N          -0.4545  -15.5149  -41.8619 N.am      6 UNK        -0.5000 
     45 C          -1.4279  -15.7483  -42.7548 C.2       5 UNK         0.5000 
     46 O          -1.7916  -16.8743  -43.0942 O.2       5 UNK        -0.5000 
     47 CA         -2.0497  -14.5052  -43.4203 C.3       5 UNK         0.1400 
     48 CB         -3.2381  -13.9842  -42.6004 C.3       5 UNK        -0.1800 
     49 N          -1.0708  -13.4294  -43.5970 N.am      5 UNK        -0.5000 
     50 C          -0.0005  -13.5023  -44.3974 C.2       4 UNK         0.5000 
     51 O           0.1877  -14.4224  -45.1980 O.2       4 UNK        -0.5000 
     52 CA          1.0272  -12.3673  -44.2401 C.3       4 UNK         0.1400 
     53 CB          2.3878  -12.6947  -44.8779 C.3       4 UNK        -0.1800 
     54 N           0.5139  -11.1122  -44.7840 N.am      4 UNK        -0.5000 
     55 C          -0.2895  -10.2676  -44.1202 C.2       3 UNK         0.5000 
     56 O          -0.6930  -10.4822  -42.9757 O.2       3 UNK        -0.5000 
     57 CA         -0.7169   -8.9701  -44.8360 C.3       3 UNK         0.1400 
     58 CB          0.1746   -7.7984  -44.3972 C.3       3 UNK        -0.1800 
     59 N          -0.6778   -9.0742  -46.2944 N.am      3 UNK        -0.5000 
     60 C          -1.5552   -9.7696  -47.0279 C.2       2 UNK         0.5000 
     61 O          -2.5339  -10.3481  -46.5531 O.2       2 UNK        -0.5000 
     62 CA         -1.2838   -9.8789  -48.5418 C.3       2 UNK         0.1400 
     63 CB         -0.2512   -8.8648  -49.0853 C.3       2 UNK        -0.1800 
     64 N          -0.9068  -11.2511  -48.8860 N.am      2 UNK        -0.5000 
     65 C           0.1389  -11.9465  -48.4157 C.2       1 UNK         0.5000 
     66 O           1.0073  -11.4629  -47.6876 O.2       1 UNK        -0.5000 
     67 C           0.1436  -24.0092  -46.2974 C.2       11 UNK         0.5000 
     68 O          -0.5483  -23.8095  -47.2938 O.2       11 UNK        -0.5000 
     69 N          -0.2502  -24.7732  -45.2670 N.am      12 UNK        -0.5000 
     70 CA         -1.5924  -25.3217  -45.0483 C.3       12 UNK         0.1400 
     71 CB         -1.6118  -26.0597  -43.7007 C.3       12 UNK        -0.1800 
     72 C          -2.1094  -26.2591  -46.1546 C.2       12 UNK         0.5000 
     73 O          -3.3236  -26.3343  -46.3592 O.2       12 UNK        -0.5000 
     74 N          -1.1863  -26.9571  -46.8307 N.am      13 UNK        -0.5000 
     75 CA         -1.4480  -27.9000  -47.9185 C.3       13 UNK         0.1400 
     76 CB         -0.1088  -28.4586  -48.4225 C.3       13 UNK        -0.1800 
     77 C          -2.2381  -27.2724  -49.0818 C.2       13 UNK         0.5000 
     78 O          -2.0374  -26.0982  -49.3974 O.2       13 UNK        -0.5000 
     79 N          -3.1226  -28.0740  -49.6911 N.am      14 UNK        -0.5000 
     80 CA         -4.0297  -27.6994  -50.7829 C.3       14 UNK         0.1400 
     81 CB         -3.2382  -27.4240  -52.0797 C.3       14 UNK        -0.1800 
     82 C          -4.9790  -26.5425  -50.4011 C.2       14 UNK         0.5000 
     83 O          -5.2167  -25.6510  -51.2151 O.2       14 UNK        -0.5000 
     84 N          -5.4871  -26.5764  -49.1591 N.am      15 UNK        -0.5000 
     85 CA         -6.3775  -25.5882  -48.5403 C.3       15 UNK         0.1400 
     86 CB         -7.7572  -25.5843  -49.2324 C.3       15 UNK        -0.1800 
     87 C          -5.7318  -24.1899  -48.4798 C.2       15 UNK         0.5000 
     88 O          -6.2064  -23.2540  -49.1278 O.2       15 UNK        -0.5000 
     89 N          -4.6311  -24.0936  -47.7202 N.am      16 UNK        -0.5000 
     90 CA         -3.8134  -22.8907  -47.5200 C.3       16 UNK         0.1400 
     91 CB         -4.6091  -21.8123  -46.7516 C.3       16 UNK        -0.1800 
     92 C          -3.2094  -22.3711  -48.8412 C.2       16 UNK         0.5000 
     93 O          -3.2713  -21.1719  -49.1181 O.2       16 UNK        -0.5000 
     94 N          -2.6921  -23.3016  -49.6585 N.am      17 UNK        -0.5000 
     95 CA         -2.1590  -23.0998  -51.0071 C.3       17 UNK         0.1400 
     96 CB         -0.8263  -22.3295  -50.9434 C.3       17 UNK        -0.1800 
     97 C          -3.1961  -22.4542  -51.9491 C.2       17 UNK         0.5000 
     98 O          -2.9015  -21.4507  -52.5993 O.2       17 UNK        -0.5000 
     99 N          -4.4079  -23.0310  -51.9569 N.am      18 UNK        -0.5000 
    100 CA        -5.6199  -22.5716  -52.6394 C.3       18 UNK         0.1400 
    101 CB        -5.4712  -22.7225  -54.1669 C.3       18 UNK        -0.1800 
    102 C         -6.0301  -21.1507  -52.2040 C.2       18 UNK         0.5000 
    103 O         -6.3044  -20.3004  -53.0502 O.2       18 UNK        -0.5000 
    104 N         -6.0227  -20.9106  -50.8842 N.am      19 UNK        -0.5000 
    105 CA        -6.2129  -19.6113  -50.2275 C.3       19 UNK         0.1400 
    106 CB        -7.6828  -19.1574  -50.3377 C.3       19 UNK        -0.1800 
    107 C         -5.2063  -18.5512  -50.7305 C.2       19 UNK         0.5000 
    108 O         -5.5942  -17.4391  -51.0923 O.2       19 UNK        -0.5000 
    109 N         -3.9289  -18.9525  -50.7680 N.am      20 UNK        -0.5000 
    110 CA        -2.7509  -18.2173  -51.2347 C.3       20 UNK         0.1400 
    111 CB        -2.5158  -16.9604  -50.3754 C.3       20 UNK        -0.1800 
    112 C         -2.7181  -17.9023  -52.7469 C.2       20 UNK         0.5000 
    113 O         -1.8498  -17.1412  -53.1778 O.2       20 UNK        -0.5000 
    114 N         -3.6134  -18.4980  -53.5464 N.am      21 UNK        -0.5000 
    115 CA        -3.6104  -18.3988  -55.0056 C.3       21 UNK         0.1400 
    116 CB        -5.0443  -18.5678  -55.5371 C.3       21 UNK        -0.1800 
    117 C         -2.6335  -19.4342  -55.5937 C.2       21 UNK         0.5000 
    118 O         -3.0610  -20.4848  -56.0756 O.2       21 UNK        -0.5000 
    119 N         -1.3338  -19.1253  -55.5014 N.am      22 UNK        -0.5000 
    120 CA        -0.2079  -19.9614  -55.9474 C.3       22 UNK         0.1400 
    121 C         -0.3091  -20.4191  -57.4321 C.2       22 UNK         0.5000 
    122 N          0.0265  -21.6673  -57.7300 N.am      22 UNK        -0.7600 
    123 O         -0.6379  -19.6362  -58.3211 O.2       22 UNK        -0.5000 
    124 C124        1.1530  -19.2476  -55.7297 C.3       23 UNK        -0.0398 
    125 S125        1.4796  -18.5667  -54.0650 S.3       23 UNK        -0.2404 
    126 C126        0.8429  -19.8376  -52.9267 C.3       23 UNK        -0.0205 
    127 H127       -3.7799  -15.5096  -47.8856 H         1 UNK         0.0600 
    128 H128       -3.7891  -14.0484  -46.8904 H         1 UNK         0.0600 
    129 H129       -2.6107  -15.3246  -46.5783 H         1 UNK         0.0600 
    130 H130       -0.5936  -14.5074  -47.1253 H         1 UNK         0.3000 
    131 H131       -0.0618  -13.5104  -49.8450 H         1 UNK         0.0600 
    132 H132        1.6578  -14.4512  -47.5106 H         1 UNK         0.0800 
    133 H133        2.3593  -13.3986  -48.7046 H         1 UNK         0.0800 
    134 H134        1.5665  -16.9430  -47.7888 H         1 UNK         0.0800 
    135 H135        0.1032  -16.8253  -48.7407 H         1 UNK         0.0800 
    136 H136        0.3317  -17.7525  -51.2549 H         1 UNK         0.1150 
    137 H137        2.5478  -21.4065  -51.4888 H         1 UNK         0.1150 
    138 H138        2.8550  -18.9378  -47.9974 H         1 UNK         0.1150 
    139 H139        3.8022  -22.2120  -49.6657 H         1 UNK         0.0800 
    140 H140        4.7936  -20.8580  -49.1850 H         1 UNK         0.0800 
    141 H141        1.7321  -22.9707  -48.3230 H         1 UNK         0.0800 
    142 H142        1.1204  -21.5943  -47.4347 H         1 UNK         0.0800 
    143 H143        2.2697  -24.1443  -46.1875 H         1 UNK         0.0600 
    144 H144        1.5281  -21.6097  -44.9585 H         1 UNK         0.3000 
    145 H145        1.7319  -22.8527  -41.5949 H         1 UNK         0.0600 
    146 H146        3.9878  -22.0467  -42.2839 H         1 UNK         0.0600 
    147 H147        3.2588  -20.7344  -43.1994 H         1 UNK         0.0600 
    148 H148        3.0909  -20.7892  -41.4464 H         1 UNK         0.0600 
    149 H149        0.8495  -20.3566  -42.6813 H         1 UNK         0.3000 
    150 H150       -2.6210  -21.2329  -42.9560 H         1 UNK         0.0600 
    151 H151       -2.3555  -20.6050  -40.5831 H         1 UNK         0.0600 
    152 H152       -2.8019  -19.1882  -41.5232 H         1 UNK         0.0600 
    153 H153       -1.1347  -19.4109  -40.9942 H         1 UNK         0.0600 
    154 H154       -1.2525  -18.7887  -43.4664 H         1 UNK         0.3000 
    155 H155       -0.3220  -19.4892  -46.8498 H         1 UNK         0.0600 
    156 H156       -1.5982  -17.3734  -47.1671 H         1 UNK         0.0600 
    157 H157       -2.4749  -17.6602  -45.6641 H         1 UNK         0.0600 
    158 H158       -2.6701  -18.7575  -47.0277 H         1 UNK         0.0600 
    159 H159       -0.0430  -17.1983  -45.1219 H         1 UNK         0.3000 
    160 H160        3.1556  -18.1435  -43.7980 H         1 UNK         0.0600 
    161 H161        2.2963  -15.9209  -45.7192 H         1 UNK         0.0600 
    162 H162        3.5651  -17.0965  -46.0364 H         1 UNK         0.0600 
    163 H163        3.7488  -15.9450  -44.7234 H         1 UNK         0.0600 
    164 H164        1.4044  -15.8777  -43.4294 H         1 UNK         0.3000 
    165 H165       -0.3691  -17.1913  -40.6446 H         1 UNK         0.0600 
    166 H166        0.6480  -15.3058  -39.4008 H         1 UNK         0.0600 
    167 H167        1.8160  -16.6044  -39.5812 H         1 UNK         0.0600 
    168 H168        1.9382  -15.1728  -40.5968 H         1 UNK         0.0600 
    169 H169       -0.2298  -14.5555  -41.6449 H         1 UNK         0.3000 
    170 H170       -2.4175  -14.8024  -44.4016 H         1 UNK         0.0600 
    171 H171       -3.9918  -14.7617  -42.4688 H         1 UNK         0.0600 
    172 H172       -2.9302  -13.6526  -41.6080 H         1 UNK         0.0600 
    173 H173       -3.7219  -13.1444  -43.0997 H         1 UNK         0.0600 
    174 H174       -1.1794  -12.6033  -43.0199 H         1 UNK         0.3000 
    175 H175        1.2080  -12.2428  -43.1702 H         1 UNK         0.0600 
    176 H176        3.1049  -11.8923  -44.7052 H         1 UNK         0.0600 
    177 H177        2.8098  -13.6031  -44.4476 H         1 UNK         0.0600 
    178 H178        2.3140  -12.8464  -45.9524 H         1 UNK         0.0600 
    179 H179        0.7471  -10.9195  -45.7530 H         1 UNK         0.3000 
    180 H180       -1.7424   -8.7494  -44.5321 H         1 UNK         0.0600 
    181 H181        1.2153   -7.9549  -44.6839 H         1 UNK         0.0600 
    182 H182        0.1480   -7.6714  -43.3141 H         1 UNK         0.0600 
    183 H183       -0.1594   -6.8604  -44.8410 H         1 UNK         0.0600 
    184 H184        0.1127   -8.6525  -46.7602 H         1 UNK         0.3000 
    185 H185       -2.2340   -9.6811  -49.0398 H         1 UNK         0.0600 
    186 H186       -0.5568   -7.8408  -48.8670 H         1 UNK         0.0600 
    187 H187        0.7444   -9.0108  -48.6661 H         1 UNK         0.0600 
    188 H188       -0.1636   -8.9472  -50.1687 H         1 UNK         0.0600 
    189 H189       -1.6114  -11.7817  -49.3882 H         1 UNK         0.3000 
    190 H190        0.4036  -24.8736  -44.4981 H         1 UNK         0.3000 
    191 H191       -2.2799  -24.4765  -44.9836 H         1 UNK         0.0600 
    192 H192       -1.3322  -25.4004  -42.8801 H         1 UNK         0.0600 
    193 H193       -2.6081  -26.4448  -43.4790 H         1 UNK         0.0600 
    194 H194       -0.9237  -26.9059  -43.6967 H         1 UNK         0.0600 
    195 H195       -0.2177  -26.7894  -46.6050 H         1 UNK         0.3000 
    196 H196       -2.0345  -28.7210  -47.5016 H         1 UNK         0.0600 
    197 H197       -0.2629  -29.1875  -49.2193 H         1 UNK         0.0600 
    198 H198        0.4360  -28.9626  -47.6239 H         1 UNK         0.0600 
    199 H199        0.5301  -27.6687  -48.8198 H         1 UNK         0.0600 
    200 H200       -3.2134  -29.0254  -49.3618 H         1 UNK         0.3000 
    201 H201       -4.6677  -28.5651  -50.9659 H         1 UNK         0.0600 
    202 H202       -2.5886  -28.2625  -52.3304 H         1 UNK         0.0600 
    203 H203       -2.6168  -26.5322  -51.9961 H         1 UNK         0.0600 
    204 H204       -3.9118  -27.2732  -52.9241 H         1 UNK         0.0600 
    205 H205       -5.1908  -27.3300  -48.5549 H         1 UNK         0.3000 
    206 H206       -6.5301  -25.9073  -47.5081 H         1 UNK         0.0600 
    207 H207       -8.2063  -26.5773  -49.2208 H         1 UNK         0.0600 
    208 H208       -8.4452  -24.9103  -48.7209 H         1 UNK         0.0600 
    209 H209       -7.6951  -25.2572  -50.2708 H         1 UNK         0.0600 
    210 H210       -4.2841  -24.9356  -47.2676 H         1 UNK         0.3000 
    211 H211       -2.9770  -23.1822  -46.8884 H         1 UNK         0.0600 
    212 H212       -5.4641  -21.4489  -47.3213 H         1 UNK         0.0600 
    213 H213       -3.9815  -20.9499  -46.5275 H         1 UNK         0.0600 
    214 H214       -4.9771  -22.1987  -45.8015 H         1 UNK         0.0600 
    215 H215       -2.6461  -24.2633  -49.3314 H         1 UNK         0.3000 
    216 H216       -1.9494  -24.0923  -51.4076 H         1 UNK         0.0600 
    217 H217       -0.3568  -22.2926  -51.9259 H         1 UNK         0.0600 
    218 H218       -0.1235  -22.8131  -50.2649 H         1 UNK         0.0600 
    219 H219       -0.9653  -21.3032  -50.6021 H         1 UNK         0.0600 
    220 H220       -4.5442  -23.8753  -51.4069 H         1 UNK         0.3000 
    221 H221       -6.4232  -23.2354  -52.3166 H         1 UNK         0.0600 
    222 H222       -4.6980  -22.0649  -54.5641 H         1 UNK         0.0600 
    223 H223       -5.2123  -23.7461  -54.4374 H         1 UNK         0.0600 
    224 H224       -6.4031  -22.4768  -54.6770 H         1 UNK         0.0600 
    225 H225       -5.8249  -21.6912  -50.2632 H         1 UNK         0.3000 
    226 H226       -5.9927  -19.7667  -49.1704 H         1 UNK         0.0600 
    227 H227       -8.3592  -19.9184  -49.9485 H         1 UNK         0.0600 
    228 H228       -7.8534  -18.2466  -49.7627 H         1 UNK         0.0600 
    229 H229       -7.9681  -18.9509  -51.3696 H         1 UNK         0.0600 
    230 H230       -3.7265  -19.8825  -50.4051 H         1 UNK         0.3000 
    231 H231       -1.9127  -18.8928  -51.0606 H         1 UNK         0.0600 
    232 H232       -3.2948  -16.2136  -50.5291 H         1 UNK         0.0600 
    233 H233       -1.5648  -16.4838  -50.6143 H         1 UNK         0.0600 
    234 H234       -2.4954  -17.2116  -49.3168 H         1 UNK         0.0600 
    235 H235       -4.2661  -19.1576  -53.1411 H         1 UNK         0.3000 
    236 H236       -3.2722  -17.4040  -55.3035 H         1 UNK         0.0600 
    237 H237       -5.7261  -17.8568  -55.0702 H         1 UNK         0.0600 
    238 H238       -5.0789  -18.3965  -56.6134 H         1 UNK         0.0600 
    239 H239       -5.4317  -19.5704  -55.3572 H         1 UNK         0.0600 
    240 H240       -1.0833  -18.2603  -55.0395 H         1 UNK         0.3000 
    241 H241       -0.2315  -20.8579  -55.3261 H         1 UNK         0.0600 
    242 H242       -0.0188  -21.9690  -58.6912 H         1 UNK         0.3800 
    243 H243        0.3079  -22.3261  -57.0204 H         1 UNK         0.3800 
    244 H244        1.9701  -19.9332  -55.9615 H         1 UNK         0.0800 
    245 H245        1.2548  -18.4184  -56.4326 H         1 UNK         0.0800 
    246 H246        1.1386  -20.8231  -53.2888 H         1 UNK         0.0800 
    247 H247       -0.2477  -19.8176  -52.9168 H         1 UNK         0.0800 
@<TRIPOS>BOND
     1    1    2 1    
     2    1  127 1    
     3    1  128 1    
     4    1  129 1    
     5    2    3 2    
     6    2    4 am   BACKBONE|DICT|INTERRES
     7    4    5 1    
     8    4  130 1    
     9    5    6 1    
    10    5   65 1    
    11    5  131 1    
    12    6    7 1    
    13    6  132 1    
    14    6  133 1    
    15    7    8 1    
    16    8    9 1    
    17    8  134 1    
    18    8  135 1    
    19    9   10 ar   
    20    9   14 ar   
    21   10   11 ar   
    22   10  136 1    
    23   11   12 ar   
    24   11  126 1    
    25   12   13 ar   
    26   12  137 1    
    27   13   14 ar   
    28   13   15 1    
    29   14  138 1    
    30   15   16 1    
    31   15  139 1    
    32   15  140 1    
    33   16   17 1    
    34   17   18 1    
    35   17  141 1    
    36   17  142 1    
    37   18   19 1    
    38   18   67 1    
    39   18  143 1    
    40   19   20 am   BACKBONE|DICT|INTERRES
    41   19  144 1    
    42   20   21 2    
    43   20   22 1    
    44   22   23 1    
    45   22   24 1    
    46   22  145 1    
    47   23  146 1    
    48   23  147 1    
    49   23  148 1    
    50   24   25 am   BACKBONE|DICT|INTERRES
    51   24  149 1    
    52   25   26 2    
    53   25   27 1    
    54   27   28 1    
    55   27   29 1    
    56   27  150 1    
    57   28  151 1    
    58   28  152 1    
    59   28  153 1    
    60   29   30 am   BACKBONE|DICT|INTERRES
    61   29  154 1    
    62   30   31 2    
    63   30   32 1    
    64   32   33 1    
    65   32   34 1    
    66   32  155 1    
    67   33  156 1    
    68   33  157 1    
    69   33  158 1    
    70   34   35 am   BACKBONE|DICT|INTERRES
    71   34  159 1    
    72   35   36 2    
    73   35   37 1    
    74   37   38 1    
    75   37   39 1    
    76   37  160 1    
    77   38  161 1    
    78   38  162 1    
    79   38  163 1    
    80   39   40 am   BACKBONE|DICT|INTERRES
    81   39  164 1    
    82   40   41 2    
    83   40   42 1    
    84   42   43 1    
    85   42   44 1    
    86   42  165 1    
    87   43  166 1    
    88   43  167 1    
    89   43  168 1    
    90   44   45 am   BACKBONE|DICT|INTERRES
    91   44  169 1    
    92   45   46 2    
    93   45   47 1    
    94   47   48 1    
    95   47   49 1    
    96   47  170 1    
    97   48  171 1    
    98   48  172 1    
    99   48  173 1    
   100   49   50 am   BACKBONE|DICT|INTERRES
   101   49  174 1    
   102   50   51 2    
   103   50   52 1    
   104   52   53 1    
   105   52   54 1    
   106   52  175 1    
   107   53  176 1    
   108   53  177 1    
   109   53  178 1    
   110   54   55 am   BACKBONE|DICT|INTERRES
   111   54  179 1    
   112   55   56 2    
   113   55   57 1    
   114   57   58 1    
   115   57   59 1    
   116   57  180 1    
   117   58  181 1    
   118   58  182 1    
   119   58  183 1    
   120   59   60 am   BACKBONE|DICT|INTERRES
   121   59  184 1    
   122   60   61 2    
   123   60   62 1    
   124   62   63 1    
   125   62   64 1    
   126   62  185 1    
   127   63  186 1    
   128   63  187 1    
   129   63  188 1    
   130   64   65 am   BACKBONE|DICT|INTERRES
   131   64  189 1    
   132   65   66 2    
   133   67   68 2    
   134   67   69 am   BACKBONE|DICT|INTERRES
   135   69   70 1    
   136   69  190 1    
   137   70   71 1    
   138   70   72 1    
   139   70  191 1    
   140   71  192 1    
   141   71  193 1    
   142   71  194 1    
   143   72   73 2    
   144   72   74 am   BACKBONE|DICT|INTERRES
   145   74   75 1    
   146   74  195 1    
   147   75   76 1    
   148   75   77 1    
   149   75  196 1    
   150   76  197 1    
   151   76  198 1    
   152   76  199 1    
   153   77   78 2    
   154   77   79 am   BACKBONE|DICT|INTERRES
   155   79   80 1    
   156   79  200 1    
   157   80   81 1    
   158   80   82 1    
   159   80  201 1    
   160   81  202 1    
   161   81  203 1    
   162   81  204 1    
   163   82   83 2    
   164   82   84 am   BACKBONE|DICT|INTERRES
   165   84   85 1    
   166   84  205 1    
   167   85   86 1    
   168   85   87 1    
   169   85  206 1    
   170   86  207 1    
   171   86  208 1    
   172   86  209 1    
   173   87   88 2    
   174   87   89 am   BACKBONE|DICT|INTERRES
   175   89   90 1    
   176   89  210 1    
   177   90   91 1    
   178   90   92 1    
   179   90  211 1    
   180   91  212 1    
   181   91  213 1    
   182   91  214 1    
   183   92   93 2    
   184   92   94 am   BACKBONE|DICT|INTERRES
   185   94   95 1    
   186   94  215 1    
   187   95   96 1    
   188   95   97 1    
   189   95  216 1    
   190   96  217 1    
   191   96  218 1    
   192   96  219 1    
   193   97   98 2    
   194   97   99 am   BACKBONE|DICT|INTERRES
   195   99  100 1    
   196   99  220 1    
   197  100  101 1    
   198  100  102 1    
   199  100  221 1    
   200  101  222 1    
   201  101  223 1    
   202  101  224 1    
   203  102  103 2    
   204  102  104 am   BACKBONE|DICT|INTERRES
   205  104  105 1    
   206  104  225 1    
   207  105  106 1    
   208  105  107 1    
   209  105  226 1    
   210  106  227 1    
   211  106  228 1    
   212  106  229 1    
   213  107  108 2    
   214  107  109 am   BACKBONE|DICT|INTERRES
   215  109  110 1    
   216  109  230 1    
   217  110  111 1    
   218  110  112 1    
   219  110  231 1    
   220  111  232 1    
   221  111  233 1    
   222  111  234 1    
   223  112  113 2    
   224  112  114 am   BACKBONE|DICT|INTERRES
   225  114  115 1    
   226  114  235 1    
   227  115  116 1    
   228  115  117 1    
   229  115  236 1    
   230  116  237 1    
   231  116  238 1    
   232  116  239 1    
   233  117  118 2    
   234  117  119 am   BACKBONE|DICT|INTERRES
   235  119  120 1    
   236  119  240 1    
   237  120  121 1    
   238  120  124 1    
   239  120  241 1    
   240  121  122 am   BACKBONE|DICT|INTERRES
   241  121  123 2    
   242  122  242 1    
   243  122  243 1    
   244  124  125 1    
   245  124  244 1    
   246  124  245 1    
   247  125  126 1    
   248  126  246 1    
   249  126  247 1    
@<TRIPOS>SUBSTRUCTURE
     1 UNK         1 GROUP             0       ****    0 ROOT    
