@<TRIPOS>MOLECULE
3R540
247   249    1
SMALL
USER_CHARGES


@<TRIPOS>ATOM
      1 CA          6.0891  -20.1267  -46.8249 C.3       0 UNK        -0.1800 
      2 C           5.1280  -19.1406  -46.1787 C.2       0 UNK         0.5000 
      3 O           4.2409  -19.5503  -45.4307 O.2       0 UNK        -0.5000 
      4 N           5.3200  -17.8388  -46.4290 N.am      1 UNK        -0.5000 
      5 CA          4.5010  -16.7229  -45.9278 C.3       1 UNK         0.1400 
      6 C6          4.6154  -15.4774  -46.8604 C.3       23 UNK        -0.0398 
      7 S7          2.9871  -14.8343  -47.3816 S.3       23 UNK        -0.2404 
      8 C8          3.2845  -14.4184  -49.1338 C.3       23 UNK        -0.0205 
      9 C9          2.9323  -15.5538  -50.0894 C.ar      23 UNK        -0.0193 
     10 C10         1.8239  -15.4408  -50.9387 C.ar      23 UNK        -0.1150 
     11 C11         1.5089  -16.4597  -51.8463 C.ar      23 UNK        -0.0193 
     12 C12         2.3255  -17.5914  -51.9039 C.ar      23 UNK        -0.1150 
     13 C13         3.4138  -17.7337  -51.0422 C.ar      23 UNK        -0.0193 
     14 C14         3.7228  -16.7062  -50.1498 C.ar      23 UNK        -0.1150 
     15 C15         4.2296  -19.0180  -51.0560 C.3       23 UNK        -0.0205 
     16 S16         3.7842  -20.1210  -49.6739 S.3       23 UNK        -0.2404 
     17 C17         1.9662  -20.1914  -49.8216 C.3       23 UNK        -0.0398 
     18 CA          1.3302  -21.3726  -49.0574 C.3       11 UNK         0.1400 
     19 N           1.6824  -21.3946  -47.6349 N.am      11 UNK        -0.5000 
     20 C           1.5094  -22.4593  -46.8393 C.2       10 UNK         0.5000 
     21 O           1.0654  -23.5377  -47.2340 O.2       10 UNK        -0.5000 
     22 CA          1.8314  -22.2815  -45.3451 C.3       10 UNK         0.1400 
     23 CB          3.2797  -22.6960  -45.0476 C.3       10 UNK        -0.1800 
     24 N           1.5898  -20.9176  -44.8688 N.am      10 UNK        -0.5000 
     25 C           0.3695  -20.3686  -44.7714 C.2       9 UNK         0.5000 
     26 O          -0.6599  -20.9625  -45.0976 O.2       9 UNK        -0.5000 
     27 CA          0.2568  -18.9208  -44.2459 C.3       9 UNK         0.1400 
     28 CB          1.5522  -18.3622  -43.6349 C.3       9 UNK        -0.1800 
     29 N          -0.2442  -17.9830  -45.2529 N.am      9 UNK        -0.5000 
     30 C           0.2405  -17.7801  -46.4898 C.2       8 UNK         0.5000 
     31 O           1.1722  -18.4285  -46.9665 O.2       8 UNK        -0.5000 
     32 CA         -0.4488  -16.6971  -47.3424 C.3       8 UNK         0.1400 
     33 CB         -0.4586  -17.0383  -48.8423 C.3       8 UNK        -0.1800 
     34 N          -1.8102  -16.4608  -46.8726 N.am      8 UNK        -0.5000 
     35 C          -2.4801  -15.3087  -46.9458 C.2       7 UNK         0.5000 
     36 O          -2.0672  -14.2999  -47.5182 O.2       7 UNK        -0.5000 
     37 CA         -3.8386  -15.2685  -46.2205 C.3       7 UNK         0.1400 
     38 CB         -4.6420  -16.5836  -46.3317 C.3       7 UNK        -0.1800 
     39 N          -3.6756  -14.8582  -44.8238 N.am      7 UNK        -0.5000 
     40 C          -2.9768  -15.4637  -43.8527 C.2       6 UNK         0.5000 
     41 O          -2.4197  -16.5567  -43.9828 O.2       6 UNK        -0.5000 
     42 CA         -2.8494  -14.6776  -42.5289 C.3       6 UNK         0.1400 
     43 CB         -2.3063  -15.5466  -41.3832 C.3       6 UNK        -0.1800 
     44 N          -1.9766  -13.5124  -42.6878 N.am      6 UNK        -0.5000 
     45 C          -2.2855  -12.3984  -43.3669 C.2       5 UNK         0.5000 
     46 O          -3.4062  -12.1829  -43.8330 O.2       5 UNK        -0.5000 
     47 CA         -1.1769  -11.3486  -43.5817 C.3       5 UNK         0.1400 
     48 CB         -1.4487  -10.0982  -42.7305 C.3       5 UNK        -0.1800 
     49 N           0.1825  -11.8151  -43.3027 N.am      5 UNK        -0.5000 
     50 C           0.8540  -12.7675  -43.9655 C.2       4 UNK         0.5000 
     51 O           0.3805  -13.4269  -44.8902 O.2       4 UNK        -0.5000 
     52 CA          2.3077  -13.0233  -43.5166 C.3       4 UNK         0.1400 
     53 CB          2.9661  -11.8016  -42.8393 C.3       4 UNK        -0.1800 
     54 N           2.4669  -14.2010  -42.6590 N.am      4 UNK        -0.5000 
     55 C           1.7840  -14.5265  -41.5489 C.2       3 UNK         0.5000 
     56 O           0.8030  -13.9033  -41.1406 O.2       3 UNK        -0.5000 
     57 CA          2.2937  -15.7407  -40.7418 C.3       3 UNK         0.1400 
     58 CB          1.1506  -16.6642  -40.2850 C.3       3 UNK        -0.1800 
     59 N           3.2779  -16.5300  -41.4879 N.am      3 UNK        -0.5000 
     60 C           4.5969  -16.5340  -41.2637 C.2       2 UNK         0.5000 
     61 O           5.1449  -15.8975  -40.3633 O.2       2 UNK        -0.5000 
     62 CA          5.4550  -17.3817  -42.2228 C.3       2 UNK         0.1400 
     63 CB          5.5902  -18.8171  -41.6921 C.3       2 UNK        -0.1800 
     64 N           4.9725  -17.4372  -43.6073 N.am      2 UNK        -0.5000 
     65 C           4.7905  -16.3986  -44.4349 C.2       1 UNK         0.5000 
     66 O           4.8640  -15.2301  -44.0540 O.2       1 UNK        -0.5000 
     67 C          -0.1995  -21.3719  -49.2518 C.2       11 UNK         0.5000 
     68 O          -0.6838  -21.9736  -50.2091 O.2       11 UNK        -0.5000 
     69 N          -0.9359  -20.7362  -48.3259 N.am      12 UNK        -0.5000 
     70 CA         -2.3966  -20.7864  -48.2788 C.3       12 UNK         0.1400 
     71 CB         -2.9645  -19.6792  -47.3819 C.3       12 UNK        -0.1800 
     72 C          -2.9004  -22.1615  -47.8267 C.2       12 UNK         0.5000 
     73 O          -3.8341  -22.6795  -48.4360 O.2       12 UNK        -0.5000 
     74 N          -2.2635  -22.7447  -46.8016 N.am      13 UNK        -0.5000 
     75 CA         -2.5627  -24.0873  -46.2962 C.3       13 UNK         0.1400 
     76 CB         -1.7061  -24.3805  -45.0562 C.3       13 UNK        -0.1800 
     77 C          -2.3770  -25.1772  -47.3689 C.2       13 UNK         0.5000 
     78 O          -3.2629  -26.0148  -47.5433 O.2       13 UNK        -0.5000 
     79 N          -1.2681  -25.0962  -48.1190 N.am      14 UNK        -0.5000 
     80 CA         -0.9702  -25.9480  -49.2748 C.3       14 UNK         0.1400 
     81 CB          0.4613  -25.6609  -49.7517 C.3       14 UNK        -0.1800 
     82 C          -1.9672  -25.7774  -50.4401 C.2       14 UNK         0.5000 
     83 O          -2.1915  -26.7259  -51.1921 O.2       14 UNK        -0.5000 
     84 N          -2.5658  -24.5852  -50.5474 N.am      15 UNK        -0.5000 
     85 CA         -3.5900  -24.2190  -51.5240 C.3       15 UNK         0.1400 
     86 CB         -3.3514  -22.7617  -51.9517 C.3       15 UNK        -0.1800 
     87 C          -5.0252  -24.4339  -50.9991 C.2       15 UNK         0.5000 
     88 O          -5.9579  -23.8668  -51.5702 O.2       15 UNK        -0.5000 
     89 N          -5.1815  -25.2330  -49.9315 N.am      16 UNK        -0.5000 
     90 CA         -6.4397  -25.6204  -49.2853 C.3       16 UNK         0.1400 
     91 CB         -7.3003  -26.4791  -50.2361 C.3       16 UNK        -0.1800 
     92 C          -7.1977  -24.4112  -48.7030 C.2       16 UNK         0.5000 
     93 O          -8.3543  -24.1720  -49.0505 O.2       16 UNK        -0.5000 
     94 N          -6.5018  -23.6556  -47.8425 N.am      17 UNK        -0.5000 
     95 CA         -6.9294  -22.3991  -47.2143 C.3       17 UNK         0.1400 
     96 CB         -8.1529  -22.6105  -46.2978 C.3       17 UNK        -0.1800 
     97 C          -7.1229  -21.2772  -48.2548 C.2       17 UNK         0.5000 
     98 O          -8.1037  -20.5338  -48.2035 O.2       17 UNK        -0.5000 
     99 N          -6.1665  -21.2039  -49.1916 N.am      18 UNK        -0.5000 
    100 CA        -6.0697  -20.2712  -50.3184 C.3       18 UNK         0.1400 
    101 CB        -5.9211  -18.8163  -49.8276 C.3       18 UNK        -0.1800 
    102 C         -7.1794  -20.4249  -51.3800 C.2       18 UNK         0.5000 
    103 O         -7.3205  -19.5449  -52.2300 O.2       18 UNK        -0.5000 
    104 N         -7.9110  -21.5486  -51.3677 N.am      19 UNK        -0.5000 
    105 CA        -8.9426  -21.8862  -52.3526 C.3       19 UNK         0.1400 
    106 CB        -9.6811  -23.1554  -51.9058 C.3       19 UNK        -0.1800 
    107 C         -8.3773  -22.0619  -53.7746 C.2       19 UNK         0.5000 
    108 O         -9.0330  -21.6747  -54.7422 O.2       19 UNK        -0.5000 
    109 N         -7.1527  -22.5971  -53.8682 N.am      20 UNK        -0.5000 
    110 CA        -6.3879  -22.7312  -55.1091 C.3       20 UNK         0.1400 
    111 CB        -5.5320  -24.0072  -55.0355 C.3       20 UNK        -0.1800 
    112 C         -5.5298  -21.4859  -55.4281 C.2       20 UNK         0.5000 
    113 O         -4.7044  -21.5537  -56.3394 O.2       20 UNK        -0.5000 
    114 N         -5.7162  -20.3820  -54.6830 N.am      21 UNK        -0.5000 
    115 CA        -5.1007  -19.0602  -54.8728 C.3       21 UNK         0.1400 
    116 CB        -5.7114  -18.3698  -56.1095 C.3       21 UNK        -0.1800 
    117 C         -3.5580  -19.1044  -54.9101 C.2       21 UNK         0.5000 
    118 O         -2.9429  -18.6052  -55.8538 O.2       21 UNK        -0.5000 
    119 N         -2.9762  -19.7505  -53.8916 N.am      22 UNK        -0.5000 
    120 CA        -1.5404  -20.0625  -53.7494 C.3       22 UNK         0.1400 
    121 C         -1.0166  -21.1771  -54.7098 C.2       22 UNK         0.5000 
    122 N         -1.8396  -21.8060  -55.5410 N.am      22 UNK        -0.7600 
    123 O          0.1649  -21.5093  -54.6772 O.2       22 UNK        -0.5000 
    124 C124       -0.6107  -18.8144  -53.7643 C.3       23 UNK        -0.0398 
    125 S125       -0.9785  -17.6005  -52.4493 S.3       23 UNK        -0.2404 
    126 C126        0.2984  -16.3310  -52.7668 C.3       23 UNK        -0.0205 
    127 H127        6.7060  -19.6498  -47.5867 H         1 UNK         0.0600 
    128 H128        6.7451  -20.5590  -46.0697 H         1 UNK         0.0600 
    129 H129        5.5339  -20.9367  -47.2975 H         1 UNK         0.0600 
    130 H130        6.1021  -17.5730  -47.0095 H         1 UNK         0.3000 
    131 H131        3.4664  -17.0688  -45.9575 H         1 UNK         0.0600 
    132 H132        5.1768  -14.6555  -46.4139 H         1 UNK         0.0800 
    133 H133        5.1925  -15.7204  -47.7501 H         1 UNK         0.0800 
    134 H134        4.3238  -14.1217  -49.2812 H         1 UNK         0.0800 
    135 H135        2.6900  -13.5353  -49.3725 H         1 UNK         0.0800 
    136 H136        1.2037  -14.5568  -50.8923 H         1 UNK         0.1150 
    137 H137        2.1060  -18.3824  -52.6013 H         1 UNK         0.1150 
    138 H138        4.5732  -16.8225  -49.4973 H         1 UNK         0.1150 
    139 H139        4.0908  -19.5514  -51.9976 H         1 UNK         0.0800 
    140 H140        5.2922  -18.7794  -50.9933 H         1 UNK         0.0800 
    141 H141        1.7103  -20.2568  -50.8807 H         1 UNK         0.0800 
    142 H142        1.5632  -19.2442  -49.4639 H         1 UNK         0.0800 
    143 H143        1.7094  -22.2937  -49.5057 H         1 UNK         0.0600 
    144 H144        2.0092  -20.5216  -47.2364 H         1 UNK         0.3000 
    145 H145        1.1748  -22.9475  -44.7824 H         1 UNK         0.0600 
    146 H146        3.5299  -22.5438  -43.9976 H         1 UNK         0.0600 
    147 H147        3.4312  -23.7530  -45.2693 H         1 UNK         0.0600 
    148 H148        3.9937  -22.1352  -45.6497 H         1 UNK         0.0600 
    149 H149        2.4114  -20.3484  -44.6975 H         1 UNK         0.3000 
    150 H150       -0.4944  -18.9449  -43.4550 H         1 UNK         0.0600 
    151 H151        1.8952  -18.9703  -42.7967 H         1 UNK         0.0600 
    152 H152        1.3865  -17.3481  -43.2765 H         1 UNK         0.0600 
    153 H153        2.3484  -18.3119  -44.3706 H         1 UNK         0.0600 
    154 H154       -1.0086  -17.3968  -44.9262 H         1 UNK         0.3000 
    155 H155        0.1327  -15.7845  -47.1996 H         1 UNK         0.0600 
    156 H156        0.5563  -17.1823  -49.2078 H         1 UNK         0.0600 
    157 H157       -0.8988  -16.2336  -49.4310 H         1 UNK         0.0600 
    158 H158       -1.0124  -17.9513  -49.0549 H         1 UNK         0.0600 
    159 H159       -2.2288  -17.2103  -46.3403 H         1 UNK         0.3000 
    160 H160       -4.4262  -14.4872  -46.7051 H         1 UNK         0.0600 
    161 H161       -4.1792  -17.4096  -45.7920 H         1 UNK         0.0600 
    162 H162       -5.6476  -16.4565  -45.9310 H         1 UNK         0.0600 
    163 H163       -4.7480  -16.8874  -47.3737 H         1 UNK         0.0600 
    164 H164       -3.9932  -13.9161  -44.6165 H         1 UNK         0.3000 
    165 H165       -3.8468  -14.3355  -42.2451 H         1 UNK         0.0600 
    166 H166       -2.2522  -14.9854  -40.4502 H         1 UNK         0.0600 
    167 H167       -2.9472  -16.4117  -41.2093 H         1 UNK         0.0600 
    168 H168       -1.3076  -15.9166  -41.6096 H         1 UNK         0.0600 
    169 H169       -1.0325  -13.6053  -42.3309 H         1 UNK         0.3000 
    170 H170       -1.2145  -11.0601  -44.6341 H         1 UNK         0.0600 
    171 H171       -2.4394   -9.6904  -42.9362 H         1 UNK         0.0600 
    172 H172       -1.4007  -10.3214  -41.6639 H         1 UNK         0.0600 
    173 H173       -0.7259   -9.3103  -42.9429 H         1 UNK         0.0600 
    174 H174        0.6507  -11.3697  -42.5270 H         1 UNK         0.3000 
    175 H175        2.8702  -13.2310  -44.4284 H         1 UNK         0.0600 
    176 H176        2.5329  -11.5872  -41.8617 H         1 UNK         0.0600 
    177 H177        4.0331  -11.9713  -42.6933 H         1 UNK         0.0600 
    178 H178        2.8664  -10.9065  -43.4548 H         1 UNK         0.0600 
    179 H179        3.2635  -14.7782  -42.9055 H         1 UNK         0.3000 
    180 H180        2.7520  -15.3282  -39.8411 H         1 UNK         0.0600 
    181 H181        0.4177  -16.1193  -39.6888 H         1 UNK         0.0600 
    182 H182        0.6231  -17.1129  -41.1249 H         1 UNK         0.0600 
    183 H183        1.5301  -17.4743  -39.6622 H         1 UNK         0.0600 
    184 H184        2.9267  -17.0810  -42.2571 H         1 UNK         0.3000 
    185 H185        6.4499  -16.9327  -42.2466 H         1 UNK         0.0600 
    186 H186        5.9705  -18.8236  -40.6697 H         1 UNK         0.0600 
    187 H187        4.6309  -19.3364  -41.6901 H         1 UNK         0.0600 
    188 H188        6.2842  -19.3985  -42.2994 H         1 UNK         0.0600 
    189 H189        4.8534  -18.3620  -44.0092 H         1 UNK         0.3000 
    190 H190       -0.4597  -20.3013  -47.5478 H         1 UNK         0.3000 
    191 H191       -2.7788  -20.6148  -49.2870 H         1 UNK         0.0600 
    192 H192       -2.4736  -19.6381  -46.4108 H         1 UNK         0.0600 
    193 H193       -4.0300  -19.8277  -47.1998 H         1 UNK         0.0600 
    194 H194       -2.8624  -18.7099  -47.8635 H         1 UNK         0.0600 
    195 H195       -1.5459  -22.2190  -46.3111 H         1 UNK         0.3000 
    196 H196       -3.6112  -24.0955  -45.9915 H         1 UNK         0.0600 
    197 H197       -1.9796  -25.3390  -44.6135 H         1 UNK         0.0600 
    198 H198       -1.8433  -23.6165  -44.2907 H         1 UNK         0.0600 
    199 H199       -0.6451  -24.4252  -45.2993 H         1 UNK         0.0600 
    200 H200       -0.5654  -24.4025  -47.8775 H         1 UNK         0.3000 
    201 H201       -1.0216  -26.9879  -48.9461 H         1 UNK         0.0600 
    202 H202        1.1865  -25.8516  -48.9604 H         1 UNK         0.0600 
    203 H203        0.5769  -24.6236  -50.0686 H         1 UNK         0.0600 
    204 H204        0.7280  -26.2958  -50.5976 H         1 UNK         0.0600 
    205 H205       -2.3226  -23.8669  -49.8785 H         1 UNK         0.3000 
    206 H206       -3.4861  -24.8475  -52.4103 H         1 UNK         0.0600 
    207 H207       -2.3748  -22.6646  -52.4237 H         1 UNK         0.0600 
    208 H208       -4.0940  -22.4151  -52.6692 H         1 UNK         0.0600 
    209 H209       -3.3765  -22.0861  -51.0987 H         1 UNK         0.0600 
    210 H210       -4.3446  -25.5989  -49.4957 H         1 UNK         0.3000 
    211 H211       -6.1674  -26.2488  -48.4359 H         1 UNK         0.0600 
    212 H212       -7.6259  -25.9187  -51.1125 H         1 UNK         0.0600 
    213 H213       -8.1958  -26.8417  -49.7302 H         1 UNK         0.0600 
    214 H214       -6.7485  -27.3521  -50.5844 H         1 UNK         0.0600 
    215 H215       -5.5236  -23.8832  -47.7164 H         1 UNK         0.3000 
    216 H216       -6.1005  -22.0811  -46.5801 H         1 UNK         0.0600 
    217 H217       -7.9740  -23.4110  -45.5801 H         1 UNK         0.0600 
    218 H218       -9.0503  -22.8608  -46.8639 H         1 UNK         0.0600 
    219 H219       -8.3712  -21.7067  -45.7279 H         1 UNK         0.0600 
    220 H220       -5.4074  -21.8761  -49.1154 H         1 UNK         0.3000 
    221 H221       -5.1443  -20.5290  -50.8325 H         1 UNK         0.0600 
    222 H222       -6.8297  -18.4553  -49.3454 H         1 UNK         0.0600 
    223 H223       -5.1029  -18.7205  -49.1162 H         1 UNK         0.0600 
    224 H224       -5.7031  -18.1416  -50.6563 H         1 UNK         0.0600 
    225 H225       -7.7063  -22.2523  -50.6706 H         1 UNK         0.3000 
    226 H226       -9.6607  -21.0642  -52.3794 H         1 UNK         0.0600 
    227 H227      -10.1471  -23.0173  -50.9299 H         1 UNK         0.0600 
    228 H228      -10.4713  -23.4181  -52.6101 H         1 UNK         0.0600 
    229 H229       -9.0046  -24.0078  -51.8360 H         1 UNK         0.0600 
    230 H230       -6.7068  -22.9339  -53.0169 H         1 UNK         0.3000 
    231 H231       -7.0820  -22.8541  -55.9428 H         1 UNK         0.0600 
    232 H232       -4.7433  -23.9257  -54.2907 H         1 UNK         0.0600 
    233 H233       -6.1400  -24.8768  -54.7854 H         1 UNK         0.0600 
    234 H234       -5.0532  -24.2132  -55.9936 H         1 UNK         0.0600 
    235 H235       -6.4150  -20.4201  -53.9505 H         1 UNK         0.3000 
    236 H236       -5.3684  -18.4639  -53.9992 H         1 UNK         0.0600 
    237 H237       -6.7967  -18.3078  -56.0288 H         1 UNK         0.0600 
    238 H238       -5.3360  -17.3512  -56.2151 H         1 UNK         0.0600 
    239 H239       -5.4741  -18.9045  -57.0299 H         1 UNK         0.0600 
    240 H240       -3.5732  -20.1370  -53.1775 H         1 UNK         0.3000 
    241 H241       -1.4474  -20.5010  -52.7553 H         1 UNK         0.0600 
    242 H242       -1.4676  -22.5282  -56.1367 H         1 UNK         0.3800 
    243 H243       -2.8110  -21.5358  -55.6426 H         1 UNK         0.3800 
    244 H244       -0.6526  -18.3113  -54.7306 H         1 UNK         0.0800 
    245 H245        0.4228  -19.1316  -53.6452 H         1 UNK         0.0800 
    246 H246       -0.1646  -15.3513  -52.6412 H         1 UNK         0.0800 
    247 H247        0.6268  -16.3759  -53.8059 H         1 UNK         0.0800 
@<TRIPOS>BOND
     1    1    2 1    
     2    1  127 1    
     3    1  128 1    
     4    1  129 1    
     5    2    3 2    
     6    2    4 am   BACKBONE|DICT|INTERRES
     7    4    5 1    
     8    4  130 1    
     9    5    6 1    
    10    5   65 1    
    11    5  131 1    
    12    6    7 1    
    13    6  132 1    
    14    6  133 1    
    15    7    8 1    
    16    8    9 1    
    17    8  134 1    
    18    8  135 1    
    19    9   10 ar   
    20    9   14 ar   
    21   10   11 ar   
    22   10  136 1    
    23   11   12 ar   
    24   11  126 1    
    25   12   13 ar   
    26   12  137 1    
    27   13   14 ar   
    28   13   15 1    
    29   14  138 1    
    30   15   16 1    
    31   15  139 1    
    32   15  140 1    
    33   16   17 1    
    34   17   18 1    
    35   17  141 1    
    36   17  142 1    
    37   18   19 1    
    38   18   67 1    
    39   18  143 1    
    40   19   20 am   BACKBONE|DICT|INTERRES
    41   19  144 1    
    42   20   21 2    
    43   20   22 1    
    44   22   23 1    
    45   22   24 1    
    46   22  145 1    
    47   23  146 1    
    48   23  147 1    
    49   23  148 1    
    50   24   25 am   BACKBONE|DICT|INTERRES
    51   24  149 1    
    52   25   26 2    
    53   25   27 1    
    54   27   28 1    
    55   27   29 1    
    56   27  150 1    
    57   28  151 1    
    58   28  152 1    
    59   28  153 1    
    60   29   30 am   BACKBONE|DICT|INTERRES
    61   29  154 1    
    62   30   31 2    
    63   30   32 1    
    64   32   33 1    
    65   32   34 1    
    66   32  155 1    
    67   33  156 1    
    68   33  157 1    
    69   33  158 1    
    70   34   35 am   BACKBONE|DICT|INTERRES
    71   34  159 1    
    72   35   36 2    
    73   35   37 1    
    74   37   38 1    
    75   37   39 1    
    76   37  160 1    
    77   38  161 1    
    78   38  162 1    
    79   38  163 1    
    80   39   40 am   BACKBONE|DICT|INTERRES
    81   39  164 1    
    82   40   41 2    
    83   40   42 1    
    84   42   43 1    
    85   42   44 1    
    86   42  165 1    
    87   43  166 1    
    88   43  167 1    
    89   43  168 1    
    90   44   45 am   BACKBONE|DICT|INTERRES
    91   44  169 1    
    92   45   46 2    
    93   45   47 1    
    94   47   48 1    
    95   47   49 1    
    96   47  170 1    
    97   48  171 1    
    98   48  172 1    
    99   48  173 1    
   100   49   50 am   BACKBONE|DICT|INTERRES
   101   49  174 1    
   102   50   51 2    
   103   50   52 1    
   104   52   53 1    
   105   52   54 1    
   106   52  175 1    
   107   53  176 1    
   108   53  177 1    
   109   53  178 1    
   110   54   55 am   BACKBONE|DICT|INTERRES
   111   54  179 1    
   112   55   56 2    
   113   55   57 1    
   114   57   58 1    
   115   57   59 1    
   116   57  180 1    
   117   58  181 1    
   118   58  182 1    
   119   58  183 1    
   120   59   60 am   BACKBONE|DICT|INTERRES
   121   59  184 1    
   122   60   61 2    
   123   60   62 1    
   124   62   63 1    
   125   62   64 1    
   126   62  185 1    
   127   63  186 1    
   128   63  187 1    
   129   63  188 1    
   130   64   65 am   BACKBONE|DICT|INTERRES
   131   64  189 1    
   132   65   66 2    
   133   67   68 2    
   134   67   69 am   BACKBONE|DICT|INTERRES
   135   69   70 1    
   136   69  190 1    
   137   70   71 1    
   138   70   72 1    
   139   70  191 1    
   140   71  192 1    
   141   71  193 1    
   142   71  194 1    
   143   72   73 2    
   144   72   74 am   BACKBONE|DICT|INTERRES
   145   74   75 1    
   146   74  195 1    
   147   75   76 1    
   148   75   77 1    
   149   75  196 1    
   150   76  197 1    
   151   76  198 1    
   152   76  199 1    
   153   77   78 2    
   154   77   79 am   BACKBONE|DICT|INTERRES
   155   79   80 1    
   156   79  200 1    
   157   80   81 1    
   158   80   82 1    
   159   80  201 1    
   160   81  202 1    
   161   81  203 1    
   162   81  204 1    
   163   82   83 2    
   164   82   84 am   BACKBONE|DICT|INTERRES
   165   84   85 1    
   166   84  205 1    
   167   85   86 1    
   168   85   87 1    
   169   85  206 1    
   170   86  207 1    
   171   86  208 1    
   172   86  209 1    
   173   87   88 2    
   174   87   89 am   BACKBONE|DICT|INTERRES
   175   89   90 1    
   176   89  210 1    
   177   90   91 1    
   178   90   92 1    
   179   90  211 1    
   180   91  212 1    
   181   91  213 1    
   182   91  214 1    
   183   92   93 2    
   184   92   94 am   BACKBONE|DICT|INTERRES
   185   94   95 1    
   186   94  215 1    
   187   95   96 1    
   188   95   97 1    
   189   95  216 1    
   190   96  217 1    
   191   96  218 1    
   192   96  219 1    
   193   97   98 2    
   194   97   99 am   BACKBONE|DICT|INTERRES
   195   99  100 1    
   196   99  220 1    
   197  100  101 1    
   198  100  102 1    
   199  100  221 1    
   200  101  222 1    
   201  101  223 1    
   202  101  224 1    
   203  102  103 2    
   204  102  104 am   BACKBONE|DICT|INTERRES
   205  104  105 1    
   206  104  225 1    
   207  105  106 1    
   208  105  107 1    
   209  105  226 1    
   210  106  227 1    
   211  106  228 1    
   212  106  229 1    
   213  107  108 2    
   214  107  109 am   BACKBONE|DICT|INTERRES
   215  109  110 1    
   216  109  230 1    
   217  110  111 1    
   218  110  112 1    
   219  110  231 1    
   220  111  232 1    
   221  111  233 1    
   222  111  234 1    
   223  112  113 2    
   224  112  114 am   BACKBONE|DICT|INTERRES
   225  114  115 1    
   226  114  235 1    
   227  115  116 1    
   228  115  117 1    
   229  115  236 1    
   230  116  237 1    
   231  116  238 1    
   232  116  239 1    
   233  117  118 2    
   234  117  119 am   BACKBONE|DICT|INTERRES
   235  119  120 1    
   236  119  240 1    
   237  120  121 1    
   238  120  124 1    
   239  120  241 1    
   240  121  122 am   BACKBONE|DICT|INTERRES
   241  121  123 2    
   242  122  242 1    
   243  122  243 1    
   244  124  125 1    
   245  124  244 1    
   246  124  245 1    
   247  125  126 1    
   248  126  246 1    
   249  126  247 1    
@<TRIPOS>SUBSTRUCTURE
     1 UNK         1 GROUP             0       ****    0 ROOT    
