@<TRIPOS>MOLECULE
3R540
247   249    1
SMALL
USER_CHARGES


@<TRIPOS>ATOM
      1 CA         -0.6746  -16.2702  -39.1846 C.3       0 UNK        -0.1800 
      2 C          -0.3998  -15.4281  -40.4225 C.2       0 UNK         0.5000 
      3 O           0.7166  -15.4476  -40.9426 O.2       0 UNK        -0.5000 
      4 N          -1.4200  -14.6938  -40.8881 N.am      1 UNK        -0.5000 
      5 CA         -1.3891  -13.7942  -42.0507 C.3       1 UNK         0.1400 
      6 C6         -1.0948  -14.5231  -43.3993 C.3       23 UNK        -0.0398 
      7 S7         -2.0587  -16.0468  -43.6633 S.3       23 UNK        -0.2404 
      8 C8         -3.3235  -15.5201  -44.8599 C.3       23 UNK        -0.0205 
      9 C9         -3.8702  -16.7336  -45.5912 C.ar      23 UNK        -0.0193 
     10 C10        -3.5367  -16.9615  -46.9291 C.ar      23 UNK        -0.1150 
     11 C11        -3.9663  -18.1220  -47.5769 C.ar      23 UNK        -0.0193 
     12 C12        -4.7219  -19.0639  -46.8736 C.ar      23 UNK        -0.1150 
     13 C13        -5.0622  -18.8467  -45.5345 C.ar      23 UNK        -0.0193 
     14 C14        -4.6611  -17.6627  -44.9099 C.ar      23 UNK        -0.1150 
     15 C15        -5.8328  -19.9095  -44.7596 C.3       23 UNK        -0.0205 
     16 S16        -4.9953  -20.4769  -43.2312 S.3       23 UNK        -0.2404 
     17 C17        -3.2150  -20.5176  -43.6528 C.3       23 UNK        -0.0398 
     18 CA         -2.8602  -21.4111  -44.8662 C.3       11 UNK         0.1400 
     19 N          -1.6593  -20.9355  -45.5502 N.am      11 UNK        -0.5000 
     20 C          -1.3322  -21.2323  -46.8137 C.2       10 UNK         0.5000 
     21 O          -2.0345  -21.9106  -47.5634 O.2       10 UNK        -0.5000 
     22 CA          0.0276  -20.7115  -47.3101 C.3       10 UNK         0.1400 
     23 CB         -0.1211  -19.3019  -47.8961 C.3       10 UNK        -0.1800 
     24 N           1.0374  -20.6974  -46.2500 N.am      10 UNK        -0.5000 
     25 C           1.5595  -21.8070  -45.7053 C.2       9 UNK         0.5000 
     26 O           1.2581  -22.9442  -46.0643 O.2       9 UNK        -0.5000 
     27 CA          2.5425  -21.6289  -44.5333 C.3       9 UNK         0.1400 
     28 CB          3.9794  -21.4869  -45.0559 C.3       9 UNK        -0.1800 
     29 N           2.2311  -20.4871  -43.6750 N.am      9 UNK        -0.5000 
     30 C           1.0818  -20.2928  -43.0126 C.2       8 UNK         0.5000 
     31 O           0.1429  -21.0904  -43.0200 O.2       8 UNK        -0.5000 
     32 CA          0.9467  -18.9617  -42.2471 C.3       8 UNK         0.1400 
     33 CB          1.3351  -19.1655  -40.7753 C.3       8 UNK        -0.1800 
     34 N           1.7512  -17.8675  -42.8054 N.am      8 UNK        -0.5000 
     35 C           1.6374  -17.3797  -44.0485 C.2       7 UNK         0.5000 
     36 O           0.8538  -17.8395  -44.8821 O.2       7 UNK        -0.5000 
     37 CA          2.5887  -16.2146  -44.4005 C.3       7 UNK         0.1400 
     38 CB          4.0366  -16.7225  -44.5708 C.3       7 UNK        -0.1800 
     39 N           2.1450  -15.4411  -45.5685 N.am      7 UNK        -0.5000 
     40 C           2.0898  -15.8417  -46.8492 C.2       6 UNK         0.5000 
     41 O           2.5886  -16.8835  -47.2761 O.2       6 UNK        -0.5000 
     42 CA          1.3235  -14.9379  -47.8263 C.3       6 UNK         0.1400 
     43 CB         -0.1666  -15.3394  -47.8380 C.3       6 UNK        -0.1800 
     44 N           1.4672  -13.5114  -47.5210 N.am      6 UNK        -0.5000 
     45 C           1.1376  -12.5317  -48.3743 C.2       5 UNK         0.5000 
     46 O           0.7312  -12.7253  -49.5207 O.2       5 UNK        -0.5000 
     47 CA          1.2815  -11.0896  -47.8671 C.3       5 UNK         0.1400 
     48 CB          0.1316  -10.7322  -46.9119 C.3       5 UNK        -0.1800 
     49 N           2.5655  -10.8687  -47.2056 N.am      5 UNK        -0.5000 
     50 C           3.7077  -10.5962  -47.8530 C.2       4 UNK         0.5000 
     51 O           3.7943  -10.5119  -49.0787 O.2       4 UNK        -0.5000 
     52 CA          4.9644  -10.3541  -46.9947 C.3       4 UNK         0.1400 
     53 CB          5.1966   -8.8476  -46.8004 C.3       4 UNK        -0.1800 
     54 N           4.8883  -10.9924  -45.6811 N.am      4 UNK        -0.5000 
     55 C           5.0769  -12.3001  -45.4631 C.2       3 UNK         0.5000 
     56 O           5.3810  -13.1076  -46.3408 O.2       3 UNK        -0.5000 
     57 CA          4.8565  -12.7880  -44.0199 C.3       3 UNK         0.1400 
     58 CB          6.1568  -12.6877  -43.2088 C.3       3 UNK        -0.1800 
     59 N           3.7860  -12.0770  -43.3134 N.am      3 UNK        -0.5000 
     60 C           2.4978  -12.0989  -43.6736 C.2       2 UNK         0.5000 
     61 O           2.0768  -12.6578  -44.6950 O.2       2 UNK        -0.5000 
     62 CA          1.5066  -11.3854  -42.7460 C.3       2 UNK         0.1400 
     63 CB          1.2590   -9.9392  -43.1997 C.3       2 UNK        -0.1800 
     64 N           0.2739  -12.1531  -42.8275 N.am      2 UNK        -0.5000 
     65 C          -0.4296  -12.6046  -41.7858 C.2       1 UNK         0.5000 
     66 O          -0.3246  -12.1405  -40.6470 O.2       1 UNK        -0.5000 
     67 C          -2.7237  -22.8954  -44.4836 C.2       11 UNK         0.5000 
     68 O          -3.6623  -23.6627  -44.6962 O.2       11 UNK        -0.5000 
     69 N          -1.5379  -23.2898  -43.9947 N.am      12 UNK        -0.5000 
     70 CA         -1.1825  -24.6771  -43.6814 C.3       12 UNK         0.1400 
     71 CB          0.1952  -24.7105  -43.0040 C.3       12 UNK        -0.1800 
     72 C          -1.2066  -25.5973  -44.9187 C.2       12 UNK         0.5000 
     73 O          -1.6565  -26.7391  -44.8209 O.2       12 UNK        -0.5000 
     74 N          -0.7667  -25.0662  -46.0676 N.am      13 UNK        -0.5000 
     75 CA         -0.8306  -25.7163  -47.3778 C.3       13 UNK         0.1400 
     76 CB          0.2015  -25.0536  -48.3047 C.3       13 UNK        -0.1800 
     77 C          -2.2305  -25.6699  -48.0254 C.2       13 UNK         0.5000 
     78 O          -2.4101  -26.2620  -49.0905 O.2       13 UNK        -0.5000 
     79 N          -3.1803  -24.9448  -47.4141 N.am      14 UNK        -0.5000 
     80 CA         -4.5517  -24.7046  -47.8753 C.3       14 UNK         0.1400 
     81 CB         -5.3845  -26.0001  -47.7860 C.3       14 UNK        -0.1800 
     82 C          -4.5928  -24.0575  -49.2742 C.2       14 UNK         0.5000 
     83 O          -5.3099  -24.5322  -50.1563 O.2       14 UNK        -0.5000 
     84 N          -3.7701  -23.0147  -49.4645 N.am      15 UNK        -0.5000 
     85 CA         -3.5408  -22.2955  -50.7223 C.3       15 UNK         0.1400 
     86 CB         -4.8139  -21.5415  -51.1522 C.3       15 UNK        -0.1800 
     87 C          -2.9715  -23.2109  -51.8277 C.2       15 UNK         0.5000 
     88 O          -3.3655  -23.0996  -52.9915 O.2       15 UNK        -0.5000 
     89 N          -2.0730  -24.1192  -51.4154 N.am      16 UNK        -0.5000 
     90 CA         -1.4799  -25.2144  -52.1901 C.3       16 UNK         0.1400 
     91 CB         -0.5697  -24.6685  -53.3089 C.3       16 UNK        -0.1800 
     92 C          -2.5611  -26.1829  -52.7070 C.2       16 UNK         0.5000 
     93 O          -2.6296  -26.4510  -53.9057 O.2       16 UNK        -0.5000 
     94 N          -3.4325  -26.6338  -51.7923 N.am      17 UNK        -0.5000 
     95 CA         -4.6521  -27.4121  -52.0499 C.3       17 UNK         0.1400 
     96 CB         -4.2952  -28.8554  -52.4601 C.3       17 UNK        -0.1800 
     97 C          -5.5911  -26.7087  -53.0577 C.2       17 UNK         0.5000 
     98 O          -6.1030  -27.3384  -53.9848 O.2       17 UNK        -0.5000 
     99 N          -5.7469  -25.3917  -52.8663 N.am      18 UNK        -0.5000 
    100 CA        -6.4706  -24.4207  -53.6916 C.3       18 UNK         0.1400 
    101 CB        -7.9750  -24.7569  -53.7415 C.3       18 UNK        -0.1800 
    102 C         -5.8830  -24.1729  -55.0998 C.2       18 UNK         0.5000 
    103 O         -6.5009  -23.4379  -55.8718 O.2       18 UNK        -0.5000 
    104 N         -4.7145  -24.7460  -55.4276 N.am      19 UNK        -0.5000 
    105 CA        -4.0819  -24.6012  -56.7412 C.3       19 UNK         0.1400 
    106 CB        -3.0743  -25.7376  -56.9686 C.3       19 UNK        -0.1800 
    107 C         -3.3997  -23.2359  -56.9363 C.2       19 UNK         0.5000 
    108 O         -3.3871  -22.7303  -58.0597 O.2       19 UNK        -0.5000 
    109 N         -2.8469  -22.6615  -55.8580 N.am      20 UNK        -0.5000 
    110 CA        -2.2081  -21.3428  -55.8810 C.3       20 UNK         0.1400 
    111 CB        -1.0849  -21.2897  -54.8334 C.3       20 UNK        -0.1800 
    112 C         -3.2203  -20.2115  -55.6392 C.2       20 UNK         0.5000 
    113 O         -2.9718  -19.0806  -56.0605 O.2       20 UNK        -0.5000 
    114 N         -4.3255  -20.5279  -54.9441 N.am      21 UNK        -0.5000 
    115 CA        -5.4570  -19.6464  -54.6182 C.3       21 UNK         0.1400 
    116 CB        -6.2731  -19.3444  -55.8912 C.3       21 UNK        -0.1800 
    117 C         -5.0532  -18.3645  -53.8516 C.2       21 UNK         0.5000 
    118 O         -5.7202  -17.3356  -53.9718 O.2       21 UNK        -0.5000 
    119 N         -3.9528  -18.4581  -53.0922 N.am      22 UNK        -0.5000 
    120 CA        -3.2881  -17.3685  -52.3570 C.3       22 UNK         0.1400 
    121 C         -2.5945  -16.3089  -53.2690 C.2       22 UNK         0.5000 
    122 N         -2.3754  -16.5728  -54.5528 N.am      22 UNK        -0.7600 
    123 O         -2.2169  -15.2379  -52.8021 O.2       22 UNK        -0.5000 
    124 C124       -4.1723  -16.7186  -51.2520 C.3       23 UNK        -0.0398 
    125 S125       -4.9641  -17.9318  -50.1402 S.3       23 UNK        -0.2404 
    126 C126       -3.5947  -18.3736  -49.0274 C.3       23 UNK        -0.0205 
    127 H127        0.1913  -16.2651  -38.5224 H         1 UNK         0.0600 
    128 H128       -0.8833  -17.3008  -39.4710 H         1 UNK         0.0600 
    129 H129       -1.5297  -15.8915  -38.6243 H         1 UNK         0.0600 
    130 H130       -2.2991  -14.7154  -40.3918 H         1 UNK         0.3000 
    131 H131       -2.3885  -13.3631  -42.1226 H         1 UNK         0.0600 
    132 H132       -1.2632  -13.8526  -44.2430 H         1 UNK         0.0800 
    133 H133       -0.0453  -14.8154  -43.4504 H         1 UNK         0.0800 
    134 H134       -4.1291  -15.0007  -44.3393 H         1 UNK         0.0800 
    135 H135       -2.8981  -14.8119  -45.5721 H         1 UNK         0.0800 
    136 H136       -2.9293  -16.2446  -47.4626 H         1 UNK         0.1150 
    137 H137       -5.0330  -19.9720  -47.3710 H         1 UNK         0.1150 
    138 H138       -4.9088  -17.4943  -43.8711 H         1 UNK         0.1150 
    139 H139       -6.8122  -19.5097  -44.4939 H         1 UNK         0.0800 
    140 H140       -6.0241  -20.7795  -45.3897 H         1 UNK         0.0800 
    141 H141       -2.6544  -20.8175  -42.7655 H         1 UNK         0.0800 
    142 H142       -2.9040  -19.4894  -43.8412 H         1 UNK         0.0800 
    143 H143       -3.6719  -21.3544  -45.5914 H         1 UNK         0.0600 
    144 H144       -1.0011  -20.4073  -44.9946 H         1 UNK         0.3000 
    145 H145        0.3740  -21.3772  -48.1035 H         1 UNK         0.0600 
    146 H146        0.8387  -18.9081  -48.2305 H         1 UNK         0.0600 
    147 H147       -0.7867  -19.3094  -48.7589 H         1 UNK         0.0600 
    148 H148       -0.5333  -18.6057  -47.1641 H         1 UNK         0.0600 
    149 H149        1.2901  -19.7903  -45.8746 H         1 UNK         0.3000 
    150 H150        2.4900  -22.5275  -43.9165 H         1 UNK         0.0600 
    151 H151        4.2514  -22.3351  -45.6857 H         1 UNK         0.0600 
    152 H152        4.6965  -21.4501  -44.2356 H         1 UNK         0.0600 
    153 H153        4.1031  -20.5817  -45.6521 H         1 UNK         0.0600 
    154 H154        2.9363  -19.7687  -43.6087 H         1 UNK         0.3000 
    155 H155       -0.1010  -18.6568  -42.2926 H         1 UNK         0.0600 
    156 H156        0.6917  -19.9081  -40.3013 H         1 UNK         0.0600 
    157 H157        1.2402  -18.2417  -40.2063 H         1 UNK         0.0600 
    158 H158        2.3649  -19.5111  -40.6758 H         1 UNK         0.0600 
    159 H159        2.3920  -17.4208  -42.1653 H         1 UNK         0.3000 
    160 H160        2.5698  -15.5146  -43.5635 H         1 UNK         0.0600 
    161 H161        4.0899  -17.5817  -45.2403 H         1 UNK         0.0600 
    162 H162        4.4554  -17.0345  -43.6137 H         1 UNK         0.0600 
    163 H163        4.6904  -15.9512  -44.9764 H         1 UNK         0.0600 
    164 H164        1.7391  -14.5442  -45.3358 H         1 UNK         0.3000 
    165 H165        1.7410  -15.1177  -48.8194 H         1 UNK         0.0600 
    166 H166       -0.7324  -14.7905  -48.5902 H         1 UNK         0.0600 
    167 H167       -0.2820  -16.3982  -48.0676 H         1 UNK         0.0600 
    168 H168       -0.6349  -15.1619  -46.8691 H         1 UNK         0.0600 
    169 H169        1.8424  -13.2625  -46.6125 H         1 UNK         0.3000 
    170 H170        1.2093  -10.4227  -48.7293 H         1 UNK         0.0600 
    171 H171       -0.8334  -10.8532  -47.4057 H         1 UNK         0.0600 
    172 H172        0.1232  -11.3663  -46.0256 H         1 UNK         0.0600 
    173 H173        0.1991   -9.6943  -46.5861 H         1 UNK         0.0600 
    174 H174        2.5882  -10.9805  -46.2028 H         1 UNK         0.3000 
    175 H175        5.8200  -10.7634  -47.5363 H         1 UNK         0.0600 
    176 H176        4.3745   -8.3795  -46.2574 H         1 UNK         0.0600 
    177 H177        6.1165   -8.6584  -46.2467 H         1 UNK         0.0600 
    178 H178        5.2870   -8.3390  -47.7612 H         1 UNK         0.0600 
    179 H179        4.6508  -10.4017  -44.8977 H         1 UNK         0.3000 
    180 H180        4.5710  -13.8387  -44.0707 H         1 UNK         0.0600 
    181 H181        6.4788  -11.6524  -43.0895 H         1 UNK         0.0600 
    182 H182        6.9664  -13.2291  -43.7002 H         1 UNK         0.0600 
    183 H183        6.0363  -13.1194  -42.2150 H         1 UNK         0.0600 
    184 H184        4.0522  -11.5924  -42.4680 H         1 UNK         0.3000 
    185 H185        1.9028  -11.3917  -41.7282 H         1 UNK         0.0600 
    186 H186        0.8878   -9.8905  -44.2226 H         1 UNK         0.0600 
    187 H187        0.5272   -9.4490  -42.5574 H         1 UNK         0.0600 
    188 H188        2.1770   -9.3523  -43.1539 H         1 UNK         0.0600 
    189 H189        0.1490  -12.5896  -43.7305 H         1 UNK         0.3000 
    190 H190       -0.8311  -22.5837  -43.8097 H         1 UNK         0.3000 
    191 H191       -1.9210  -25.0545  -42.9713 H         1 UNK         0.0600 
    192 H192        0.9827  -24.3759  -43.6787 H         1 UNK         0.0600 
    193 H193        0.2177  -24.0739  -42.1192 H         1 UNK         0.0600 
    194 H194        0.4469  -25.7226  -42.6848 H         1 UNK         0.0600 
    195 H195       -0.3309  -24.1493  -46.0435 H         1 UNK         0.3000 
    196 H196       -0.5603  -26.7677  -47.2616 H         1 UNK         0.0600 
    197 H197        1.2045  -25.1117  -47.8814 H         1 UNK         0.0600 
    198 H198       -0.0287  -24.0010  -48.4744 H         1 UNK         0.0600 
    199 H199        0.2351  -25.5467  -49.2765 H         1 UNK         0.0600 
    200 H200       -2.9412  -24.4938  -46.5400 H         1 UNK         0.3000 
    201 H201       -4.9893  -23.9792  -47.1882 H         1 UNK         0.0600 
    202 H202       -6.4302  -25.8096  -48.0300 H         1 UNK         0.0600 
    203 H203       -5.3571  -26.4152  -46.7785 H         1 UNK         0.0600 
    204 H204       -5.0226  -26.7652  -48.4735 H         1 UNK         0.0600 
    205 H205       -3.1945  -22.7042  -48.6816 H         1 UNK         0.3000 
    206 H206       -2.7693  -21.5525  -50.5166 H         1 UNK         0.0600 
    207 H207       -5.1723  -20.8932  -50.3537 H         1 UNK         0.0600 
    208 H208       -5.6254  -22.2194  -51.4101 H         1 UNK         0.0600 
    209 H209       -4.6219  -20.9152  -52.0200 H         1 UNK         0.0600 
    210 H210       -1.8703  -24.1403  -50.4269 H         1 UNK         0.3000 
    211 H211       -0.8547  -25.7847  -51.5022 H         1 UNK         0.0600 
    212 H212        0.1610  -23.9616  -52.9164 H         1 UNK         0.0600 
    213 H213       -0.0172  -25.4776  -53.7877 H         1 UNK         0.0600 
    214 H214       -1.1415  -24.1648  -54.0870 H         1 UNK         0.0600 
    215 H215       -3.2700  -26.3770  -50.8218 H         1 UNK         0.3000 
    216 H216       -5.1943  -27.4579  -51.1044 H         1 UNK         0.0600 
    217 H217       -5.1920  -29.4697  -52.5470 H         1 UNK         0.0600 
    218 H218       -3.7811  -28.8883  -53.4212 H         1 UNK         0.0600 
    219 H219       -3.6501  -29.3265  -51.7185 H         1 UNK         0.0600 
    220 H220       -5.3211  -25.0006  -52.0297 H         1 UNK         0.3000 
    221 H221       -6.3726  -23.4690  -53.1711 H         1 UNK         0.0600 
    222 H222       -8.1693  -25.6653  -54.3120 H         1 UNK         0.0600 
    223 H223       -8.3810  -24.8953  -52.7394 H         1 UNK         0.0600 
    224 H224       -8.5421  -23.9518  -54.2100 H         1 UNK         0.0600 
    225 H225       -4.2307  -25.3224  -54.7482 H         1 UNK         0.3000 
    226 H226       -4.8588  -24.6958  -57.5031 H         1 UNK         0.0600 
    227 H227       -3.5232  -26.7125  -56.7776 H         1 UNK         0.0600 
    228 H228       -2.7185  -25.7378  -57.9995 H         1 UNK         0.0600 
    229 H229       -2.1993  -25.6361  -56.3261 H         1 UNK         0.0600 
    230 H230       -2.9371  -23.1114  -54.9519 H         1 UNK         0.3000 
    231 H231       -1.7535  -21.1734  -56.8594 H         1 UNK         0.0600 
    232 H232       -0.5806  -20.3227  -54.8533 H         1 UNK         0.0600 
    233 H233       -0.3289  -22.0500  -55.0289 H         1 UNK         0.0600 
    234 H234       -1.4604  -21.4391  -53.8217 H         1 UNK         0.0600 
    235 H235       -4.4053  -21.4827  -54.6217 H         1 UNK         0.3000 
    236 H236       -6.1006  -20.2115  -53.9427 H         1 UNK         0.0600 
    237 H237       -6.5617  -20.2648  -56.3995 H         1 UNK         0.0600 
    238 H238       -7.1912  -18.8063  -55.6525 H         1 UNK         0.0600 
    239 H239       -5.7084  -18.7341  -56.5968 H         1 UNK         0.0600 
    240 H240       -3.4697  -19.3429  -53.0842 H         1 UNK         0.3000 
    241 H241       -2.4573  -17.8526  -51.8432 H         1 UNK         0.0600 
    242 H242       -1.9171  -15.8811  -55.1243 H         1 UNK         0.3800 
    243 H243       -2.6687  -17.4494  -54.9725 H         1 UNK         0.3800 
    244 H244       -3.5863  -16.0266  -50.6450 H         1 UNK         0.0800 
    245 H245       -4.9612  -16.1180  -51.7065 H         1 UNK         0.0800 
    246 H246       -2.6935  -17.8164  -49.2864 H         1 UNK         0.0800 
    247 H247       -3.3504  -19.4277  -49.1654 H         1 UNK         0.0800 
@<TRIPOS>BOND
     1    1    2 1    
     2    1  127 1    
     3    1  128 1    
     4    1  129 1    
     5    2    3 2    
     6    2    4 am   BACKBONE|DICT|INTERRES
     7    4    5 1    
     8    4  130 1    
     9    5    6 1    
    10    5   65 1    
    11    5  131 1    
    12    6    7 1    
    13    6  132 1    
    14    6  133 1    
    15    7    8 1    
    16    8    9 1    
    17    8  134 1    
    18    8  135 1    
    19    9   10 ar   
    20    9   14 ar   
    21   10   11 ar   
    22   10  136 1    
    23   11   12 ar   
    24   11  126 1    
    25   12   13 ar   
    26   12  137 1    
    27   13   14 ar   
    28   13   15 1    
    29   14  138 1    
    30   15   16 1    
    31   15  139 1    
    32   15  140 1    
    33   16   17 1    
    34   17   18 1    
    35   17  141 1    
    36   17  142 1    
    37   18   19 1    
    38   18   67 1    
    39   18  143 1    
    40   19   20 am   BACKBONE|DICT|INTERRES
    41   19  144 1    
    42   20   21 2    
    43   20   22 1    
    44   22   23 1    
    45   22   24 1    
    46   22  145 1    
    47   23  146 1    
    48   23  147 1    
    49   23  148 1    
    50   24   25 am   BACKBONE|DICT|INTERRES
    51   24  149 1    
    52   25   26 2    
    53   25   27 1    
    54   27   28 1    
    55   27   29 1    
    56   27  150 1    
    57   28  151 1    
    58   28  152 1    
    59   28  153 1    
    60   29   30 am   BACKBONE|DICT|INTERRES
    61   29  154 1    
    62   30   31 2    
    63   30   32 1    
    64   32   33 1    
    65   32   34 1    
    66   32  155 1    
    67   33  156 1    
    68   33  157 1    
    69   33  158 1    
    70   34   35 am   BACKBONE|DICT|INTERRES
    71   34  159 1    
    72   35   36 2    
    73   35   37 1    
    74   37   38 1    
    75   37   39 1    
    76   37  160 1    
    77   38  161 1    
    78   38  162 1    
    79   38  163 1    
    80   39   40 am   BACKBONE|DICT|INTERRES
    81   39  164 1    
    82   40   41 2    
    83   40   42 1    
    84   42   43 1    
    85   42   44 1    
    86   42  165 1    
    87   43  166 1    
    88   43  167 1    
    89   43  168 1    
    90   44   45 am   BACKBONE|DICT|INTERRES
    91   44  169 1    
    92   45   46 2    
    93   45   47 1    
    94   47   48 1    
    95   47   49 1    
    96   47  170 1    
    97   48  171 1    
    98   48  172 1    
    99   48  173 1    
   100   49   50 am   BACKBONE|DICT|INTERRES
   101   49  174 1    
   102   50   51 2    
   103   50   52 1    
   104   52   53 1    
   105   52   54 1    
   106   52  175 1    
   107   53  176 1    
   108   53  177 1    
   109   53  178 1    
   110   54   55 am   BACKBONE|DICT|INTERRES
   111   54  179 1    
   112   55   56 2    
   113   55   57 1    
   114   57   58 1    
   115   57   59 1    
   116   57  180 1    
   117   58  181 1    
   118   58  182 1    
   119   58  183 1    
   120   59   60 am   BACKBONE|DICT|INTERRES
   121   59  184 1    
   122   60   61 2    
   123   60   62 1    
   124   62   63 1    
   125   62   64 1    
   126   62  185 1    
   127   63  186 1    
   128   63  187 1    
   129   63  188 1    
   130   64   65 am   BACKBONE|DICT|INTERRES
   131   64  189 1    
   132   65   66 2    
   133   67   68 2    
   134   67   69 am   BACKBONE|DICT|INTERRES
   135   69   70 1    
   136   69  190 1    
   137   70   71 1    
   138   70   72 1    
   139   70  191 1    
   140   71  192 1    
   141   71  193 1    
   142   71  194 1    
   143   72   73 2    
   144   72   74 am   BACKBONE|DICT|INTERRES
   145   74   75 1    
   146   74  195 1    
   147   75   76 1    
   148   75   77 1    
   149   75  196 1    
   150   76  197 1    
   151   76  198 1    
   152   76  199 1    
   153   77   78 2    
   154   77   79 am   BACKBONE|DICT|INTERRES
   155   79   80 1    
   156   79  200 1    
   157   80   81 1    
   158   80   82 1    
   159   80  201 1    
   160   81  202 1    
   161   81  203 1    
   162   81  204 1    
   163   82   83 2    
   164   82   84 am   BACKBONE|DICT|INTERRES
   165   84   85 1    
   166   84  205 1    
   167   85   86 1    
   168   85   87 1    
   169   85  206 1    
   170   86  207 1    
   171   86  208 1    
   172   86  209 1    
   173   87   88 2    
   174   87   89 am   BACKBONE|DICT|INTERRES
   175   89   90 1    
   176   89  210 1    
   177   90   91 1    
   178   90   92 1    
   179   90  211 1    
   180   91  212 1    
   181   91  213 1    
   182   91  214 1    
   183   92   93 2    
   184   92   94 am   BACKBONE|DICT|INTERRES
   185   94   95 1    
   186   94  215 1    
   187   95   96 1    
   188   95   97 1    
   189   95  216 1    
   190   96  217 1    
   191   96  218 1    
   192   96  219 1    
   193   97   98 2    
   194   97   99 am   BACKBONE|DICT|INTERRES
   195   99  100 1    
   196   99  220 1    
   197  100  101 1    
   198  100  102 1    
   199  100  221 1    
   200  101  222 1    
   201  101  223 1    
   202  101  224 1    
   203  102  103 2    
   204  102  104 am   BACKBONE|DICT|INTERRES
   205  104  105 1    
   206  104  225 1    
   207  105  106 1    
   208  105  107 1    
   209  105  226 1    
   210  106  227 1    
   211  106  228 1    
   212  106  229 1    
   213  107  108 2    
   214  107  109 am   BACKBONE|DICT|INTERRES
   215  109  110 1    
   216  109  230 1    
   217  110  111 1    
   218  110  112 1    
   219  110  231 1    
   220  111  232 1    
   221  111  233 1    
   222  111  234 1    
   223  112  113 2    
   224  112  114 am   BACKBONE|DICT|INTERRES
   225  114  115 1    
   226  114  235 1    
   227  115  116 1    
   228  115  117 1    
   229  115  236 1    
   230  116  237 1    
   231  116  238 1    
   232  116  239 1    
   233  117  118 2    
   234  117  119 am   BACKBONE|DICT|INTERRES
   235  119  120 1    
   236  119  240 1    
   237  120  121 1    
   238  120  124 1    
   239  120  241 1    
   240  121  122 am   BACKBONE|DICT|INTERRES
   241  121  123 2    
   242  122  242 1    
   243  122  243 1    
   244  124  125 1    
   245  124  244 1    
   246  124  245 1    
   247  125  126 1    
   248  126  246 1    
   249  126  247 1    
@<TRIPOS>SUBSTRUCTURE
     1 UNK         1 GROUP             0       ****    0 ROOT    
