@<TRIPOS>MOLECULE
3R540
247   249    1
SMALL
USER_CHARGES


@<TRIPOS>ATOM
      1 CA         -1.5594   -8.3833  -50.1135 C.3       0 UNK        -0.1800 
      2 C          -1.0693   -9.6280  -49.3876 C.2       0 UNK         0.5000 
      3 O          -0.6599   -9.5425  -48.2290 O.2       0 UNK        -0.5000 
      4 N          -1.1184  -10.7879  -50.0552 N.am      1 UNK        -0.5000 
      5 CA         -0.7045  -12.0954  -49.5314 C.3       1 UNK         0.1400 
      6 C6         -0.2450  -13.0340  -50.6781 C.3       23 UNK        -0.0398 
      7 S7          0.9862  -14.2711  -50.1388 S.3       23 UNK        -0.2404 
      8 C8          0.1936  -15.8195  -50.6711 C.3       23 UNK        -0.0205 
      9 C9          1.2114  -16.9415  -50.8107 C.ar      23 UNK        -0.0193 
     10 C10         1.8541  -17.1550  -52.0340 C.ar      23 UNK        -0.1150 
     11 C11         2.7609  -18.2087  -52.1873 C.ar      23 UNK        -0.0193 
     12 C12         3.0372  -19.0379  -51.0963 C.ar      23 UNK        -0.1150 
     13 C13         2.4170  -18.8238  -49.8625 C.ar      23 UNK        -0.0193 
     14 C14         1.5000  -17.7781  -49.7291 C.ar      23 UNK        -0.1150 
     15 C15         2.7633  -19.7127  -48.6773 C.3       23 UNK        -0.0205 
     16 S16         1.8056  -21.2583  -48.6885 S.3       23 UNK        -0.2404 
     17 C17         0.3885  -20.8073  -47.6342 C.3       23 UNK        -0.0398 
     18 CA         -0.6435  -21.9527  -47.5328 C.3       11 UNK         0.1400 
     19 N          -0.0644  -23.2012  -47.0334 N.am      11 UNK        -0.5000 
     20 C          -0.6500  -24.4017  -47.1285 C.2       10 UNK         0.5000 
     21 O          -1.7521  -24.5882  -47.6405 O.2       10 UNK        -0.5000 
     22 CA          0.1149  -25.5873  -46.5169 C.3       10 UNK         0.1400 
     23 CB          1.2042  -26.0802  -47.4816 C.3       10 UNK        -0.1800 
     24 N           0.7180  -25.2569  -45.2249 N.am      10 UNK        -0.5000 
     25 C           0.0180  -24.9665  -44.1194 C.2       9 UNK         0.5000 
     26 O          -1.2117  -24.9637  -44.0652 O.2       9 UNK        -0.5000 
     27 CA          0.8310  -24.5626  -42.8766 C.3       9 UNK         0.1400 
     28 CB          1.3475  -25.8073  -42.1392 C.3       9 UNK        -0.1800 
     29 N           1.9536  -23.6614  -43.1604 N.am      9 UNK        -0.5000 
     30 C           1.8395  -22.4622  -43.7453 C.2       8 UNK         0.5000 
     31 O           0.7915  -22.0305  -44.2299 O.2       8 UNK        -0.5000 
     32 CA          3.0983  -21.5925  -43.8070 C.3       8 UNK         0.1400 
     33 CB          3.7867  -21.7102  -45.1752 C.3       8 UNK        -0.1800 
     34 N           2.6727  -20.2168  -43.5879 N.am      8 UNK        -0.5000 
     35 C           3.3025  -19.3030  -42.8479 C.2       7 UNK         0.5000 
     36 O           4.4183  -19.4788  -42.3542 O.2       7 UNK        -0.5000 
     37 CA          2.5468  -17.9759  -42.6257 C.3       7 UNK         0.1400 
     38 CB          3.3242  -16.9855  -41.7403 C.3       7 UNK        -0.1800 
     39 N           2.2129  -17.3070  -43.8812 N.am      7 UNK        -0.5000 
     40 C           1.2047  -17.6111  -44.7062 C.2       6 UNK         0.5000 
     41 O           0.4610  -18.5785  -44.5338 O.2       6 UNK        -0.5000 
     42 CA          0.9977  -16.6774  -45.9203 C.3       6 UNK         0.1400 
     43 CB         -0.3621  -16.9079  -46.6040 C.3       6 UNK        -0.1800 
     44 N           1.0886  -15.2605  -45.5695 N.am      6 UNK        -0.5000 
     45 C           2.1990  -14.5577  -45.3135 C.2       5 UNK         0.5000 
     46 O           3.3330  -15.0360  -45.3482 O.2       5 UNK        -0.5000 
     47 CA          1.9948  -13.0941  -44.8907 C.3       5 UNK         0.1400 
     48 CB          1.7379  -12.2036  -46.1168 C.3       5 UNK        -0.1800 
     49 N           0.8716  -12.9788  -43.9598 N.am      5 UNK        -0.5000 
     50 C           0.9641  -13.1335  -42.6317 C.2       4 UNK         0.5000 
     51 O           2.0284  -13.3106  -42.0383 O.2       4 UNK        -0.5000 
     52 CA         -0.3485  -13.0788  -41.8230 C.3       4 UNK         0.1400 
     53 CB         -0.6234  -11.6449  -41.3450 C.3       4 UNK        -0.1800 
     54 N          -1.5100  -13.5600  -42.5732 N.am      4 UNK        -0.5000 
     55 C          -1.7451  -14.8454  -42.8725 C.2       3 UNK         0.5000 
     56 O          -1.0411  -15.7758  -42.4815 O.2       3 UNK        -0.5000 
     57 CA         -2.9565  -15.1420  -43.7846 C.3       3 UNK         0.1400 
     58 CB         -4.1885  -15.5017  -42.9412 C.3       3 UNK        -0.1800 
     59 N          -3.3134  -14.0615  -44.7159 N.am      3 UNK        -0.5000 
     60 C          -2.4873  -13.5071  -45.6135 C.2       2 UNK         0.5000 
     61 O          -1.2992  -13.8155  -45.7130 O.2       2 UNK        -0.5000 
     62 CA         -3.0690  -12.3884  -46.4984 C.3       2 UNK         0.1400 
     63 CB         -3.4044  -11.1486  -45.6528 C.3       2 UNK        -0.1800 
     64 N          -2.1313  -11.9836  -47.5455 N.am      2 UNK        -0.5000 
     65 C          -1.8082  -12.6988  -48.6300 C.2       1 UNK         0.5000 
     66 O          -2.3670  -13.7514  -48.9383 O.2       1 UNK        -0.5000 
     67 C          -1.8605  -21.5324  -46.6903 C.2       11 UNK         0.5000 
     68 O          -2.8754  -21.1310  -47.2585 O.2       11 UNK        -0.5000 
     69 N          -1.7598  -21.6747  -45.3622 N.am      12 UNK        -0.5000 
     70 CA         -2.8385  -21.4280  -44.4074 C.3       12 UNK         0.1400 
     71 CB         -2.2927  -21.5351  -42.9762 C.3       12 UNK        -0.1800 
     72 C          -4.0355  -22.3721  -44.6201 C.2       12 UNK         0.5000 
     73 O          -5.1720  -21.9007  -44.6764 O.2       12 UNK        -0.5000 
     74 N          -3.7591  -23.6728  -44.8027 N.am      13 UNK        -0.5000 
     75 CA         -4.7533  -24.6984  -45.1382 C.3       13 UNK         0.1400 
     76 CB         -4.0928  -26.0844  -45.1037 C.3       13 UNK        -0.1800 
     77 C          -5.4341  -24.4582  -46.5001 C.2       13 UNK         0.5000 
     78 O          -6.6184  -24.7574  -46.6519 O.2       13 UNK        -0.5000 
     79 N          -4.6861  -23.8763  -47.4454 N.am      14 UNK        -0.5000 
     80 CA         -5.1522  -23.4382  -48.7597 C.3       14 UNK         0.1400 
     81 CB         -3.9618  -23.4519  -49.7310 C.3       14 UNK        -0.1800 
     82 C          -5.8564  -22.0631  -48.7480 C.2       14 UNK         0.5000 
     83 O          -6.0910  -21.5116  -49.8242 O.2       14 UNK        -0.5000 
     84 N          -6.1768  -21.5280  -47.5593 N.am      15 UNK        -0.5000 
     85 CA         -6.8764  -20.2627  -47.3113 C.3       15 UNK         0.1400 
     86 CB         -8.3159  -20.3095  -47.8663 C.3       15 UNK        -0.1800 
     87 C          -6.0698  -19.0451  -47.8024 C.2       15 UNK         0.5000 
     88 O          -6.5703  -18.2376  -48.5862 O.2       15 UNK        -0.5000 
     89 N          -4.8168  -18.9669  -47.3335 N.am      16 UNK        -0.5000 
     90 CA         -3.7799  -18.0010  -47.7122 C.3       16 UNK         0.1400 
     91 CB         -4.1804  -16.5564  -47.3483 C.3       16 UNK        -0.1800 
     92 C          -3.3460  -18.1812  -49.1812 C.2       16 UNK         0.5000 
     93 O          -3.2066  -17.2069  -49.9204 O.2       16 UNK        -0.5000 
     94 N          -3.1485  -19.4528  -49.5588 N.am      17 UNK        -0.5000 
     95 CA         -2.7483  -19.9431  -50.8797 C.3       17 UNK         0.1400 
     96 CB         -1.2861  -19.5694  -51.1747 C.3       17 UNK        -0.1800 
     97 C          -3.7188  -19.5399  -52.0102 C.2       17 UNK         0.5000 
     98 O          -3.2867  -19.1704  -53.1041 O.2       17 UNK        -0.5000 
     99 N          -5.0237  -19.6242  -51.7247 N.am      18 UNK        -0.5000 
    100 CA        -6.0901  -19.4702  -52.7095 C.3       18 UNK         0.1400 
    101 CB        -7.3688  -18.9872  -52.0080 C.3       18 UNK        -0.1800 
    102 C         -6.3289  -20.8014  -53.4404 C.2       18 UNK         0.5000 
    103 O         -6.3894  -20.8269  -54.6703 O.2       18 UNK        -0.5000 
    104 N         -6.4231  -21.8919  -52.6691 N.am      19 UNK        -0.5000 
    105 CA        -6.5983  -23.2590  -53.1527 C.3       19 UNK         0.1400 
    106 CB        -7.4705  -24.0295  -52.1459 C.3       19 UNK        -0.1800 
    107 C         -5.2266  -23.9196  -53.3881 C.2       19 UNK         0.5000 
    108 O         -4.8630  -24.8615  -52.6823 O.2       19 UNK        -0.5000 
    109 N         -4.4858  -23.3893  -54.3700 N.am      20 UNK        -0.5000 
    110 CA        -3.1212  -23.7654  -54.7510 C.3       20 UNK         0.1400 
    111 CB        -3.0547  -25.2267  -55.2527 C.3       20 UNK        -0.1800 
    112 C         -2.1012  -23.4129  -53.6468 C.2       20 UNK         0.5000 
    113 O         -2.0939  -22.2681  -53.1952 O.2       20 UNK        -0.5000 
    114 N         -1.2270  -24.3600  -53.2753 N.am      21 UNK        -0.5000 
    115 CA        -0.0734  -24.2499  -52.3663 C.3       21 UNK         0.1400 
    116 CB        -0.4753  -23.7709  -50.9576 C.3       21 UNK        -0.1800 
    117 C          1.0862  -23.4113  -52.9409 C.2       21 UNK         0.5000 
    118 O          2.2253  -23.8794  -52.9444 O.2       21 UNK        -0.5000 
    119 N          0.7773  -22.2131  -53.4464 N.am      22 UNK        -0.5000 
    120 CA         1.6819  -21.3652  -54.2318 C.3       22 UNK         0.1400 
    121 C          1.9317  -21.9692  -55.6427 C.2       22 UNK         0.5000 
    122 N          3.1770  -22.0293  -56.0947 N.am      22 UNK        -0.7600 
    123 O          0.9987  -22.3617  -56.3406 O.2       22 UNK        -0.5000 
    124 C124        1.1248  -19.9228  -54.3095 C.3       23 UNK        -0.0398 
    125 S125        2.3069  -18.6742  -54.9272 S.3       23 UNK        -0.2404 
    126 C126        3.4541  -18.4550  -53.5225 C.3       23 UNK        -0.0205 
    127 H127       -2.3927   -7.9369  -49.5709 H         1 UNK         0.0600 
    128 H128       -0.7584   -7.6467  -50.1768 H         1 UNK         0.0600 
    129 H129       -1.8945   -8.6095  -51.1261 H         1 UNK         0.0600 
    130 H130       -1.5010  -10.7962  -50.9902 H         1 UNK         0.3000 
    131 H131        0.1629  -11.9238  -48.8906 H         1 UNK         0.0600 
    132 H132        0.2483  -12.4490  -51.4558 H         1 UNK         0.0800 
    133 H133       -1.0939  -13.5092  -51.1724 H         1 UNK         0.0800 
    134 H134       -0.3089  -15.6715  -51.6281 H         1 UNK         0.0800 
    135 H135       -0.5853  -16.0932  -49.9574 H         1 UNK         0.0800 
    136 H136        1.6381  -16.5095  -52.8738 H         1 UNK         0.1150 
    137 H137        3.7411  -19.8515  -51.2020 H         1 UNK         0.1150 
    138 H138        1.0102  -17.6137  -48.7848 H         1 UNK         0.1150 
    139 H139        3.8245  -19.9632  -48.7126 H         1 UNK         0.0800 
    140 H140        2.6133  -19.1813  -47.7364 H         1 UNK         0.0800 
    141 H141        0.7583  -20.5294  -46.6453 H         1 UNK         0.0800 
    142 H142       -0.0782  -19.9180  -48.0578 H         1 UNK         0.0800 
    143 H143       -1.0103  -22.1449  -48.5424 H         1 UNK         0.0600 
    144 H144        0.8221  -23.1263  -46.5579 H         1 UNK         0.3000 
    145 H145       -0.5985  -26.3995  -46.3614 H         1 UNK         0.0600 
    146 H146        1.7011  -26.9696  -47.0940 H         1 UNK         0.0600 
    147 H147        0.7764  -26.3434  -48.4501 H         1 UNK         0.0600 
    148 H148        1.9652  -25.3185  -47.6561 H         1 UNK         0.0600 
    149 H149        1.7257  -25.2243  -45.1810 H         1 UNK         0.3000 
    150 H150        0.1519  -24.0320  -42.2060 H         1 UNK         0.0600 
    151 H151        0.5291  -26.4887  -41.9023 H         1 UNK         0.0600 
    152 H152        1.8258  -25.5379  -41.1974 H         1 UNK         0.0600 
    153 H153        2.0720  -26.3600  -42.7384 H         1 UNK         0.0600 
    154 H154        2.8547  -23.9468  -42.8048 H         1 UNK         0.3000 
    155 H155        3.7868  -21.9076  -43.0201 H         1 UNK         0.0600 
    156 H156        4.0940  -22.7376  -45.3734 H         1 UNK         0.0600 
    157 H157        4.6804  -21.0876  -45.2197 H         1 UNK         0.0600 
    158 H158        3.1256  -21.4010  -45.9843 H         1 UNK         0.0600 
    159 H159        1.7416  -19.9973  -43.9357 H         1 UNK         0.3000 
    160 H160        1.6169  -18.2202  -42.1076 H         1 UNK         0.0600 
    161 H161        4.2630  -16.6814  -42.2048 H         1 UNK         0.0600 
    162 H162        3.5613  -17.4265  -40.7713 H         1 UNK         0.0600 
    163 H163        2.7385  -16.0856  -41.5506 H         1 UNK         0.0600 
    164 H164        2.8019  -16.5241  -44.1442 H         1 UNK         0.3000 
    165 H165        1.7873  -16.9042  -46.6387 H         1 UNK         0.0600 
    166 H166       -1.1865  -16.7237  -45.9176 H         1 UNK         0.0600 
    167 H167       -0.4948  -16.2471  -47.4612 H         1 UNK         0.0600 
    168 H168       -0.4598  -17.9324  -46.9585 H         1 UNK         0.0600 
    169 H169        0.2000  -14.7649  -45.5289 H         1 UNK         0.3000 
    170 H170        2.9104  -12.7473  -44.4067 H         1 UNK         0.0600 
    171 H171        2.5699  -12.2580  -46.8200 H         1 UNK         0.0600 
    172 H172        0.8377  -12.5036  -46.6525 H         1 UNK         0.0600 
    173 H173        1.6218  -11.1587  -45.8287 H         1 UNK         0.0600 
    174 H174       -0.0480  -12.9192  -44.3797 H         1 UNK         0.3000 
    175 H175       -0.2209  -13.7124  -40.9426 H         1 UNK         0.0600 
    176 H176       -0.7779  -10.9634  -42.1826 H         1 UNK         0.0600 
    177 H177       -1.5085  -11.6035  -40.7097 H         1 UNK         0.0600 
    178 H178        0.2134  -11.2613  -40.7597 H         1 UNK         0.0600 
    179 H179       -2.1476  -12.8616  -42.9252 H         1 UNK         0.3000 
    180 H180       -2.6997  -16.0161  -44.3835 H         1 UNK         0.0600 
    181 H181       -3.9676  -16.3205  -42.2550 H         1 UNK         0.0600 
    182 H182       -4.5276  -14.6546  -42.3436 H         1 UNK         0.0600 
    183 H183       -5.0181  -15.8240  -43.5710 H         1 UNK         0.0600 
    184 H184       -4.2705  -13.7418  -44.6758 H         1 UNK         0.3000 
    185 H185       -3.9812  -12.7613  -46.9685 H         1 UNK         0.0600 
    186 H186       -4.1510  -11.3743  -44.8907 H         1 UNK         0.0600 
    187 H187       -2.5217  -10.7582  -45.1441 H         1 UNK         0.0600 
    188 H188       -3.8119  -10.3494  -46.2725 H         1 UNK         0.0600 
    189 H189       -1.6288  -11.1152  -47.3969 H         1 UNK         0.3000 
    190 H190       -0.8655  -21.9618  -44.9682 H         1 UNK         0.3000 
    191 H191       -3.1884  -20.4049  -44.5602 H         1 UNK         0.0600 
    192 H192       -3.0740  -21.3321  -42.2428 H         1 UNK         0.0600 
    193 H193       -1.4914  -20.8148  -42.8082 H         1 UNK         0.0600 
    194 H194       -1.8953  -22.5291  -42.7696 H         1 UNK         0.0600 
    195 H195       -2.7987  -23.9912  -44.7071 H         1 UNK         0.3000 
    196 H196       -5.5307  -24.6715  -44.3720 H         1 UNK         0.0600 
    197 H197       -4.8132  -26.8683  -45.3405 H         1 UNK         0.0600 
    198 H198       -3.6879  -26.3032  -44.1155 H         1 UNK         0.0600 
    199 H199       -3.2768  -26.1581  -45.8236 H         1 UNK         0.0600 
    200 H200       -3.7049  -23.7174  -47.2490 H         1 UNK         0.3000 
    201 H201       -5.8852  -24.1597  -49.1233 H         1 UNK         0.0600 
    202 H202       -3.5834  -24.4651  -49.8649 H         1 UNK         0.0600 
    203 H203       -3.1416  -22.8365  -49.3668 H         1 UNK         0.0600 
    204 H204       -4.2355  -23.0813  -50.7181 H         1 UNK         0.0600 
    205 H205       -5.8939  -22.0289  -46.7259 H         1 UNK         0.3000 
    206 H206       -6.9507  -20.1629  -46.2274 H         1 UNK         0.0600 
    207 H207       -8.8629  -21.1642  -47.4685 H         1 UNK         0.0600 
    208 H208       -8.8689  -19.4119  -47.5877 H         1 UNK         0.0600 
    209 H209       -8.3345  -20.3776  -48.9540 H         1 UNK         0.0600 
    210 H210       -4.4843  -19.7446  -46.7768 H         1 UNK         0.3000 
    211 H211       -2.9089  -18.2543  -47.1076 H         1 UNK         0.0600 
    212 H212       -4.9977  -16.1893  -47.9691 H         1 UNK         0.0600 
    213 H213       -3.3381  -15.8786  -47.4886 H         1 UNK         0.0600 
    214 H214       -4.4880  -16.4812  -46.3056 H         1 UNK         0.0600 
    215 H215       -3.2770  -20.1643  -48.8448 H         1 UNK         0.3000 
    216 H216       -2.7945  -21.0297  -50.8263 H         1 UNK         0.0600 
    217 H217       -1.1632  -18.4960  -51.3166 H         1 UNK         0.0600 
    218 H218       -0.9534  -20.0646  -52.0839 H         1 UNK         0.0600 
    219 H219       -0.6192  -19.8885  -50.3758 H         1 UNK         0.0600 
    220 H220       -5.3045  -19.9726  -50.8140 H         1 UNK         0.3000 
    221 H221       -5.8044  -18.7176  -53.4475 H         1 UNK         0.0600 
    222 H222       -7.7105  -19.6957  -51.2529 H         1 UNK         0.0600 
    223 H223       -7.2064  -18.0294  -51.5130 H         1 UNK         0.0600 
    224 H224       -8.1800  -18.8521  -52.7243 H         1 UNK         0.0600 
    225 H225       -6.3253  -21.7795  -51.6628 H         1 UNK         0.3000 
    226 H226       -7.1287  -23.2505  -54.1072 H         1 UNK         0.0600 
    227 H227       -8.4489  -23.5617  -52.0353 H         1 UNK         0.0600 
    228 H228       -7.6359  -25.0555  -52.4766 H         1 UNK         0.0600 
    229 H229       -7.0087  -24.0712  -51.1606 H         1 UNK         0.0600 
    230 H230       -4.8614  -22.5781  -54.8450 H         1 UNK         0.3000 
    231 H231       -2.8650  -23.1263  -55.5972 H         1 UNK         0.0600 
    232 H232       -3.2407  -25.9489  -54.4574 H         1 UNK         0.0600 
    233 H233       -3.7930  -25.4022  -56.0352 H         1 UNK         0.0600 
    234 H234       -2.0781  -25.4504  -55.6838 H         1 UNK         0.0600 
    235 H235       -1.3180  -25.2596  -53.7258 H         1 UNK         0.3000 
    236 H236        0.3059  -25.2673  -52.2583 H         1 UNK         0.0600 
    237 H237       -1.2396  -24.4165  -50.5268 H         1 UNK         0.0600 
    238 H238        0.3812  -23.7910  -50.2825 H         1 UNK         0.0600 
    239 H239       -0.8565  -22.7503  -50.9605 H         1 UNK         0.0600 
    240 H240       -0.2010  -21.9424  -53.4238 H         1 UNK         0.3000 
    241 H241        2.6317  -21.3308  -53.6948 H         1 UNK         0.0600 
    242 H242        3.3471  -22.4098  -57.0127 H         1 UNK         0.3800 
    243 H243        3.9555  -21.7029  -55.5435 H         1 UNK         0.3800 
    244 H244        0.7989  -19.5995  -53.3235 H         1 UNK         0.0800 
    245 H245        0.2309  -19.8914  -54.9350 H         1 UNK         0.0800 
    246 H246        4.1016  -19.3309  -53.4640 H         1 UNK         0.0800 
    247 H247        4.1090  -17.6095  -53.7363 H         1 UNK         0.0800 
@<TRIPOS>BOND
     1    1    2 1    
     2    1  127 1    
     3    1  128 1    
     4    1  129 1    
     5    2    3 2    
     6    2    4 am   BACKBONE|DICT|INTERRES
     7    4    5 1    
     8    4  130 1    
     9    5    6 1    
    10    5   65 1    
    11    5  131 1    
    12    6    7 1    
    13    6  132 1    
    14    6  133 1    
    15    7    8 1    
    16    8    9 1    
    17    8  134 1    
    18    8  135 1    
    19    9   10 ar   
    20    9   14 ar   
    21   10   11 ar   
    22   10  136 1    
    23   11   12 ar   
    24   11  126 1    
    25   12   13 ar   
    26   12  137 1    
    27   13   14 ar   
    28   13   15 1    
    29   14  138 1    
    30   15   16 1    
    31   15  139 1    
    32   15  140 1    
    33   16   17 1    
    34   17   18 1    
    35   17  141 1    
    36   17  142 1    
    37   18   19 1    
    38   18   67 1    
    39   18  143 1    
    40   19   20 am   BACKBONE|DICT|INTERRES
    41   19  144 1    
    42   20   21 2    
    43   20   22 1    
    44   22   23 1    
    45   22   24 1    
    46   22  145 1    
    47   23  146 1    
    48   23  147 1    
    49   23  148 1    
    50   24   25 am   BACKBONE|DICT|INTERRES
    51   24  149 1    
    52   25   26 2    
    53   25   27 1    
    54   27   28 1    
    55   27   29 1    
    56   27  150 1    
    57   28  151 1    
    58   28  152 1    
    59   28  153 1    
    60   29   30 am   BACKBONE|DICT|INTERRES
    61   29  154 1    
    62   30   31 2    
    63   30   32 1    
    64   32   33 1    
    65   32   34 1    
    66   32  155 1    
    67   33  156 1    
    68   33  157 1    
    69   33  158 1    
    70   34   35 am   BACKBONE|DICT|INTERRES
    71   34  159 1    
    72   35   36 2    
    73   35   37 1    
    74   37   38 1    
    75   37   39 1    
    76   37  160 1    
    77   38  161 1    
    78   38  162 1    
    79   38  163 1    
    80   39   40 am   BACKBONE|DICT|INTERRES
    81   39  164 1    
    82   40   41 2    
    83   40   42 1    
    84   42   43 1    
    85   42   44 1    
    86   42  165 1    
    87   43  166 1    
    88   43  167 1    
    89   43  168 1    
    90   44   45 am   BACKBONE|DICT|INTERRES
    91   44  169 1    
    92   45   46 2    
    93   45   47 1    
    94   47   48 1    
    95   47   49 1    
    96   47  170 1    
    97   48  171 1    
    98   48  172 1    
    99   48  173 1    
   100   49   50 am   BACKBONE|DICT|INTERRES
   101   49  174 1    
   102   50   51 2    
   103   50   52 1    
   104   52   53 1    
   105   52   54 1    
   106   52  175 1    
   107   53  176 1    
   108   53  177 1    
   109   53  178 1    
   110   54   55 am   BACKBONE|DICT|INTERRES
   111   54  179 1    
   112   55   56 2    
   113   55   57 1    
   114   57   58 1    
   115   57   59 1    
   116   57  180 1    
   117   58  181 1    
   118   58  182 1    
   119   58  183 1    
   120   59   60 am   BACKBONE|DICT|INTERRES
   121   59  184 1    
   122   60   61 2    
   123   60   62 1    
   124   62   63 1    
   125   62   64 1    
   126   62  185 1    
   127   63  186 1    
   128   63  187 1    
   129   63  188 1    
   130   64   65 am   BACKBONE|DICT|INTERRES
   131   64  189 1    
   132   65   66 2    
   133   67   68 2    
   134   67   69 am   BACKBONE|DICT|INTERRES
   135   69   70 1    
   136   69  190 1    
   137   70   71 1    
   138   70   72 1    
   139   70  191 1    
   140   71  192 1    
   141   71  193 1    
   142   71  194 1    
   143   72   73 2    
   144   72   74 am   BACKBONE|DICT|INTERRES
   145   74   75 1    
   146   74  195 1    
   147   75   76 1    
   148   75   77 1    
   149   75  196 1    
   150   76  197 1    
   151   76  198 1    
   152   76  199 1    
   153   77   78 2    
   154   77   79 am   BACKBONE|DICT|INTERRES
   155   79   80 1    
   156   79  200 1    
   157   80   81 1    
   158   80   82 1    
   159   80  201 1    
   160   81  202 1    
   161   81  203 1    
   162   81  204 1    
   163   82   83 2    
   164   82   84 am   BACKBONE|DICT|INTERRES
   165   84   85 1    
   166   84  205 1    
   167   85   86 1    
   168   85   87 1    
   169   85  206 1    
   170   86  207 1    
   171   86  208 1    
   172   86  209 1    
   173   87   88 2    
   174   87   89 am   BACKBONE|DICT|INTERRES
   175   89   90 1    
   176   89  210 1    
   177   90   91 1    
   178   90   92 1    
   179   90  211 1    
   180   91  212 1    
   181   91  213 1    
   182   91  214 1    
   183   92   93 2    
   184   92   94 am   BACKBONE|DICT|INTERRES
   185   94   95 1    
   186   94  215 1    
   187   95   96 1    
   188   95   97 1    
   189   95  216 1    
   190   96  217 1    
   191   96  218 1    
   192   96  219 1    
   193   97   98 2    
   194   97   99 am   BACKBONE|DICT|INTERRES
   195   99  100 1    
   196   99  220 1    
   197  100  101 1    
   198  100  102 1    
   199  100  221 1    
   200  101  222 1    
   201  101  223 1    
   202  101  224 1    
   203  102  103 2    
   204  102  104 am   BACKBONE|DICT|INTERRES
   205  104  105 1    
   206  104  225 1    
   207  105  106 1    
   208  105  107 1    
   209  105  226 1    
   210  106  227 1    
   211  106  228 1    
   212  106  229 1    
   213  107  108 2    
   214  107  109 am   BACKBONE|DICT|INTERRES
   215  109  110 1    
   216  109  230 1    
   217  110  111 1    
   218  110  112 1    
   219  110  231 1    
   220  111  232 1    
   221  111  233 1    
   222  111  234 1    
   223  112  113 2    
   224  112  114 am   BACKBONE|DICT|INTERRES
   225  114  115 1    
   226  114  235 1    
   227  115  116 1    
   228  115  117 1    
   229  115  236 1    
   230  116  237 1    
   231  116  238 1    
   232  116  239 1    
   233  117  118 2    
   234  117  119 am   BACKBONE|DICT|INTERRES
   235  119  120 1    
   236  119  240 1    
   237  120  121 1    
   238  120  124 1    
   239  120  241 1    
   240  121  122 am   BACKBONE|DICT|INTERRES
   241  121  123 2    
   242  122  242 1    
   243  122  243 1    
   244  124  125 1    
   245  124  244 1    
   246  124  245 1    
   247  125  126 1    
   248  126  246 1    
   249  126  247 1    
@<TRIPOS>SUBSTRUCTURE
     1 UNK         1 GROUP             0       ****    0 ROOT    
