@<TRIPOS>MOLECULE
3R540
247   249    1
SMALL
USER_CHARGES


@<TRIPOS>ATOM
      1 CA         -1.4429  -10.2342  -49.5943 C.3       0 UNK        -0.1800 
      2 C          -0.3925  -10.9740  -48.7785 C.2       0 UNK         0.5000 
      3 O           0.3204  -10.3521  -47.9902 O.2       0 UNK        -0.5000 
      4 N          -0.3008  -12.3002  -48.9562 N.am      1 UNK        -0.5000 
      5 CA          0.6529  -13.1814  -48.2654 C.3       1 UNK         0.1400 
      6 C6          0.6622  -14.6096  -48.8766 C.3       23 UNK        -0.0398 
      7 S7          2.2993  -15.4113  -48.7498 S.3       23 UNK        -0.2404 
      8 C8          2.5151  -16.1229  -50.4131 C.3       23 UNK        -0.0205 
      9 C9          1.8142  -17.4673  -50.5482 C.ar      23 UNK        -0.0193 
     10 C10         0.4942  -17.5402  -51.0065 C.ar      23 UNK        -0.1150 
     11 C11        -0.1400  -18.7789  -51.1416 C.ar      23 UNK        -0.0193 
     12 C12         0.5472  -19.9438  -50.7927 C.ar      23 UNK        -0.1150 
     13 C13         1.8738  -19.8900  -50.3623 C.ar      23 UNK        -0.0193 
     14 C14         2.5022  -18.6464  -50.2410 C.ar      23 UNK        -0.1150 
     15 C15         2.6224  -21.1886  -50.0829 C.3       23 UNK        -0.0205 
     16 S16         3.4653  -21.2413  -48.4684 S.3       23 UNK        -0.2404 
     17 C17         2.1501  -20.7711  -47.2993 C.3       23 UNK        -0.0398 
     18 CA          1.1803  -21.9276  -46.9380 C.3       11 UNK         0.1400 
     19 N           0.8891  -21.9628  -45.5007 N.am      11 UNK        -0.5000 
     20 C           0.1766  -22.9101  -44.8745 C.2       10 UNK         0.5000 
     21 O          -0.2685  -23.9133  -45.4324 O.2       10 UNK        -0.5000 
     22 CA         -0.1367  -22.6629  -43.3852 C.3       10 UNK         0.1400 
     23 CB          1.0340  -23.1008  -42.4930 C.3       10 UNK        -0.1800 
     24 N          -0.4629  -21.2615  -43.1134 N.am      10 UNK        -0.5000 
     25 C          -1.5420  -20.6302  -43.5990 C.2       9 UNK         0.5000 
     26 O          -2.4235  -21.1881  -44.2510 O.2       9 UNK        -0.5000 
     27 CA         -1.6071  -19.1075  -43.3885 C.3       9 UNK         0.1400 
     28 CB         -2.1503  -18.7506  -41.9963 C.3       9 UNK        -0.1800 
     29 N          -0.3010  -18.4807  -43.6000 N.am      9 UNK        -0.5000 
     30 C           0.2908  -18.3830  -44.7989 C.2       8 UNK         0.5000 
     31 O          -0.2265  -18.7701  -45.8437 O.2       8 UNK        -0.5000 
     32 CA          1.7002  -17.7726  -44.8505 C.3       8 UNK         0.1400 
     33 CB          1.5933  -16.2759  -45.1291 C.3       8 UNK        -0.1800 
     34 N           2.4846  -17.9968  -43.6360 N.am      8 UNK        -0.5000 
     35 C           2.9155  -19.2008  -43.2365 C.2       7 UNK         0.5000 
     36 O           2.7130  -20.2402  -43.8640 O.2       7 UNK        -0.5000 
     37 CA          3.6099  -19.2607  -41.8639 C.3       7 UNK         0.1400 
     38 CB          5.0487  -18.7287  -41.9437 C.3       7 UNK        -0.1800 
     39 N           2.8655  -18.5387  -40.8264 N.am      7 UNK        -0.5000 
     40 C           1.6104  -18.8339  -40.4576 C.2       6 UNK         0.5000 
     41 O           0.9570  -19.7462  -40.9636 O.2       6 UNK        -0.5000 
     42 CA          0.9459  -17.9632  -39.3743 C.3       6 UNK         0.1400 
     43 CB          0.6998  -18.7958  -38.1069 C.3       6 UNK        -0.1800 
     44 N           1.7136  -16.7700  -39.0028 N.am      6 UNK        -0.5000 
     45 C           1.7688  -15.5821  -39.6237 C.2       5 UNK         0.5000 
     46 O           2.4213  -14.6545  -39.1429 O.2       5 UNK        -0.5000 
     47 CA          0.9928  -15.3473  -40.9449 C.3       5 UNK         0.1400 
     48 CB         -0.4506  -14.9013  -40.6627 C.3       5 UNK        -0.1800 
     49 N           1.6448  -14.3295  -41.7745 N.am      5 UNK        -0.5000 
     50 C           2.8528  -14.4737  -42.3380 C.2       4 UNK         0.5000 
     51 O           3.4458  -15.5544  -42.3579 O.2       4 UNK        -0.5000 
     52 CA          3.4950  -13.2257  -42.9823 C.3       4 UNK         0.1400 
     53 CB          4.4705  -13.5796  -44.1191 C.3       4 UNK        -0.1800 
     54 N           2.4886  -12.2976  -43.4986 N.am      4 UNK        -0.5000 
     55 C           2.1186  -11.1429  -42.9254 C.2       3 UNK         0.5000 
     56 O           2.6164  -10.7069  -41.8871 O.2       3 UNK        -0.5000 
     57 CA          0.9824  -10.3466  -43.6076 C.3       3 UNK         0.1400 
     58 CB          1.5634   -9.2427  -44.5038 C.3       3 UNK        -0.1800 
     59 N           0.0867  -11.1821  -44.4102 N.am      3 UNK        -0.5000 
     60 C          -0.6693  -12.1763  -43.9252 C.2       2 UNK         0.5000 
     61 O          -0.8133  -12.3824  -42.7206 O.2       2 UNK        -0.5000 
     62 CA         -1.3389  -13.1331  -44.9351 C.3       2 UNK         0.1400 
     63 CB         -2.8604  -12.9203  -44.9474 C.3       2 UNK        -0.1800 
     64 N          -0.8452  -13.0629  -46.3164 N.am      2 UNK        -0.5000 
     65 C           0.4194  -13.2271  -46.7379 C.2       1 UNK         0.5000 
     66 O           1.3773  -13.3675  -45.9784 O.2       1 UNK        -0.5000 
     67 C          -0.1141  -21.8618  -47.7786 C.2       11 UNK         0.5000 
     68 O          -0.2824  -22.6473  -48.7112 O.2       11 UNK        -0.5000 
     69 N          -1.0260  -20.9531  -47.4042 N.am      12 UNK        -0.5000 
     70 CA         -2.3442  -20.7935  -48.0119 C.3       12 UNK         0.1400 
     71 CB         -3.0306  -19.5371  -47.4591 C.3       12 UNK        -0.1800 
     72 C          -3.2345  -22.0308  -47.8264 C.2       12 UNK         0.5000 
     73 O          -3.8897  -22.4399  -48.7833 O.2       12 UNK        -0.5000 
     74 N          -3.2184  -22.6343  -46.6295 N.am      13 UNK        -0.5000 
     75 CA         -3.9276  -23.8779  -46.3166 C.3       13 UNK         0.1400 
     76 CB         -3.7925  -24.1990  -44.8215 C.3       13 UNK        -0.1800 
     77 C          -3.4630  -25.0658  -47.1803 C.2       13 UNK         0.5000 
     78 O          -4.3034  -25.8284  -47.6581 O.2       13 UNK        -0.5000 
     79 N          -2.1480  -25.1611  -47.4271 N.am      14 UNK        -0.5000 
     80 CA         -1.5411  -26.1305  -48.3454 C.3       14 UNK         0.1400 
     81 CB         -0.0147  -26.1122  -48.1741 C.3       14 UNK        -0.1800 
     82 C          -1.9352  -25.9049  -49.8217 C.2       14 UNK         0.5000 
     83 O          -1.9662  -26.8637  -50.5929 O.2       14 UNK        -0.5000 
     84 N          -2.2813  -24.6597  -50.1740 N.am      15 UNK        -0.5000 
     85 CA         -2.8405  -24.2473  -51.4636 C.3       15 UNK         0.1400 
     86 CB         -2.2897  -22.8533  -51.8137 C.3       15 UNK        -0.1800 
     87 C          -4.3873  -24.2820  -51.4703 C.2       15 UNK         0.5000 
     88 O          -5.0090  -23.5703  -52.2621 O.2       15 UNK        -0.5000 
     89 N          -4.9822  -25.0938  -50.5815 N.am      16 UNK        -0.5000 
     90 CA         -6.4173  -25.3444  -50.4109 C.3       16 UNK         0.1400 
     91 CB         -6.9908  -26.0761  -51.6421 C.3       16 UNK        -0.1800 
     92 C          -7.2092  -24.0788  -50.0238 C.2       16 UNK         0.5000 
     93 O          -8.2830  -23.8274  -50.5704 O.2       16 UNK        -0.5000 
     94 N          -6.6435  -23.3062  -49.0859 N.am      17 UNK        -0.5000 
     95 CA         -7.0948  -21.9894  -48.6207 C.3       17 UNK         0.1400 
     96 CB         -8.5064  -22.0496  -47.9995 C.3       17 UNK        -0.1800 
     97 C          -6.9412  -20.9189  -49.7202 C.2       17 UNK         0.5000 
     98 O          -7.8382  -20.0988  -49.9232 O.2       17 UNK        -0.5000 
     99 N          -5.7866  -20.9648  -50.4028 N.am      18 UNK        -0.5000 
    100 CA        -5.3588  -20.1050  -51.5098 C.3       18 UNK         0.1400 
    101 CB        -5.0669  -18.6788  -51.0009 C.3       18 UNK        -0.1800 
    102 C         -6.3331  -20.1300  -52.7056 C.2       18 UNK         0.5000 
    103 O         -6.6420  -19.0838  -53.2806 O.2       18 UNK        -0.5000 
    104 N         -6.7970  -21.3305  -53.0763 N.am      19 UNK        -0.5000 
    105 CA        -7.7594  -21.5684  -54.1553 C.3       19 UNK         0.1400 
    106 CB        -8.5083  -22.8820  -53.8755 C.3       19 UNK        -0.1800 
    107 C         -7.0805  -21.5559  -55.5400 C.2       19 UNK         0.5000 
    108 O         -7.1552  -22.5390  -56.2778 O.2       19 UNK        -0.5000 
    109 N         -6.3796  -20.4538  -55.8416 N.am      20 UNK        -0.5000 
    110 CA        -5.6020  -20.1452  -57.0517 C.3       20 UNK         0.1400 
    111 CB        -6.5056  -20.1394  -58.3001 C.3       20 UNK        -0.1800 
    112 C         -4.3472  -21.0181  -57.2767 C.2       20 UNK         0.5000 
    113 O         -3.5134  -20.6591  -58.1095 O.2       20 UNK        -0.5000 
    114 N         -4.2043  -22.1188  -56.5262 N.am      21 UNK        -0.5000 
    115 CA        -3.1281  -23.1078  -56.6248 C.3       21 UNK         0.1400 
    116 CB        -3.4251  -24.2577  -55.6496 C.3       21 UNK        -0.1800 
    117 C         -1.7160  -22.5422  -56.3806 C.2       21 UNK         0.5000 
    118 O         -0.7500  -23.0852  -56.9183 O.2       21 UNK        -0.5000 
    119 N         -1.6238  -21.4604  -55.5973 N.am      22 UNK        -0.5000 
    120 CA        -0.3877  -20.6986  -55.3711 C.3       22 UNK         0.1400 
    121 C         -0.0658  -19.6364  -56.4657 C.2       22 UNK         0.5000 
    122 N         -0.8956  -19.4437  -57.4852 N.am      22 UNK        -0.7600 
    123 O          0.9744  -18.9866  -56.4031 O.2       22 UNK        -0.5000 
    124 C124       -0.3242  -20.1264  -53.9340 C.3       23 UNK        -0.0398 
    125 S125       -1.6076  -18.8896  -53.5183 S.3       23 UNK        -0.2404 
    126 C126       -1.5562  -18.8756  -51.6920 C.3       23 UNK        -0.0205 
    127 H127       -2.1514   -9.7379  -48.9312 H         1 UNK         0.0600 
    128 H128       -2.0006  -10.9081  -50.2451 H         1 UNK         0.0600 
    129 H129       -0.9682   -9.4758  -50.2168 H         1 UNK         0.0600 
    130 H130       -0.9174  -12.7482  -49.6194 H         1 UNK         0.3000 
    131 H131        1.6380  -12.7352  -48.4203 H         1 UNK         0.0600 
    132 H132       -0.0911  -15.2554  -48.4210 H         1 UNK         0.0800 
    133 H133        0.3979  -14.5562  -49.9329 H         1 UNK         0.0800 
    134 H134        2.1644  -15.4263  -51.1758 H         1 UNK         0.0800 
    135 H135        3.5830  -16.2502  -50.5969 H         1 UNK         0.0800 
    136 H136       -0.0351  -16.6367  -51.2739 H         1 UNK         0.1150 
    137 H137        0.0571  -20.9020  -50.8912 H         1 UNK         0.1150 
    138 H138        3.5296  -18.5972  -49.9085 H         1 UNK         0.1150 
    139 H139        1.9497  -22.0450  -50.1477 H         1 UNK         0.0800 
    140 H140        3.3671  -21.3323  -50.8665 H         1 UNK         0.0800 
    141 H141        1.6300  -19.8767  -47.6469 H         1 UNK         0.0800 
    142 H142        2.6880  -20.4487  -46.4097 H         1 UNK         0.0800 
    143 H143        1.6650  -22.8789  -47.1680 H         1 UNK         0.0600 
    144 H144        1.2711  -21.2080  -44.9413 H         1 UNK         0.3000 
    145 H145       -1.0071  -23.2675  -43.1226 H         1 UNK         0.0600 
    146 H146        0.7910  -22.9779  -41.4374 H         1 UNK         0.0600 
    147 H147        1.2732  -24.1529  -42.6527 H         1 UNK         0.0600 
    148 H148        1.9366  -22.5243  -42.6958 H         1 UNK         0.0600 
    149 H149        0.1976  -20.7363  -42.5490 H         1 UNK         0.3000 
    150 H150       -2.2990  -18.6986  -44.1282 H         1 UNK         0.0600 
    151 H151       -3.1716  -19.1148  -41.8789 H         1 UNK         0.0600 
    152 H152       -2.1715  -17.6714  -41.8435 H         1 UNK         0.0600 
    153 H153       -1.5583  -19.1937  -41.1968 H         1 UNK         0.0600 
    154 H154        0.2137  -18.2011  -42.7807 H         1 UNK         0.3000 
    155 H155        2.2323  -18.2285  -45.6867 H         1 UNK         0.0600 
    156 H156        1.0843  -15.7450  -44.3247 H         1 UNK         0.0600 
    157 H157        2.5777  -15.8329  -45.2679 H         1 UNK         0.0600 
    158 H158        1.0281  -16.0985  -46.0442 H         1 UNK         0.0600 
    159 H159        2.7464  -17.1775  -43.0934 H         1 UNK         0.3000 
    160 H160        3.6555  -20.3106  -41.5666 H         1 UNK         0.0600 
    161 H161        5.0780  -17.6706  -42.2043 H         1 UNK         0.0600 
    162 H162        5.6216  -19.2678  -42.6992 H         1 UNK         0.0600 
    163 H163        5.5677  -18.8537  -40.9933 H         1 UNK         0.0600 
    164 H164        3.3380  -17.7660  -40.3797 H         1 UNK         0.3000 
    165 H165       -0.0286  -17.6622  -39.7587 H         1 UNK         0.0600 
    166 H166        0.1641  -18.2183  -37.3532 H         1 UNK         0.0600 
    167 H167        0.0950  -19.6771  -38.3260 H         1 UNK         0.0600 
    168 H168        1.6345  -19.1417  -37.6637 H         1 UNK         0.0600 
    169 H169        2.2439  -16.8647  -38.1490 H         1 UNK         0.3000 
    170 H170        0.9646  -16.2700  -41.5236 H         1 UNK         0.0600 
    171 H171       -0.4804  -13.9161  -40.1955 H         1 UNK         0.0600 
    172 H172       -1.0313  -14.8522  -41.5838 H         1 UNK         0.0600 
    173 H173       -0.9670  -15.5906  -39.9950 H         1 UNK         0.0600 
    174 H174        1.2040  -13.4204  -41.8018 H         1 UNK         0.3000 
    175 H175        4.0772  -12.7467  -42.1930 H         1 UNK         0.0600 
    176 H176        4.9768  -12.6877  -44.4882 H         1 UNK         0.0600 
    177 H177        3.9582  -14.0395  -44.9633 H         1 UNK         0.0600 
    178 H178        5.2437  -14.2710  -43.7818 H         1 UNK         0.0600 
    179 H179        2.0199  -12.5930  -44.3524 H         1 UNK         0.3000 
    180 H180        0.3897   -9.8764  -42.8204 H         1 UNK         0.0600 
    181 H181        2.1450   -9.6596  -45.3272 H         1 UNK         0.0600 
    182 H182        2.2210   -8.5827  -43.9364 H         1 UNK         0.0600 
    183 H183        0.7734   -8.6250  -44.9314 H         1 UNK         0.0600 
    184 H184        0.1591  -11.0859  -45.4138 H         1 UNK         0.3000 
    185 H185       -1.1408  -14.1459  -44.5784 H         1 UNK         0.0600 
    186 H186       -3.3596  -13.6676  -45.5646 H         1 UNK         0.0600 
    187 H187       -3.2775  -13.0026  -43.9427 H         1 UNK         0.0600 
    188 H188       -3.1236  -11.9342  -45.3324 H         1 UNK         0.0600 
    189 H189       -1.5490  -12.9091  -47.0236 H         1 UNK         0.3000 
    190 H190       -0.7875  -20.2908  -46.6690 H         1 UNK         0.3000 
    191 H191       -2.1977  -20.6528  -49.0836 H         1 UNK         0.0600 
    192 H192       -2.4572  -18.6407  -47.6963 H         1 UNK         0.0600 
    193 H193       -4.0257  -19.4121  -47.8875 H         1 UNK         0.0600 
    194 H194       -3.1446  -19.5838  -46.3761 H         1 UNK         0.0600 
    195 H195       -2.7027  -22.2004  -45.8686 H         1 UNK         0.3000 
    196 H196       -4.9860  -23.7123  -46.5270 H         1 UNK         0.0600 
    197 H197       -4.3514  -25.0996  -44.5643 H         1 UNK         0.0600 
    198 H198       -4.1833  -23.3878  -44.2070 H         1 UNK         0.0600 
    199 H199       -2.7545  -24.3655  -44.5357 H         1 UNK         0.0600 
    200 H200       -1.5164  -24.5163  -46.9624 H         1 UNK         0.3000 
    201 H201       -1.8987  -27.1225  -48.0620 H         1 UNK         0.0600 
    202 H202        0.2688  -26.3217  -47.1425 H         1 UNK         0.0600 
    203 H203        0.4129  -25.1482  -48.4480 H         1 UNK         0.0600 
    204 H204        0.4570  -26.8690  -48.8019 H         1 UNK         0.0600 
    205 H205       -2.2222  -23.9350  -49.4698 H         1 UNK         0.3000 
    206 H206       -2.5082  -24.9386  -52.2402 H         1 UNK         0.0600 
    207 H207       -1.2001  -22.8602  -51.8317 H         1 UNK         0.0600 
    208 H208       -2.6273  -22.5224  -52.7961 H         1 UNK         0.0600 
    209 H209       -2.6053  -22.1053  -51.0883 H         1 UNK         0.0600 
    210 H210       -4.3861  -25.5848  -49.9280 H         1 UNK         0.3000 
    211 H211       -6.5076  -26.0221  -49.5607 H         1 UNK         0.0600 
    212 H212       -6.9366  -25.4629  -52.5408 H         1 UNK         0.0600 
    213 H213       -8.0372  -26.3426  -51.4892 H         1 UNK         0.0600 
    214 H214       -6.4472  -27.0005  -51.8369 H         1 UNK         0.0600 
    215 H215       -5.7158  -23.5677  -48.7759 H         1 UNK         0.3000 
    216 H216       -6.4093  -21.7002  -47.8231 H         1 UNK         0.0600 
    217 H217       -8.7565  -21.1044  -47.5165 H         1 UNK         0.0600 
    218 H218       -8.5703  -22.8288  -47.2401 H         1 UNK         0.0600 
    219 H219       -9.2763  -22.2432  -48.7466 H         1 UNK         0.0600 
    220 H220       -5.1219  -21.6784  -50.1211 H         1 UNK         0.3000 
    221 H221       -4.4216  -20.5227  -51.8790 H         1 UNK         0.0600 
    222 H222       -5.9692  -18.1860  -50.6378 H         1 UNK         0.0600 
    223 H223       -4.3416  -18.6906  -50.1884 H         1 UNK         0.0600 
    224 H224       -4.6525  -18.0572  -51.7955 H         1 UNK         0.0600 
    225 H225       -6.4252  -22.1542  -52.6123 H         1 UNK         0.3000 
    226 H226       -8.4987  -20.7647  -54.1543 H         1 UNK         0.0600 
    227 H227       -9.0420  -22.8341  -52.9268 H         1 UNK         0.0600 
    228 H228       -9.2482  -23.0870  -54.6501 H         1 UNK         0.0600 
    229 H229       -7.8257  -23.7307  -53.8369 H         1 UNK         0.0600 
    230 H230       -6.3694  -19.7300  -55.1282 H         1 UNK         0.3000 
    231 H231       -5.2343  -19.1279  -56.9098 H         1 UNK         0.0600 
    232 H232       -6.8803  -21.1354  -58.5370 H         1 UNK         0.0600 
    233 H233       -5.9599  -19.7827  -59.1746 H         1 UNK         0.0600 
    234 H234       -7.3633  -19.4809  -58.1635 H         1 UNK         0.0600 
    235 H235       -4.9710  -22.3546  -55.9115 H         1 UNK         0.3000 
    236 H236       -3.1447  -23.5076  -57.6406 H         1 UNK         0.0600 
    237 H237       -4.3760  -24.7373  -55.8828 H         1 UNK         0.0600 
    238 H238       -2.6528  -25.0264  -55.7003 H         1 UNK         0.0600 
    239 H239       -3.4732  -23.9069  -54.6190 H         1 UNK         0.0600 
    240 H240       -2.4681  -21.0635  -55.2132 H         1 UNK         0.3000 
    241 H241        0.4424  -21.4046  -55.4359 H         1 UNK         0.0600 
    242 H242       -1.7544  -19.9756  -57.5830 H         1 UNK         0.3800 
    243 H243       -0.6602  -18.7578  -58.1845 H         1 UNK         0.3800 
    244 H244       -0.4058  -20.9556  -53.2323 H         1 UNK         0.0800 
    245 H245        0.6552  -19.6798  -53.7533 H         1 UNK         0.0800 
    246 H246       -2.0448  -19.7747  -51.3183 H         1 UNK         0.0800 
    247 H247       -2.1459  -18.0337  -51.3280 H         1 UNK         0.0800 
@<TRIPOS>BOND
     1    1    2 1    
     2    1  127 1    
     3    1  128 1    
     4    1  129 1    
     5    2    3 2    
     6    2    4 am   BACKBONE|DICT|INTERRES
     7    4    5 1    
     8    4  130 1    
     9    5    6 1    
    10    5   65 1    
    11    5  131 1    
    12    6    7 1    
    13    6  132 1    
    14    6  133 1    
    15    7    8 1    
    16    8    9 1    
    17    8  134 1    
    18    8  135 1    
    19    9   10 ar   
    20    9   14 ar   
    21   10   11 ar   
    22   10  136 1    
    23   11   12 ar   
    24   11  126 1    
    25   12   13 ar   
    26   12  137 1    
    27   13   14 ar   
    28   13   15 1    
    29   14  138 1    
    30   15   16 1    
    31   15  139 1    
    32   15  140 1    
    33   16   17 1    
    34   17   18 1    
    35   17  141 1    
    36   17  142 1    
    37   18   19 1    
    38   18   67 1    
    39   18  143 1    
    40   19   20 am   BACKBONE|DICT|INTERRES
    41   19  144 1    
    42   20   21 2    
    43   20   22 1    
    44   22   23 1    
    45   22   24 1    
    46   22  145 1    
    47   23  146 1    
    48   23  147 1    
    49   23  148 1    
    50   24   25 am   BACKBONE|DICT|INTERRES
    51   24  149 1    
    52   25   26 2    
    53   25   27 1    
    54   27   28 1    
    55   27   29 1    
    56   27  150 1    
    57   28  151 1    
    58   28  152 1    
    59   28  153 1    
    60   29   30 am   BACKBONE|DICT|INTERRES
    61   29  154 1    
    62   30   31 2    
    63   30   32 1    
    64   32   33 1    
    65   32   34 1    
    66   32  155 1    
    67   33  156 1    
    68   33  157 1    
    69   33  158 1    
    70   34   35 am   BACKBONE|DICT|INTERRES
    71   34  159 1    
    72   35   36 2    
    73   35   37 1    
    74   37   38 1    
    75   37   39 1    
    76   37  160 1    
    77   38  161 1    
    78   38  162 1    
    79   38  163 1    
    80   39   40 am   BACKBONE|DICT|INTERRES
    81   39  164 1    
    82   40   41 2    
    83   40   42 1    
    84   42   43 1    
    85   42   44 1    
    86   42  165 1    
    87   43  166 1    
    88   43  167 1    
    89   43  168 1    
    90   44   45 am   BACKBONE|DICT|INTERRES
    91   44  169 1    
    92   45   46 2    
    93   45   47 1    
    94   47   48 1    
    95   47   49 1    
    96   47  170 1    
    97   48  171 1    
    98   48  172 1    
    99   48  173 1    
   100   49   50 am   BACKBONE|DICT|INTERRES
   101   49  174 1    
   102   50   51 2    
   103   50   52 1    
   104   52   53 1    
   105   52   54 1    
   106   52  175 1    
   107   53  176 1    
   108   53  177 1    
   109   53  178 1    
   110   54   55 am   BACKBONE|DICT|INTERRES
   111   54  179 1    
   112   55   56 2    
   113   55   57 1    
   114   57   58 1    
   115   57   59 1    
   116   57  180 1    
   117   58  181 1    
   118   58  182 1    
   119   58  183 1    
   120   59   60 am   BACKBONE|DICT|INTERRES
   121   59  184 1    
   122   60   61 2    
   123   60   62 1    
   124   62   63 1    
   125   62   64 1    
   126   62  185 1    
   127   63  186 1    
   128   63  187 1    
   129   63  188 1    
   130   64   65 am   BACKBONE|DICT|INTERRES
   131   64  189 1    
   132   65   66 2    
   133   67   68 2    
   134   67   69 am   BACKBONE|DICT|INTERRES
   135   69   70 1    
   136   69  190 1    
   137   70   71 1    
   138   70   72 1    
   139   70  191 1    
   140   71  192 1    
   141   71  193 1    
   142   71  194 1    
   143   72   73 2    
   144   72   74 am   BACKBONE|DICT|INTERRES
   145   74   75 1    
   146   74  195 1    
   147   75   76 1    
   148   75   77 1    
   149   75  196 1    
   150   76  197 1    
   151   76  198 1    
   152   76  199 1    
   153   77   78 2    
   154   77   79 am   BACKBONE|DICT|INTERRES
   155   79   80 1    
   156   79  200 1    
   157   80   81 1    
   158   80   82 1    
   159   80  201 1    
   160   81  202 1    
   161   81  203 1    
   162   81  204 1    
   163   82   83 2    
   164   82   84 am   BACKBONE|DICT|INTERRES
   165   84   85 1    
   166   84  205 1    
   167   85   86 1    
   168   85   87 1    
   169   85  206 1    
   170   86  207 1    
   171   86  208 1    
   172   86  209 1    
   173   87   88 2    
   174   87   89 am   BACKBONE|DICT|INTERRES
   175   89   90 1    
   176   89  210 1    
   177   90   91 1    
   178   90   92 1    
   179   90  211 1    
   180   91  212 1    
   181   91  213 1    
   182   91  214 1    
   183   92   93 2    
   184   92   94 am   BACKBONE|DICT|INTERRES
   185   94   95 1    
   186   94  215 1    
   187   95   96 1    
   188   95   97 1    
   189   95  216 1    
   190   96  217 1    
   191   96  218 1    
   192   96  219 1    
   193   97   98 2    
   194   97   99 am   BACKBONE|DICT|INTERRES
   195   99  100 1    
   196   99  220 1    
   197  100  101 1    
   198  100  102 1    
   199  100  221 1    
   200  101  222 1    
   201  101  223 1    
   202  101  224 1    
   203  102  103 2    
   204  102  104 am   BACKBONE|DICT|INTERRES
   205  104  105 1    
   206  104  225 1    
   207  105  106 1    
   208  105  107 1    
   209  105  226 1    
   210  106  227 1    
   211  106  228 1    
   212  106  229 1    
   213  107  108 2    
   214  107  109 am   BACKBONE|DICT|INTERRES
   215  109  110 1    
   216  109  230 1    
   217  110  111 1    
   218  110  112 1    
   219  110  231 1    
   220  111  232 1    
   221  111  233 1    
   222  111  234 1    
   223  112  113 2    
   224  112  114 am   BACKBONE|DICT|INTERRES
   225  114  115 1    
   226  114  235 1    
   227  115  116 1    
   228  115  117 1    
   229  115  236 1    
   230  116  237 1    
   231  116  238 1    
   232  116  239 1    
   233  117  118 2    
   234  117  119 am   BACKBONE|DICT|INTERRES
   235  119  120 1    
   236  119  240 1    
   237  120  121 1    
   238  120  124 1    
   239  120  241 1    
   240  121  122 am   BACKBONE|DICT|INTERRES
   241  121  123 2    
   242  122  242 1    
   243  122  243 1    
   244  124  125 1    
   245  124  244 1    
   246  124  245 1    
   247  125  126 1    
   248  126  246 1    
   249  126  247 1    
@<TRIPOS>SUBSTRUCTURE
     1 UNK         1 GROUP             0       ****    0 ROOT    
