@<TRIPOS>MOLECULE
3R540
247   249    1
SMALL
USER_CHARGES


@<TRIPOS>ATOM
      1 CA         -2.1717  -11.5234  -48.4820 C.3       0 UNK        -0.1800 
      2 C          -1.6224  -12.6430  -47.6114 C.2       0 UNK         0.5000 
      3 O          -2.1142  -12.8472  -46.5009 O.2       0 UNK        -0.5000 
      4 N          -0.6217  -13.3778  -48.1199 N.am      1 UNK        -0.5000 
      5 CA          0.0980  -14.4863  -47.4679 C.3       1 UNK         0.1400 
      6 C6          1.1428  -15.1510  -48.4097 C.3       23 UNK        -0.0398 
      7 S7          0.5318  -15.5054  -50.1007 S.3       23 UNK        -0.2404 
      8 C8         -0.1500  -17.1858  -49.9402 C.3       23 UNK        -0.0205 
      9 C9          0.6803  -18.2209  -50.6784 C.ar      23 UNK        -0.0193 
     10 C10         0.4839  -18.4301  -52.0443 C.ar      23 UNK        -0.1150 
     11 C11         1.1769  -19.4394  -52.7194 C.ar      23 UNK        -0.0193 
     12 C12         2.0581  -20.2578  -52.0063 C.ar      23 UNK        -0.1150 
     13 C13         2.2535  -20.0665  -50.6360 C.ar      23 UNK        -0.0193 
     14 C14         1.5885  -19.0216  -49.9853 C.ar      23 UNK        -0.1150 
     15 C15         3.1508  -21.0122  -49.8508 C.3       23 UNK        -0.0205 
     16 S16         2.2781  -22.5143  -49.2626 S.3       23 UNK        -0.2404 
     17 C17         0.7484  -21.8816  -48.4735 C.3       23 UNK        -0.0398 
     18 CA          0.8979  -21.4258  -46.9948 C.3       11 UNK         0.1400 
     19 N           2.1082  -20.6384  -46.7603 N.am      11 UNK        -0.5000 
     20 C           2.5822  -20.2759  -45.5643 C.2       10 UNK         0.5000 
     21 O           2.0837  -20.6351  -44.4936 O.2       10 UNK        -0.5000 
     22 CA          3.8269  -19.3714  -45.5812 C.3       10 UNK         0.1400 
     23 CB          3.6196  -18.1190  -46.4552 C.3       10 UNK        -0.1800 
     24 N           4.1295  -18.9790  -44.2124 N.am      10 UNK        -0.5000 
     25 C           5.3371  -18.7160  -43.7048 C.2       9 UNK         0.5000 
     26 O           6.3684  -18.6652  -44.3761 O.2       9 UNK        -0.5000 
     27 CA          5.4080  -18.5156  -42.1789 C.3       9 UNK         0.1400 
     28 CB          5.2388  -17.0383  -41.7933 C.3       9 UNK        -0.1800 
     29 N           4.4019  -19.3199  -41.4818 N.am      9 UNK        -0.5000 
     30 C           4.5399  -20.6252  -41.2120 C.2       8 UNK         0.5000 
     31 O           5.5667  -21.2573  -41.4673 O.2       8 UNK        -0.5000 
     32 CA          3.3391  -21.3660  -40.5817 C.3       8 UNK         0.1400 
     33 CB          3.7791  -22.3652  -39.4914 C.3       8 UNK        -0.1800 
     34 N           2.2604  -20.5034  -40.0853 N.am      8 UNK        -0.5000 
     35 C           2.2923  -19.6089  -39.0880 C.2       7 UNK         0.5000 
     36 O           3.3065  -19.3461  -38.4400 O.2       7 UNK        -0.5000 
     37 CA          0.9627  -18.8775  -38.7838 C.3       7 UNK         0.1400 
     38 CB          1.1366  -17.7265  -37.7764 C.3       7 UNK        -0.1800 
     39 N           0.3173  -18.3463  -39.9878 N.am      7 UNK        -0.5000 
     40 C          -0.3483  -19.0545  -40.9106 C.2       6 UNK         0.5000 
     41 O          -0.5257  -20.2702  -40.8301 O.2       6 UNK        -0.5000 
     42 CA         -0.8763  -18.2947  -42.1429 C.3       6 UNK         0.1400 
     43 CB         -2.3767  -18.0134  -41.9844 C.3       6 UNK        -0.1800 
     44 N          -0.1875  -17.0326  -42.4236 N.am      6 UNK        -0.5000 
     45 C           1.1099  -16.9032  -42.7398 C.2       5 UNK         0.5000 
     46 O           1.9008  -17.8469  -42.7502 O.2       5 UNK        -0.5000 
     47 CA          1.6132  -15.4827  -43.0598 C.3       5 UNK         0.1400 
     48 CB          2.5697  -15.4495  -44.2641 C.3       5 UNK        -0.1800 
     49 N           0.5031  -14.5653  -43.3205 N.am      5 UNK        -0.5000 
     50 C           0.2494  -13.4506  -42.6250 C.2       4 UNK         0.5000 
     51 O           0.9162  -13.0784  -41.6589 O.2       4 UNK        -0.5000 
     52 CA         -0.9450  -12.5952  -43.0823 C.3       4 UNK         0.1400 
     53 CB         -0.4640  -11.4766  -44.0195 C.3       4 UNK        -0.1800 
     54 N          -2.0086  -13.3513  -43.7479 N.am      4 UNK        -0.5000 
     55 C          -2.8466  -14.1940  -43.1274 C.2       3 UNK         0.5000 
     56 O          -2.7220  -14.5296  -41.9499 O.2       3 UNK        -0.5000 
     57 CA         -4.0154  -14.7561  -43.9526 C.3       3 UNK         0.1400 
     58 CB         -5.1067  -13.6908  -44.1416 C.3       3 UNK        -0.1800 
     59 N          -3.5591  -15.2124  -45.2622 N.am      3 UNK        -0.5000 
     60 C          -3.6239  -16.4771  -45.6987 C.2       2 UNK         0.5000 
     61 O          -4.1586  -17.3945  -45.0745 O.2       2 UNK        -0.5000 
     62 CA         -2.9715  -16.7884  -47.0610 C.3       2 UNK         0.1400 
     63 CB         -4.0320  -16.8871  -48.1669 C.3       2 UNK        -0.1800 
     64 N          -1.9579  -15.8218  -47.4792 N.am      2 UNK        -0.5000 
     65 C          -0.8170  -15.5522  -46.8307 C.2       1 UNK         0.5000 
     66 O          -0.4953  -16.0622  -45.7580 O.2       1 UNK        -0.5000 
     67 C          -0.3399  -20.6097  -46.5664 C.2       11 UNK         0.5000 
     68 O          -0.5404  -19.5087  -47.0826 O.2       11 UNK        -0.5000 
     69 N          -1.1385  -21.1538  -45.6428 N.am      12 UNK        -0.5000 
     70 CA         -2.4041  -20.5668  -45.2049 C.3       12 UNK         0.1400 
     71 CB         -2.7973  -21.2111  -43.8654 C.3       12 UNK        -0.1800 
     72 C          -3.5180  -20.7937  -46.2433 C.2       12 UNK         0.5000 
     73 O          -3.3913  -21.6666  -47.1046 O.2       12 UNK        -0.5000 
     74 N          -4.6321  -20.0646  -46.0904 N.am      13 UNK        -0.5000 
     75 CA         -5.8621  -20.1957  -46.8846 C.3       13 UNK         0.1400 
     76 CB         -6.9029  -19.1919  -46.3645 C.3       13 UNK        -0.1800 
     77 C          -6.4639  -21.6169  -46.9038 C.2       13 UNK         0.5000 
     78 O          -7.1332  -21.9786  -47.8713 O.2       13 UNK        -0.5000 
     79 N          -6.1665  -22.4145  -45.8676 N.am      14 UNK        -0.5000 
     80 CA         -6.4829  -23.8403  -45.7572 C.3       14 UNK         0.1400 
     81 CB         -6.0565  -24.3311  -44.3652 C.3       14 UNK        -0.1800 
     82 C          -5.8456  -24.7194  -46.8563 C.2       14 UNK         0.5000 
     83 O          -6.3503  -25.8130  -47.1123 O.2       14 UNK        -0.5000 
     84 N          -4.7766  -24.2305  -47.5060 N.am      15 UNK        -0.5000 
     85 CA         -4.1540  -24.8565  -48.6757 C.3       15 UNK         0.1400 
     86 CB         -2.7451  -24.2728  -48.8648 C.3       15 UNK        -0.1800 
     87 C          -4.9947  -24.7032  -49.9635 C.2       15 UNK         0.5000 
     88 O          -4.7163  -25.3948  -50.9446 O.2       15 UNK        -0.5000 
     89 N          -6.0077  -23.8206  -49.9351 N.am      16 UNK        -0.5000 
     90 CA         -7.0297  -23.5887  -50.9566 C.3       16 UNK         0.1400 
     91 CB         -8.0275  -24.7680  -50.9760 C.3       16 UNK        -0.1800 
     92 C          -6.4174  -23.2576  -52.3303 C.2       16 UNK         0.5000 
     93 O          -5.7975  -22.2022  -52.4734 O.2       16 UNK        -0.5000 
     94 N          -6.5724  -24.1668  -53.3024 N.am      17 UNK        -0.5000 
     95 CA         -6.0720  -24.0546  -54.6729 C.3       17 UNK         0.1400 
     96 CB         -6.4674  -25.3143  -55.4573 C.3       17 UNK        -0.1800 
     97 C          -4.5539  -23.8158  -54.7714 C.2       17 UNK         0.5000 
     98 O          -4.1168  -23.0982  -55.6700 O.2       17 UNK        -0.5000 
     99 N          -3.7826  -24.3822  -53.8322 N.am      18 UNK        -0.5000 
    100 CA        -2.3318  -24.2098  -53.7592 C.3       18 UNK         0.1400 
    101 CB        -1.7346  -25.2746  -52.8294 C.3       18 UNK        -0.1800 
    102 C         -1.9113  -22.7942  -53.3213 C.2       18 UNK         0.5000 
    103 O         -0.8525  -22.3342  -53.7447 O.2       18 UNK        -0.5000 
    104 N         -2.7456  -22.1207  -52.5152 N.am      19 UNK        -0.5000 
    105 CA        -2.5574  -20.7183  -52.1401 C.3       19 UNK         0.1400 
    106 CB        -3.2205  -20.4425  -50.7803 C.3       19 UNK        -0.1800 
    107 C         -3.1064  -19.7760  -53.2264 C.2       19 UNK         0.5000 
    108 O         -2.4790  -18.7613  -53.5296 O.2       19 UNK        -0.5000 
    109 N         -4.2537  -20.1391  -53.8185 N.am      20 UNK        -0.5000 
    110 CA        -4.9214  -19.3824  -54.8815 C.3       20 UNK         0.1400 
    111 CB        -6.3027  -19.9952  -55.1498 C.3       20 UNK        -0.1800 
    112 C         -4.1100  -19.2954  -56.1894 C.2       20 UNK         0.5000 
    113 O         -4.2439  -18.3093  -56.9154 O.2       20 UNK        -0.5000 
    114 N         -3.2645  -20.3033  -56.4527 N.am      21 UNK        -0.5000 
    115 CA        -2.3860  -20.4176  -57.6226 C.3       21 UNK         0.1400 
    116 CB        -1.5907  -21.7288  -57.5193 C.3       21 UNK        -0.1800 
    117 C         -1.4204  -19.2328  -57.8342 C.2       21 UNK         0.5000 
    118 O         -1.0261  -18.9745  -58.9723 O.2       21 UNK        -0.5000 
    119 N         -1.0696  -18.5329  -56.7492 N.am      22 UNK        -0.5000 
    120 CA        -0.2473  -17.3129  -56.7654 C.3       22 UNK         0.1400 
    121 C         -1.0581  -16.0132  -57.0528 C.2       22 UNK         0.5000 
    122 N         -2.3790  -16.0521  -57.1897 N.am      22 UNK        -0.7600 
    123 O         -0.4723  -14.9403  -57.1707 O.2       22 UNK        -0.5000 
    124 C124        0.5922  -17.1776  -55.4692 C.3       23 UNK        -0.0398 
    125 S125        1.8113  -18.5258  -55.2760 S.3       23 UNK        -0.2404 
    126 C126        0.9280  -19.6970  -54.1985 C.3       23 UNK        -0.0205 
    127 H127       -3.2320  -11.6857  -48.6747 H         1 UNK         0.0600 
    128 H128       -1.6556  -11.4637  -49.4405 H         1 UNK         0.0600 
    129 H129       -2.0589  -10.5661  -47.9734 H         1 UNK         0.0600 
    130 H130       -0.2974  -13.1652  -49.0531 H         1 UNK         0.3000 
    131 H131        0.6484  -14.0363  -46.6392 H         1 UNK         0.0600 
    132 H132        1.5639  -16.0579  -47.9710 H         1 UNK         0.0800 
    133 H133        1.9899  -14.4729  -48.5204 H         1 UNK         0.0800 
    134 H134       -1.1663  -17.1894  -50.3370 H         1 UNK         0.0800 
    135 H135       -0.2403  -17.4713  -48.8925 H         1 UNK         0.0800 
    136 H136       -0.2359  -17.8206  -52.5675 H         1 UNK         0.1150 
    137 H137        2.5700  -21.0649  -52.5115 H         1 UNK         0.1150 
    138 H138        1.7212  -18.8683  -48.9248 H         1 UNK         0.1150 
    139 H139        3.9821  -21.3276  -50.4832 H         1 UNK         0.0800 
    140 H140        3.6115  -20.4902  -49.0132 H         1 UNK         0.0800 
    141 H141        0.3134  -21.1047  -49.1003 H         1 UNK         0.0800 
    142 H142        0.0178  -22.6913  -48.5129 H         1 UNK         0.0800 
    143 H143        0.9692  -22.3209  -46.3731 H         1 UNK         0.0600 
    144 H144        2.5753  -20.3115  -47.5895 H         1 UNK         0.3000 
    145 H145        4.6595  -19.9573  -45.9758 H         1 UNK         0.0600 
    146 H146        2.6566  -17.6504  -46.2535 H         1 UNK         0.0600 
    147 H147        4.3990  -17.3759  -46.2860 H         1 UNK         0.0600 
    148 H148        3.6456  -18.3693  -47.5153 H         1 UNK         0.0600 
    149 H149        3.3246  -18.9890  -43.5907 H         1 UNK         0.3000 
    150 H150        6.4027  -18.8284  -41.8543 H         1 UNK         0.0600 
    151 H151        5.9368  -16.4061  -42.3435 H         1 UNK         0.0600 
    152 H152        5.4320  -16.8886  -40.7310 H         1 UNK         0.0600 
    153 H153        4.2330  -16.6772  -41.9991 H         1 UNK         0.0600 
    154 H154        3.5132  -18.8776  -41.2916 H         1 UNK         0.3000 
    155 H155        2.8973  -21.9445  -41.3943 H         1 UNK         0.0600 
    156 H156        2.9239  -22.9003  -39.0783 H         1 UNK         0.0600 
    157 H157        4.2929  -21.8668  -38.6691 H         1 UNK         0.0600 
    158 H158        4.4615  -23.1138  -39.8955 H         1 UNK         0.0600 
    159 H159        1.3638  -20.6218  -40.5487 H         1 UNK         0.3000 
    160 H160        0.2948  -19.6137  -38.3320 H         1 UNK         0.0600 
    161 H161        1.8056  -16.9547  -38.1594 H         1 UNK         0.0600 
    162 H162        1.5536  -18.0872  -36.8353 H         1 UNK         0.0600 
    163 H163        0.1803  -17.2572  -37.5446 H         1 UNK         0.0600 
    164 H164        0.4331  -17.3579  -40.1548 H         1 UNK         0.3000 
    165 H165       -0.7328  -18.9429  -43.0097 H         1 UNK         0.0600 
    166 H166       -2.5735  -17.3450  -41.1452 H         1 UNK         0.0600 
    167 H167       -2.7843  -17.5506  -42.8806 H         1 UNK         0.0600 
    168 H168       -2.9358  -18.9331  -41.8098 H         1 UNK         0.0600 
    169 H169       -0.7549  -16.1972  -42.4025 H         1 UNK         0.3000 
    170 H170        2.1769  -15.1658  -42.1805 H         1 UNK         0.0600 
    171 H171        3.4045  -16.1376  -44.1377 H         1 UNK         0.0600 
    172 H172        2.0594  -15.7173  -45.1872 H         1 UNK         0.0600 
    173 H173        2.9923  -14.4538  -44.3980 H         1 UNK         0.0600 
    174 H174       -0.1017  -14.8215  -44.0933 H         1 UNK         0.3000 
    175 H175       -1.3729  -12.1289  -42.1923 H         1 UNK         0.0600 
    176 H176       -0.0057  -11.8795  -44.9235 H         1 UNK         0.0600 
    177 H177       -1.2889  -10.8307  -44.3210 H         1 UNK         0.0600 
    178 H178        0.2790  -10.8471  -43.5283 H         1 UNK         0.0600 
    179 H179       -2.1548  -13.1324  -44.7314 H         1 UNK         0.3000 
    180 H180       -4.4467  -15.5823  -43.3834 H         1 UNK         0.0600 
    181 H181       -4.7446  -12.8382  -44.7177 H         1 UNK         0.0600 
    182 H182       -5.4575  -13.3147  -43.1797 H         1 UNK         0.0600 
    183 H183       -5.9698  -14.1038  -44.6639 H         1 UNK         0.0600 
    184 H184       -3.0845  -14.5271  -45.8396 H         1 UNK         0.3000 
    185 H185       -2.4832  -17.7589  -46.9692 H         1 UNK         0.0600 
    186 H186       -4.7866  -17.6325  -47.9225 H         1 UNK         0.0600 
    187 H187       -4.5457  -15.9368  -48.3169 H         1 UNK         0.0600 
    188 H188       -3.5859  -17.1832  -49.1165 H         1 UNK         0.0600 
    189 H189       -2.1416  -15.3185  -48.3347 H         1 UNK         0.3000 
    190 H190       -0.9182  -22.0675  -45.2754 H         1 UNK         0.3000 
    191 H191       -2.2691  -19.4931  -45.0578 H         1 UNK         0.0600 
    192 H192       -3.6964  -20.7501  -43.4548 H         1 UNK         0.0600 
    193 H193       -2.0083  -21.0952  -43.1226 H         1 UNK         0.0600 
    194 H194       -2.9956  -22.2783  -43.9739 H         1 UNK         0.0600 
    195 H195       -4.6296  -19.3162  -45.4039 H         1 UNK         0.3000 
    196 H196       -5.6144  -19.9384  -47.9161 H         1 UNK         0.0600 
    197 H197       -7.8189  -19.2364  -46.9552 H         1 UNK         0.0600 
    198 H198       -6.5352  -18.1677  -46.4172 H         1 UNK         0.0600 
    199 H199       -7.1708  -19.3952  -45.3270 H         1 UNK         0.0600 
    200 H200       -5.6135  -22.0216  -45.1211 H         1 UNK         0.3000 
    201 H201       -7.5660  -23.9465  -45.8441 H         1 UNK         0.0600 
    202 H202       -6.5643  -23.7750  -43.5769 H         1 UNK         0.0600 
    203 H203       -4.9815  -24.2248  -44.2138 H         1 UNK         0.0600 
    204 H204       -6.3046  -25.3846  -44.2285 H         1 UNK         0.0600 
    205 H205       -4.4054  -23.3219  -47.2416 H         1 UNK         0.3000 
    206 H206       -4.0519  -25.9251  -48.4759 H         1 UNK         0.0600 
    207 H207       -2.1808  -24.2864  -47.9321 H         1 UNK         0.0600 
    208 H208       -2.1763  -24.8528  -49.5897 H         1 UNK         0.0600 
    209 H209       -2.7795  -23.2433  -49.2199 H         1 UNK         0.0600 
    210 H210       -6.1376  -23.2768  -49.0893 H         1 UNK         0.3000 
    211 H211       -7.5782  -22.6977  -50.6480 H         1 UNK         0.0600 
    212 H212       -7.5454  -25.7146  -51.2231 H         1 UNK         0.0600 
    213 H213       -8.8276  -24.5982  -51.6978 H         1 UNK         0.0600 
    214 H214       -8.4992  -24.8883  -50.0005 H         1 UNK         0.0600 
    215 H215       -7.0680  -25.0169  -53.0768 H         1 UNK         0.3000 
    216 H216       -6.5725  -23.2019  -55.1322 H         1 UNK         0.0600 
    217 H217       -6.0295  -26.2133  -55.0217 H         1 UNK         0.0600 
    218 H218       -6.1288  -25.2522  -56.4925 H         1 UNK         0.0600 
    219 H219       -7.5497  -25.4433  -55.4785 H         1 UNK         0.0600 
    220 H220       -4.2197  -24.9215  -53.0937 H         1 UNK         0.3000 
    221 H221       -1.9215  -24.3734  -54.7582 H         1 UNK         0.0600 
    222 H222       -2.1415  -25.1989  -51.8232 H         1 UNK         0.0600 
    223 H223       -1.9403  -26.2795  -53.1982 H         1 UNK         0.0600 
    224 H224       -0.6513  -25.1692  -52.7564 H         1 UNK         0.0600 
    225 H225       -3.6300  -22.5430  -52.2642 H         1 UNK         0.3000 
    226 H226       -1.4904  -20.5170  -52.0305 H         1 UNK         0.0600 
    227 H227       -2.7489  -21.0222  -49.9874 H         1 UNK         0.0600 
    228 H228       -3.1229  -19.3913  -50.5063 H         1 UNK         0.0600 
    229 H229       -4.2838  -20.6835  -50.7866 H         1 UNK         0.0600 
    230 H230       -4.7388  -20.9619  -53.4719 H         1 UNK         0.3000 
    231 H231       -5.0665  -18.3635  -54.5169 H         1 UNK         0.0600 
    232 H232       -6.8689  -19.3839  -55.8536 H         1 UNK         0.0600 
    233 H233       -6.8911  -20.0696  -54.2350 H         1 UNK         0.0600 
    234 H234       -6.2178  -20.9920  -55.5801 H         1 UNK         0.0600 
    235 H235       -3.2841  -21.1054  -55.8344 H         1 UNK         0.3000 
    236 H236       -3.0263  -20.4729  -58.5049 H         1 UNK         0.0600 
    237 H237       -0.9944  -21.7645  -56.6064 H         1 UNK         0.0600 
    238 H238       -2.2523  -22.5946  -57.5229 H         1 UNK         0.0600 
    239 H239       -0.9085  -21.8436  -58.3627 H         1 UNK         0.0600 
    240 H240       -1.4695  -18.7911  -55.8579 H         1 UNK         0.3000 
    241 H241        0.4600  -17.3931  -57.5932 H         1 UNK         0.0600 
    242 H242       -2.8979  -16.9213  -57.1100 H         1 UNK         0.3800 
    243 H243       -2.8769  -15.1978  -57.3830 H         1 UNK         0.3800 
    244 H244        1.1574  -16.2441  -55.4750 H         1 UNK         0.0800 
    245 H245       -0.0637  -17.1232  -54.6025 H         1 UNK         0.0800 
    246 H246       -0.1409  -19.6739  -54.4044 H         1 UNK         0.0800 
    247 H247        1.2528  -20.7056  -54.4581 H         1 UNK         0.0800 
@<TRIPOS>BOND
     1    1    2 1    
     2    1  127 1    
     3    1  128 1    
     4    1  129 1    
     5    2    3 2    
     6    2    4 am   BACKBONE|DICT|INTERRES
     7    4    5 1    
     8    4  130 1    
     9    5    6 1    
    10    5   65 1    
    11    5  131 1    
    12    6    7 1    
    13    6  132 1    
    14    6  133 1    
    15    7    8 1    
    16    8    9 1    
    17    8  134 1    
    18    8  135 1    
    19    9   10 ar   
    20    9   14 ar   
    21   10   11 ar   
    22   10  136 1    
    23   11   12 ar   
    24   11  126 1    
    25   12   13 ar   
    26   12  137 1    
    27   13   14 ar   
    28   13   15 1    
    29   14  138 1    
    30   15   16 1    
    31   15  139 1    
    32   15  140 1    
    33   16   17 1    
    34   17   18 1    
    35   17  141 1    
    36   17  142 1    
    37   18   19 1    
    38   18   67 1    
    39   18  143 1    
    40   19   20 am   BACKBONE|DICT|INTERRES
    41   19  144 1    
    42   20   21 2    
    43   20   22 1    
    44   22   23 1    
    45   22   24 1    
    46   22  145 1    
    47   23  146 1    
    48   23  147 1    
    49   23  148 1    
    50   24   25 am   BACKBONE|DICT|INTERRES
    51   24  149 1    
    52   25   26 2    
    53   25   27 1    
    54   27   28 1    
    55   27   29 1    
    56   27  150 1    
    57   28  151 1    
    58   28  152 1    
    59   28  153 1    
    60   29   30 am   BACKBONE|DICT|INTERRES
    61   29  154 1    
    62   30   31 2    
    63   30   32 1    
    64   32   33 1    
    65   32   34 1    
    66   32  155 1    
    67   33  156 1    
    68   33  157 1    
    69   33  158 1    
    70   34   35 am   BACKBONE|DICT|INTERRES
    71   34  159 1    
    72   35   36 2    
    73   35   37 1    
    74   37   38 1    
    75   37   39 1    
    76   37  160 1    
    77   38  161 1    
    78   38  162 1    
    79   38  163 1    
    80   39   40 am   BACKBONE|DICT|INTERRES
    81   39  164 1    
    82   40   41 2    
    83   40   42 1    
    84   42   43 1    
    85   42   44 1    
    86   42  165 1    
    87   43  166 1    
    88   43  167 1    
    89   43  168 1    
    90   44   45 am   BACKBONE|DICT|INTERRES
    91   44  169 1    
    92   45   46 2    
    93   45   47 1    
    94   47   48 1    
    95   47   49 1    
    96   47  170 1    
    97   48  171 1    
    98   48  172 1    
    99   48  173 1    
   100   49   50 am   BACKBONE|DICT|INTERRES
   101   49  174 1    
   102   50   51 2    
   103   50   52 1    
   104   52   53 1    
   105   52   54 1    
   106   52  175 1    
   107   53  176 1    
   108   53  177 1    
   109   53  178 1    
   110   54   55 am   BACKBONE|DICT|INTERRES
   111   54  179 1    
   112   55   56 2    
   113   55   57 1    
   114   57   58 1    
   115   57   59 1    
   116   57  180 1    
   117   58  181 1    
   118   58  182 1    
   119   58  183 1    
   120   59   60 am   BACKBONE|DICT|INTERRES
   121   59  184 1    
   122   60   61 2    
   123   60   62 1    
   124   62   63 1    
   125   62   64 1    
   126   62  185 1    
   127   63  186 1    
   128   63  187 1    
   129   63  188 1    
   130   64   65 am   BACKBONE|DICT|INTERRES
   131   64  189 1    
   132   65   66 2    
   133   67   68 2    
   134   67   69 am   BACKBONE|DICT|INTERRES
   135   69   70 1    
   136   69  190 1    
   137   70   71 1    
   138   70   72 1    
   139   70  191 1    
   140   71  192 1    
   141   71  193 1    
   142   71  194 1    
   143   72   73 2    
   144   72   74 am   BACKBONE|DICT|INTERRES
   145   74   75 1    
   146   74  195 1    
   147   75   76 1    
   148   75   77 1    
   149   75  196 1    
   150   76  197 1    
   151   76  198 1    
   152   76  199 1    
   153   77   78 2    
   154   77   79 am   BACKBONE|DICT|INTERRES
   155   79   80 1    
   156   79  200 1    
   157   80   81 1    
   158   80   82 1    
   159   80  201 1    
   160   81  202 1    
   161   81  203 1    
   162   81  204 1    
   163   82   83 2    
   164   82   84 am   BACKBONE|DICT|INTERRES
   165   84   85 1    
   166   84  205 1    
   167   85   86 1    
   168   85   87 1    
   169   85  206 1    
   170   86  207 1    
   171   86  208 1    
   172   86  209 1    
   173   87   88 2    
   174   87   89 am   BACKBONE|DICT|INTERRES
   175   89   90 1    
   176   89  210 1    
   177   90   91 1    
   178   90   92 1    
   179   90  211 1    
   180   91  212 1    
   181   91  213 1    
   182   91  214 1    
   183   92   93 2    
   184   92   94 am   BACKBONE|DICT|INTERRES
   185   94   95 1    
   186   94  215 1    
   187   95   96 1    
   188   95   97 1    
   189   95  216 1    
   190   96  217 1    
   191   96  218 1    
   192   96  219 1    
   193   97   98 2    
   194   97   99 am   BACKBONE|DICT|INTERRES
   195   99  100 1    
   196   99  220 1    
   197  100  101 1    
   198  100  102 1    
   199  100  221 1    
   200  101  222 1    
   201  101  223 1    
   202  101  224 1    
   203  102  103 2    
   204  102  104 am   BACKBONE|DICT|INTERRES
   205  104  105 1    
   206  104  225 1    
   207  105  106 1    
   208  105  107 1    
   209  105  226 1    
   210  106  227 1    
   211  106  228 1    
   212  106  229 1    
   213  107  108 2    
   214  107  109 am   BACKBONE|DICT|INTERRES
   215  109  110 1    
   216  109  230 1    
   217  110  111 1    
   218  110  112 1    
   219  110  231 1    
   220  111  232 1    
   221  111  233 1    
   222  111  234 1    
   223  112  113 2    
   224  112  114 am   BACKBONE|DICT|INTERRES
   225  114  115 1    
   226  114  235 1    
   227  115  116 1    
   228  115  117 1    
   229  115  236 1    
   230  116  237 1    
   231  116  238 1    
   232  116  239 1    
   233  117  118 2    
   234  117  119 am   BACKBONE|DICT|INTERRES
   235  119  120 1    
   236  119  240 1    
   237  120  121 1    
   238  120  124 1    
   239  120  241 1    
   240  121  122 am   BACKBONE|DICT|INTERRES
   241  121  123 2    
   242  122  242 1    
   243  122  243 1    
   244  124  125 1    
   245  124  244 1    
   246  124  245 1    
   247  125  126 1    
   248  126  246 1    
   249  126  247 1    
@<TRIPOS>SUBSTRUCTURE
     1 UNK         1 GROUP             0       ****    0 ROOT    
