@<TRIPOS>MOLECULE
3R540
247   249    1
SMALL
USER_CHARGES


@<TRIPOS>ATOM
      1 CA         -0.3950  -11.7927  -43.6465 C.3       0 UNK        -0.1800 
      2 C           0.5087  -11.3260  -44.7786 C.2       0 UNK         0.5000 
      3 O           1.3436  -10.4464  -44.5715 O.2       0 UNK        -0.5000 
      4 N           0.3358  -11.9019  -45.9748 N.am      1 UNK        -0.5000 
      5 CA          1.0891  -11.5626  -47.1893 C.3       1 UNK         0.1400 
      6 C6          0.3071  -11.9517  -48.4679 C.3       23 UNK        -0.0398 
      7 S7         -0.1189  -13.7281  -48.5867 S.3       23 UNK        -0.2404 
      8 C8          0.6675  -14.1572  -50.1711 C.3       23 UNK        -0.0205 
      9 C9          0.2394  -15.5334  -50.6565 C.ar      23 UNK        -0.0193 
     10 C10        -1.0665  -15.7332  -51.1136 C.ar      23 UNK        -0.1150 
     11 C11        -1.4699  -16.9841  -51.5850 C.ar      23 UNK        -0.0193 
     12 C12        -0.5590  -18.0430  -51.5891 C.ar      23 UNK        -0.1150 
     13 C13         0.7524  -17.8593  -51.1417 C.ar      23 UNK        -0.0193 
     14 C14         1.1471  -16.5972  -50.6802 C.ar      23 UNK        -0.1150 
     15 C15         1.7304  -19.0290  -51.2078 C.3       23 UNK        -0.0205 
     16 S16         2.8054  -19.2174  -49.7452 S.3       23 UNK        -0.2404 
     17 C17         1.6197  -19.2769  -48.3616 C.3       23 UNK        -0.0398 
     18 CA          1.0401  -20.6926  -48.0912 C.3       11 UNK         0.1400 
     19 N           0.9083  -20.9535  -46.6578 N.am      11 UNK        -0.5000 
     20 C           0.7218  -22.1560  -46.0996 C.2       10 UNK         0.5000 
     21 O           0.6826  -23.2084  -46.7363 O.2       10 UNK        -0.5000 
     22 CA          0.5391  -22.1837  -44.5680 C.3       10 UNK         0.1400 
     23 CB          1.8948  -22.2680  -43.8510 C.3       10 UNK        -0.1800 
     24 N          -0.2145  -21.0309  -44.0706 N.am      10 UNK        -0.5000 
     25 C          -1.5122  -20.8188  -44.3322 C.2       9 UNK         0.5000 
     26 O          -2.2182  -21.6102  -44.9557 O.2       9 UNK        -0.5000 
     27 CA         -2.1188  -19.4876  -43.8539 C.3       9 UNK         0.1400 
     28 CB         -2.5811  -19.5984  -42.3941 C.3       9 UNK        -0.1800 
     29 N          -1.2000  -18.3574  -43.9958 N.am      9 UNK        -0.5000 
     30 C          -0.7340  -17.8954  -45.1650 C.2       8 UNK         0.5000 
     31 O          -1.0687  -18.3475  -46.2587 O.2       8 UNK        -0.5000 
     32 CA          0.3418  -16.7962  -45.1014 C.3       8 UNK         0.1400 
     33 CB         -0.2856  -15.4150  -44.8741 C.3       8 UNK        -0.1800 
     34 N           1.3466  -17.0622  -44.0702 N.am      8 UNK        -0.5000 
     35 C           2.1655  -18.1245  -44.0811 C.2       7 UNK         0.5000 
     36 O           2.1713  -18.9700  -44.9724 O.2       7 UNK        -0.5000 
     37 CA          3.1117  -18.2944  -42.8849 C.3       7 UNK         0.1400 
     38 CB          4.3826  -17.4629  -43.0846 C.3       7 UNK        -0.1800 
     39 N           2.4644  -17.9243  -41.6287 N.am      7 UNK        -0.5000 
     40 C           1.5155  -18.6634  -41.0369 C.2       6 UNK         0.5000 
     41 O           1.1240  -19.7484  -41.4689 O.2       6 UNK        -0.5000 
     42 CA          0.8643  -18.0633  -39.7781 C.3       6 UNK         0.1400 
     43 CB          1.7606  -18.2706  -38.5480 C.3       6 UNK        -0.1800 
     44 N           0.5636  -16.6383  -39.9270 N.am      6 UNK        -0.5000 
     45 C          -0.3148  -16.1394  -40.8076 C.2       5 UNK         0.5000 
     46 O          -0.9801  -16.8317  -41.5762 O.2       5 UNK        -0.5000 
     47 CA         -0.4527  -14.6087  -40.8682 C.3       5 UNK         0.1400 
     48 CB         -1.5446  -14.1281  -39.9015 C.3       5 UNK        -0.1800 
     49 N           0.7884  -13.8804  -40.5947 N.am      5 UNK        -0.5000 
     50 C           1.9150  -13.9660  -41.3153 C.2       4 UNK         0.5000 
     51 O           2.0586  -14.7434  -42.2644 O.2       4 UNK        -0.5000 
     52 CA          3.0283  -12.9732  -40.9209 C.3       4 UNK         0.1400 
     53 CB          3.3980  -13.0611  -39.4237 C.3       4 UNK        -0.1800 
     54 N           4.2101  -13.0759  -41.7808 N.am      4 UNK        -0.5000 
     55 C           5.1364  -14.0418  -41.8148 C.2       3 UNK         0.5000 
     56 O           5.1865  -14.9834  -41.0214 O.2       3 UNK        -0.5000 
     57 CA          6.1590  -13.9402  -42.9690 C.3       3 UNK         0.1400 
     58 CB          7.3366  -14.9184  -42.8065 C.3       3 UNK        -0.1800 
     59 N           5.5283  -14.1779  -44.2706 N.am      3 UNK        -0.5000 
     60 C           4.7175  -13.3274  -44.9140 C.2       2 UNK         0.5000 
     61 O           4.4774  -12.1903  -44.4995 O.2       2 UNK        -0.5000 
     62 CA          4.0688  -13.8243  -46.2235 C.3       2 UNK         0.1400 
     63 CB          3.8591  -15.3502  -46.2598 C.3       2 UNK        -0.1800 
     64 N           2.7704  -13.1803  -46.4073 N.am      2 UNK        -0.5000 
     65 C           2.5264  -12.1311  -47.2018 C.2       1 UNK         0.5000 
     66 O           3.3730  -11.6121  -47.9315 O.2       1 UNK        -0.5000 
     67 C          -0.2996  -20.8978  -48.8296 C.2       11 UNK         0.5000 
     68 O          -0.3440  -21.6168  -49.8279 O.2       11 UNK        -0.5000 
     69 N          -1.3545  -20.2385  -48.3336 N.am      12 UNK        -0.5000 
     70 CA         -2.6697  -20.1770  -48.9580 C.3       12 UNK         0.1400 
     71 CB         -3.2558  -18.7674  -48.7460 C.3       12 UNK        -0.1800 
     72 C          -3.5933  -21.2835  -48.4241 C.2       12 UNK         0.5000 
     73 O          -3.7411  -22.3164  -49.0756 O.2       12 UNK        -0.5000 
     74 N          -4.2325  -21.0322  -47.2730 N.am      13 UNK        -0.5000 
     75 CA         -5.3262  -21.8220  -46.6985 C.3       13 UNK         0.1400 
     76 CB         -5.7336  -21.2194  -45.3450 C.3       13 UNK        -0.1800 
     77 C          -5.0393  -23.3281  -46.5608 C.2       13 UNK         0.5000 
     78 O          -5.8785  -24.1440  -46.9482 O.2       13 UNK        -0.5000 
     79 N          -3.8474  -23.6640  -46.0523 N.am      14 UNK        -0.5000 
     80 CA         -3.3864  -25.0383  -45.8505 C.3       14 UNK         0.1400 
     81 CB         -2.1112  -25.0258  -44.9986 C.3       14 UNK        -0.1800 
     82 C          -3.1463  -25.8143  -47.1596 C.2       14 UNK         0.5000 
     83 O          -3.2202  -27.0436  -47.1476 O.2       14 UNK        -0.5000 
     84 N          -2.9078  -25.1067  -48.2728 N.am      15 UNK        -0.5000 
     85 CA         -2.7458  -25.6747  -49.6120 C.3       15 UNK         0.1400 
     86 CB         -1.8100  -24.7716  -50.4363 C.3       15 UNK        -0.1800 
     87 C          -4.1156  -25.8942  -50.2867 C.2       15 UNK         0.5000 
     88 O          -4.3309  -25.4404  -51.4111 O.2       15 UNK        -0.5000 
     89 N          -5.0259  -26.5683  -49.5675 N.am      16 UNK        -0.5000 
     90 CA         -6.3965  -26.9189  -49.9548 C.3       16 UNK         0.1400 
     91 CB         -6.3750  -28.0459  -51.0078 C.3       16 UNK        -0.1800 
     92 C          -7.2307  -25.6960  -50.3927 C.2       16 UNK         0.5000 
     93 O          -7.8636  -25.7272  -51.4492 O.2       16 UNK        -0.5000 
     94 N          -7.1886  -24.6325  -49.5750 N.am      17 UNK        -0.5000 
     95 CA         -7.7937  -23.3186  -49.8203 C.3       17 UNK         0.1400 
     96 CB         -9.3342  -23.4072  -49.8610 C.3       17 UNK        -0.1800 
     97 C          -7.1824  -22.6157  -51.0514 C.2       17 UNK         0.5000 
     98 O          -7.9108  -22.0976  -51.8995 O.2       17 UNK        -0.5000 
     99 N          -5.8424  -22.6141  -51.1062 N.am      18 UNK        -0.5000 
    100 CA        -4.9848  -22.0026  -52.1239 C.3       18 UNK         0.1400 
    101 CB        -5.1129  -20.4679  -52.0824 C.3       18 UNK        -0.1800 
    102 C         -5.1952  -22.5778  -53.5384 C.2       18 UNK         0.5000 
    103 O         -5.1829  -21.8214  -54.5164 O.2       18 UNK        -0.5000 
    104 N         -5.3685  -23.9037  -53.6228 N.am      19 UNK        -0.5000 
    105 CA        -5.5981  -24.6641  -54.8506 C.3       19 UNK         0.1400 
    106 CB        -5.8174  -26.1438  -54.5000 C.3       19 UNK        -0.1800 
    107 C         -4.4400  -24.4950  -55.8497 C.2       19 UNK         0.5000 
    108 O         -3.3301  -24.9596  -55.5844 O.2       19 UNK        -0.5000 
    109 N         -4.7220  -23.7810  -56.9486 N.am      20 UNK        -0.5000 
    110 CA        -3.8020  -23.3644  -58.0161 C.3       20 UNK         0.1400 
    111 CB        -3.1862  -24.5860  -58.7299 C.3       20 UNK        -0.1800 
    112 C         -2.7274  -22.3411  -57.5797 C.2       20 UNK         0.5000 
    113 O         -1.8659  -21.9975  -58.3909 O.2       20 UNK        -0.5000 
    114 N         -2.8022  -21.8493  -56.3356 N.am      21 UNK        -0.5000 
    115 CA        -1.9366  -20.8029  -55.7968 C.3       21 UNK         0.1400 
    116 CB        -1.5861  -21.1164  -54.3323 C.3       21 UNK        -0.1800 
    117 C         -2.6269  -19.4381  -55.9316 C.2       21 UNK         0.5000 
    118 O         -2.0492  -18.5263  -56.5245 O.2       21 UNK        -0.5000 
    119 N         -3.8605  -19.3432  -55.4170 N.am      22 UNK        -0.5000 
    120 CA        -4.7348  -18.1612  -55.5155 C.3       22 UNK         0.1400 
    121 C         -6.1960  -18.5182  -55.9126 C.2       22 UNK         0.5000 
    122 N         -6.6304  -19.7730  -55.8619 N.am      22 UNK        -0.7600 
    123 O         -6.9551  -17.6329  -56.2972 O.2       22 UNK        -0.5000 
    124 C124       -4.7194  -17.2719  -54.2392 C.3       23 UNK        -0.0398 
    125 S125       -3.0680  -16.6229  -53.8050 S.3       23 UNK        -0.2404 
    126 C126       -2.8879  -17.1946  -52.0881 C.3       23 UNK        -0.0205 
    127 H127       -1.0767  -10.9926  -43.3588 H         1 UNK         0.0600 
    128 H128        0.2024  -12.0569  -42.7759 H         1 UNK         0.0600 
    129 H129       -0.9900  -12.6607  -43.9301 H         1 UNK         0.0600 
    130 H130       -0.3773  -12.6072  -46.0954 H         1 UNK         0.3000 
    131 H131        1.1984  -10.4759  -47.2092 H         1 UNK         0.0600 
    132 H132       -0.6269  -11.3892  -48.5011 H         1 UNK         0.0800 
    133 H133        0.8602  -11.6376  -49.3548 H         1 UNK         0.0800 
    134 H134        0.3940  -13.4197  -50.9272 H         1 UNK         0.0800 
    135 H135        1.7516  -14.1029  -50.0594 H         1 UNK         0.0800 
    136 H136       -1.7683  -14.9108  -51.1075 H         1 UNK         0.1150 
    137 H137       -0.8712  -19.0120  -51.9515 H         1 UNK         0.1150 
    138 H138        2.1624  -16.4426  -50.3431 H         1 UNK         0.1150 
    139 H139        1.1960  -19.9670  -51.3633 H         1 UNK         0.0800 
    140 H140        2.3641  -18.8949  -52.0851 H         1 UNK         0.0800 
    141 H141        0.8427  -18.5201  -48.4827 H         1 UNK         0.0800 
    142 H142        2.1949  -18.9406  -47.5002 H         1 UNK         0.0800 
    143 H143        1.7432  -21.4345  -48.4765 H         1 UNK         0.0600 
    144 H144        1.0063  -20.1528  -46.0419 H         1 UNK         0.3000 
    145 H145       -0.0226  -23.0823  -44.3113 H         1 UNK         0.0600 
    146 H146        1.7669  -22.3165  -42.7694 H         1 UNK         0.0600 
    147 H147        2.4389  -23.1630  -44.1551 H         1 UNK         0.0600 
    148 H148        2.5283  -21.4106  -44.0746 H         1 UNK         0.0600 
    149 H149        0.2942  -20.3510  -43.5199 H         1 UNK         0.3000 
    150 H150       -2.9950  -19.2839  -44.4728 H         1 UNK         0.0600 
    151 H151       -3.0971  -18.6927  -42.0754 H         1 UNK         0.0600 
    152 H152       -3.2741  -20.4307  -42.2647 H         1 UNK         0.0600 
    153 H153       -1.7407  -19.7594  -41.7176 H         1 UNK         0.0600 
    154 H154       -0.9142  -17.8960  -43.1356 H         1 UNK         0.3000 
    155 H155        0.8558  -16.7769  -46.0650 H         1 UNK         0.0600 
    156 H156       -0.9321  -15.1423  -45.7090 H         1 UNK         0.0600 
    157 H157        0.4802  -14.6456  -44.7840 H         1 UNK         0.0600 
    158 H158       -0.8931  -15.3932  -43.9702 H         1 UNK         0.0600 
    159 H159        1.4306  -16.3870  -43.3175 H         1 UNK         0.3000 
    160 H160        3.4012  -19.3460  -42.8287 H         1 UNK         0.0600 
    161 H161        4.1466  -16.4037  -43.1712 H         1 UNK         0.0600 
    162 H162        4.9069  -17.7599  -43.9937 H         1 UNK         0.0600 
    163 H163        5.0736  -17.5886  -42.2510 H         1 UNK         0.0600 
    164 H164        2.6991  -17.0201  -41.2435 H         1 UNK         0.3000 
    165 H165       -0.0769  -18.5905  -39.6081 H         1 UNK         0.0600 
    166 H166        1.2693  -17.9224  -37.6393 H         1 UNK         0.0600 
    167 H167        1.9909  -19.3275  -38.4072 H         1 UNK         0.0600 
    168 H168        2.7077  -17.7378  -38.6431 H         1 UNK         0.0600 
    169 H169        1.0734  -15.9960  -39.3387 H         1 UNK         0.3000 
    170 H170       -0.7654  -14.3503  -41.8807 H         1 UNK         0.0600 
    171 H171       -2.4897  -14.6374  -40.0952 H         1 UNK         0.0600 
    172 H172       -1.2754  -14.3195  -38.8620 H         1 UNK         0.0600 
    173 H173       -1.7261  -13.0587  -40.0113 H         1 UNK         0.0600 
    174 H174        0.7511  -13.2169  -39.8346 H         1 UNK         0.3000 
    175 H175        2.6265  -11.9757  -41.1045 H         1 UNK         0.0600 
    176 H176        3.6482  -14.0788  -39.1225 H         1 UNK         0.0600 
    177 H177        4.2508  -12.4237  -39.1899 H         1 UNK         0.0600 
    178 H178        2.5728  -12.7317  -38.7919 H         1 UNK         0.0600 
    179 H179        4.2300  -12.4216  -42.5579 H         1 UNK         0.3000 
    180 H180        6.5677  -12.9275  -42.9563 H         1 UNK         0.0600 
    181 H181        7.0089  -15.9578  -42.8419 H         1 UNK         0.0600 
    182 H182        7.8419  -14.7655  -41.8520 H         1 UNK         0.0600 
    183 H183        8.0789  -14.7747  -43.5917 H         1 UNK         0.0600 
    184 H184        5.6692  -15.0953  -44.6663 H         1 UNK         0.3000 
    185 H185        4.7424  -13.5567  -47.0398 H         1 UNK         0.0600 
    186 H186        3.3170  -15.6519  -47.1567 H         1 UNK         0.0600 
    187 H187        4.8071  -15.8887  -46.2670 H         1 UNK         0.0600 
    188 H188        3.2863  -15.6890  -45.3987 H         1 UNK         0.0600 
    189 H189        2.0257  -13.4943  -45.8045 H         1 UNK         0.3000 
    190 H190       -1.2264  -19.6607  -47.5046 H         1 UNK         0.3000 
    191 H191       -2.5689  -20.3278  -50.0352 H         1 UNK         0.0600 
    192 H192       -2.6129  -18.0089  -49.1907 H         1 UNK         0.0600 
    193 H193       -4.2383  -18.6739  -49.2094 H         1 UNK         0.0600 
    194 H194       -3.3627  -18.5142  -47.6911 H         1 UNK         0.0600 
    195 H195       -4.0069  -20.1766  -46.7895 H         1 UNK         0.3000 
    196 H196       -6.1746  -21.7154  -47.3748 H         1 UNK         0.0600 
    197 H197       -6.5712  -21.7666  -44.9104 H         1 UNK         0.0600 
    198 H198       -6.0472  -20.1809  -45.4525 H         1 UNK         0.0600 
    199 H199       -4.9149  -21.2499  -44.6255 H         1 UNK         0.0600 
    200 H200       -3.2201  -22.9181  -45.7540 H         1 UNK         0.3000 
    201 H201       -4.1613  -25.5680  -45.2926 H         1 UNK         0.0600 
    202 H202       -2.2548  -24.4702  -44.0717 H         1 UNK         0.0600 
    203 H203       -1.2838  -24.5733  -45.5429 H         1 UNK         0.0600 
    204 H204       -1.8105  -26.0393  -44.7305 H         1 UNK         0.0600 
    205 H205       -2.9551  -24.0951  -48.2272 H         1 UNK         0.3000 
    206 H206       -2.2668  -26.6527  -49.5331 H         1 UNK         0.0600 
    207 H207       -0.8540  -24.6287  -49.9323 H         1 UNK         0.0600 
    208 H208       -1.6009  -25.2129  -51.4115 H         1 UNK         0.0600 
    209 H209       -2.2421  -23.7867  -50.6115 H         1 UNK         0.0600 
    210 H210       -4.7357  -26.8821  -48.6488 H         1 UNK         0.3000 
    211 H211       -6.8812  -27.3126  -49.0603 H         1 UNK         0.0600 
    212 H212       -5.8978  -27.7247  -51.9335 H         1 UNK         0.0600 
    213 H213       -7.3856  -28.3731  -51.2548 H         1 UNK         0.0600 
    214 H214       -5.8342  -28.9175  -50.6394 H         1 UNK         0.0600 
    215 H215       -6.6408  -24.7001  -48.7218 H         1 UNK         0.3000 
    216 H216       -7.5344  -22.7007  -48.9614 H         1 UNK         0.0600 
    217 H217       -9.7787  -22.4122  -49.9033 H         1 UNK         0.0600 
    218 H218       -9.7242  -23.8983  -48.9696 H         1 UNK         0.0600 
    219 H219       -9.6908  -23.9581  -50.7315 H         1 UNK         0.0600 
    220 H220       -5.3333  -23.0611  -50.3534 H         1 UNK         0.3000 
    221 H221       -3.9606  -22.2558  -51.8467 H         1 UNK         0.0600 
    222 H222       -6.0897  -20.1315  -52.4316 H         1 UNK         0.0600 
    223 H223       -4.9675  -20.0839  -51.0740 H         1 UNK         0.0600 
    224 H224       -4.3616  -20.0068  -52.7193 H         1 UNK         0.0600 
    225 H225       -5.2587  -24.4524  -52.7736 H         1 UNK         0.3000 
    226 H226       -6.5173  -24.2877  -55.3038 H         1 UNK         0.0600 
    227 H227       -6.6914  -26.2706  -53.8616 H         1 UNK         0.0600 
    228 H228       -5.9822  -26.7392  -55.3987 H         1 UNK         0.0600 
    229 H229       -4.9570  -26.5649  -53.9783 H         1 UNK         0.0600 
    230 H230       -5.6612  -23.4182  -57.0397 H         1 UNK         0.3000 
    231 H231       -4.4211  -22.8422  -58.7469 H         1 UNK         0.0600 
    232 H232       -2.4814  -25.1189  -58.0913 H         1 UNK         0.0600 
    233 H233       -2.6441  -24.2827  -59.6263 H         1 UNK         0.0600 
    234 H234       -3.9566  -25.2908  -59.0425 H         1 UNK         0.0600 
    235 H235       -3.5706  -22.1516  -55.7498 H         1 UNK         0.3000 
    236 H236       -0.9998  -20.7656  -56.3571 H         1 UNK         0.0600 
    237 H237       -1.0813  -22.0789  -54.2478 H         1 UNK         0.0600 
    238 H238       -0.9127  -20.3605  -53.9276 H         1 UNK         0.0600 
    239 H239       -2.4670  -21.1474  -53.6933 H         1 UNK         0.0600 
    240 H240       -4.2750  -20.1629  -54.9903 H         1 UNK         0.3000 
    241 H241       -4.3773  -17.5433  -56.3414 H         1 UNK         0.0600 
    242 H242       -7.5807  -19.9631  -56.1370 H         1 UNK         0.3800 
    243 H243       -6.0673  -20.5297  -55.4874 H         1 UNK         0.3800 
    244 H244       -5.3695  -16.4063  -54.3781 H         1 UNK         0.0800 
    245 H245       -5.1357  -17.8189  -53.3932 H         1 UNK         0.0800 
    246 H246       -3.1436  -18.2508  -52.0225 H         1 UNK         0.0800 
    247 H247       -3.5947  -16.6627  -51.4494 H         1 UNK         0.0800 
@<TRIPOS>BOND
     1    1    2 1    
     2    1  127 1    
     3    1  128 1    
     4    1  129 1    
     5    2    3 2    
     6    2    4 am   BACKBONE|DICT|INTERRES
     7    4    5 1    
     8    4  130 1    
     9    5    6 1    
    10    5   65 1    
    11    5  131 1    
    12    6    7 1    
    13    6  132 1    
    14    6  133 1    
    15    7    8 1    
    16    8    9 1    
    17    8  134 1    
    18    8  135 1    
    19    9   10 ar   
    20    9   14 ar   
    21   10   11 ar   
    22   10  136 1    
    23   11   12 ar   
    24   11  126 1    
    25   12   13 ar   
    26   12  137 1    
    27   13   14 ar   
    28   13   15 1    
    29   14  138 1    
    30   15   16 1    
    31   15  139 1    
    32   15  140 1    
    33   16   17 1    
    34   17   18 1    
    35   17  141 1    
    36   17  142 1    
    37   18   19 1    
    38   18   67 1    
    39   18  143 1    
    40   19   20 am   BACKBONE|DICT|INTERRES
    41   19  144 1    
    42   20   21 2    
    43   20   22 1    
    44   22   23 1    
    45   22   24 1    
    46   22  145 1    
    47   23  146 1    
    48   23  147 1    
    49   23  148 1    
    50   24   25 am   BACKBONE|DICT|INTERRES
    51   24  149 1    
    52   25   26 2    
    53   25   27 1    
    54   27   28 1    
    55   27   29 1    
    56   27  150 1    
    57   28  151 1    
    58   28  152 1    
    59   28  153 1    
    60   29   30 am   BACKBONE|DICT|INTERRES
    61   29  154 1    
    62   30   31 2    
    63   30   32 1    
    64   32   33 1    
    65   32   34 1    
    66   32  155 1    
    67   33  156 1    
    68   33  157 1    
    69   33  158 1    
    70   34   35 am   BACKBONE|DICT|INTERRES
    71   34  159 1    
    72   35   36 2    
    73   35   37 1    
    74   37   38 1    
    75   37   39 1    
    76   37  160 1    
    77   38  161 1    
    78   38  162 1    
    79   38  163 1    
    80   39   40 am   BACKBONE|DICT|INTERRES
    81   39  164 1    
    82   40   41 2    
    83   40   42 1    
    84   42   43 1    
    85   42   44 1    
    86   42  165 1    
    87   43  166 1    
    88   43  167 1    
    89   43  168 1    
    90   44   45 am   BACKBONE|DICT|INTERRES
    91   44  169 1    
    92   45   46 2    
    93   45   47 1    
    94   47   48 1    
    95   47   49 1    
    96   47  170 1    
    97   48  171 1    
    98   48  172 1    
    99   48  173 1    
   100   49   50 am   BACKBONE|DICT|INTERRES
   101   49  174 1    
   102   50   51 2    
   103   50   52 1    
   104   52   53 1    
   105   52   54 1    
   106   52  175 1    
   107   53  176 1    
   108   53  177 1    
   109   53  178 1    
   110   54   55 am   BACKBONE|DICT|INTERRES
   111   54  179 1    
   112   55   56 2    
   113   55   57 1    
   114   57   58 1    
   115   57   59 1    
   116   57  180 1    
   117   58  181 1    
   118   58  182 1    
   119   58  183 1    
   120   59   60 am   BACKBONE|DICT|INTERRES
   121   59  184 1    
   122   60   61 2    
   123   60   62 1    
   124   62   63 1    
   125   62   64 1    
   126   62  185 1    
   127   63  186 1    
   128   63  187 1    
   129   63  188 1    
   130   64   65 am   BACKBONE|DICT|INTERRES
   131   64  189 1    
   132   65   66 2    
   133   67   68 2    
   134   67   69 am   BACKBONE|DICT|INTERRES
   135   69   70 1    
   136   69  190 1    
   137   70   71 1    
   138   70   72 1    
   139   70  191 1    
   140   71  192 1    
   141   71  193 1    
   142   71  194 1    
   143   72   73 2    
   144   72   74 am   BACKBONE|DICT|INTERRES
   145   74   75 1    
   146   74  195 1    
   147   75   76 1    
   148   75   77 1    
   149   75  196 1    
   150   76  197 1    
   151   76  198 1    
   152   76  199 1    
   153   77   78 2    
   154   77   79 am   BACKBONE|DICT|INTERRES
   155   79   80 1    
   156   79  200 1    
   157   80   81 1    
   158   80   82 1    
   159   80  201 1    
   160   81  202 1    
   161   81  203 1    
   162   81  204 1    
   163   82   83 2    
   164   82   84 am   BACKBONE|DICT|INTERRES
   165   84   85 1    
   166   84  205 1    
   167   85   86 1    
   168   85   87 1    
   169   85  206 1    
   170   86  207 1    
   171   86  208 1    
   172   86  209 1    
   173   87   88 2    
   174   87   89 am   BACKBONE|DICT|INTERRES
   175   89   90 1    
   176   89  210 1    
   177   90   91 1    
   178   90   92 1    
   179   90  211 1    
   180   91  212 1    
   181   91  213 1    
   182   91  214 1    
   183   92   93 2    
   184   92   94 am   BACKBONE|DICT|INTERRES
   185   94   95 1    
   186   94  215 1    
   187   95   96 1    
   188   95   97 1    
   189   95  216 1    
   190   96  217 1    
   191   96  218 1    
   192   96  219 1    
   193   97   98 2    
   194   97   99 am   BACKBONE|DICT|INTERRES
   195   99  100 1    
   196   99  220 1    
   197  100  101 1    
   198  100  102 1    
   199  100  221 1    
   200  101  222 1    
   201  101  223 1    
   202  101  224 1    
   203  102  103 2    
   204  102  104 am   BACKBONE|DICT|INTERRES
   205  104  105 1    
   206  104  225 1    
   207  105  106 1    
   208  105  107 1    
   209  105  226 1    
   210  106  227 1    
   211  106  228 1    
   212  106  229 1    
   213  107  108 2    
   214  107  109 am   BACKBONE|DICT|INTERRES
   215  109  110 1    
   216  109  230 1    
   217  110  111 1    
   218  110  112 1    
   219  110  231 1    
   220  111  232 1    
   221  111  233 1    
   222  111  234 1    
   223  112  113 2    
   224  112  114 am   BACKBONE|DICT|INTERRES
   225  114  115 1    
   226  114  235 1    
   227  115  116 1    
   228  115  117 1    
   229  115  236 1    
   230  116  237 1    
   231  116  238 1    
   232  116  239 1    
   233  117  118 2    
   234  117  119 am   BACKBONE|DICT|INTERRES
   235  119  120 1    
   236  119  240 1    
   237  120  121 1    
   238  120  124 1    
   239  120  241 1    
   240  121  122 am   BACKBONE|DICT|INTERRES
   241  121  123 2    
   242  122  242 1    
   243  122  243 1    
   244  124  125 1    
   245  124  244 1    
   246  124  245 1    
   247  125  126 1    
   248  126  246 1    
   249  126  247 1    
@<TRIPOS>SUBSTRUCTURE
     1 UNK         1 GROUP             0       ****    0 ROOT    
