@<TRIPOS>MOLECULE
3R540
247   249    1
SMALL
USER_CHARGES


@<TRIPOS>ATOM
      1 CA          5.2219  -11.2872  -51.7989 C.3       0 UNK        -0.1800 
      2 C           4.5070  -12.3660  -50.9973 C.2       0 UNK         0.5000 
      3 O           5.1252  -13.3638  -50.6248 O.2       0 UNK        -0.5000 
      4 N           3.2078  -12.1747  -50.7408 N.am      1 UNK        -0.5000 
      5 CA          2.3660  -13.0780  -49.9492 C.3       1 UNK         0.1400 
      6 C6          0.8544  -12.8061  -50.1614 C.3       23 UNK        -0.0398 
      7 S7          0.3246  -12.7378  -51.9088 S.3       23 UNK        -0.2404 
      8 C8          0.8136  -14.3730  -52.5527 C.3       23 UNK        -0.0205 
      9 C9          0.1470  -15.5340  -51.8260 C.ar      23 UNK        -0.0193 
     10 C10        -1.2466  -15.6160  -51.7549 C.ar      23 UNK        -0.1150 
     11 C11        -1.8662  -16.7039  -51.1346 C.ar      23 UNK        -0.0193 
     12 C12        -1.0790  -17.7239  -50.5935 C.ar      23 UNK        -0.1150 
     13 C13         0.3173  -17.6462  -50.6398 C.ar      23 UNK        -0.0193 
     14 C14         0.9236  -16.5474  -51.2559 C.ar      23 UNK        -0.1150 
     15 C15         1.1728  -18.7685  -50.0669 C.3       23 UNK        -0.0205 
     16 S16         1.6952  -18.4613  -48.3443 S.3       23 UNK        -0.2404 
     17 C17         0.1137  -18.5855  -47.4501 C.3       23 UNK        -0.0398 
     18 CA         -0.3343  -20.0502  -47.2318 C.3       11 UNK         0.1400 
     19 N           0.4055  -20.7150  -46.1564 N.am      11 UNK        -0.5000 
     20 C           0.3377  -22.0230  -45.8730 C.2       10 UNK         0.5000 
     21 O          -0.3004  -22.8257  -46.5549 O.2       10 UNK        -0.5000 
     22 CA          1.0194  -22.4994  -44.5743 C.3       10 UNK         0.1400 
     23 CB          1.6679  -23.8914  -44.7168 C.3       10 UNK        -0.1800 
     24 N           1.9454  -21.5174  -43.9989 N.am      10 UNK        -0.5000 
     25 C           3.1437  -21.1345  -44.4650 C.2       9 UNK         0.5000 
     26 O           3.6728  -21.6003  -45.4739 O.2       9 UNK        -0.5000 
     27 CA          3.8645  -20.0138  -43.6882 C.3       9 UNK         0.1400 
     28 CB          3.8285  -18.7058  -44.4935 C.3       9 UNK        -0.1800 
     29 N           3.2945  -19.7584  -42.3630 N.am      9 UNK        -0.5000 
     30 C           3.4356  -20.5531  -41.2931 C.2       8 UNK         0.5000 
     31 O           4.0838  -21.5998  -41.2970 O.2       8 UNK        -0.5000 
     32 CA          2.7063  -20.1123  -40.0135 C.3       8 UNK         0.1400 
     33 CB          3.5328  -19.0629  -39.2533 C.3       8 UNK        -0.1800 
     34 N           1.3849  -19.5600  -40.3153 N.am      8 UNK        -0.5000 
     35 C           0.2612  -20.2827  -40.4212 C.2       7 UNK         0.5000 
     36 O           0.2162  -21.5023  -40.2608 O.2       7 UNK        -0.5000 
     37 CA         -1.0317  -19.5192  -40.7733 C.3       7 UNK         0.1400 
     38 CB         -1.7501  -19.0573  -39.4969 C.3       7 UNK        -0.1800 
     39 N          -0.7905  -18.3594  -41.6324 N.am      7 UNK        -0.5000 
     40 C          -0.4655  -18.4418  -42.9278 C.2       6 UNK         0.5000 
     41 O          -0.4183  -19.5010  -43.5545 O.2       6 UNK        -0.5000 
     42 CA         -0.1063  -17.1340  -43.6551 C.3       6 UNK         0.1400 
     43 CB         -1.3065  -16.6236  -44.4641 C.3       6 UNK        -0.1800 
     44 N           0.4175  -16.0575  -42.8059 N.am      6 UNK        -0.5000 
     45 C           1.5209  -16.1485  -42.0454 C.2       5 UNK         0.5000 
     46 O           2.1560  -17.1953  -41.9183 O.2       5 UNK        -0.5000 
     47 CA          2.0189  -14.8894  -41.3101 C.3       5 UNK         0.1400 
     48 CB          3.4942  -14.6133  -41.6450 C.3       5 UNK        -0.1800 
     49 N           1.2295  -13.6967  -41.6180 N.am      5 UNK        -0.5000 
     50 C           0.1479  -13.2997  -40.9329 C.2       4 UNK         0.5000 
     51 O          -0.2933  -13.9009  -39.9529 O.2       4 UNK        -0.5000 
     52 CA         -0.5788  -12.0310  -41.4272 C.3       4 UNK         0.1400 
     53 CB         -0.1520  -10.8109  -40.5969 C.3       4 UNK        -0.1800 
     54 N          -0.3657  -11.7360  -42.8465 N.am      4 UNK        -0.5000 
     55 C          -0.7689  -12.5123  -43.8608 C.2       3 UNK         0.5000 
     56 O          -1.3844  -13.5654  -43.6993 O.2       3 UNK        -0.5000 
     57 CA         -0.3939  -12.0727  -45.2920 C.3       3 UNK         0.1400 
     58 CB          0.0740  -10.6039  -45.3967 C.3       3 UNK        -0.1800 
     59 N           0.6042  -12.9627  -45.8956 N.am      3 UNK        -0.5000 
     60 C           1.8122  -13.2784  -45.4014 C.2       2 UNK         0.5000 
     61 O           2.2346  -12.8832  -44.3140 O.2       2 UNK        -0.5000 
     62 CA          2.7087  -14.1836  -46.2707 C.3       2 UNK         0.1400 
     63 CB          2.5569  -15.6507  -45.8512 C.3       2 UNK        -0.1800 
     64 N           2.4498  -14.0758  -47.7099 N.am      2 UNK        -0.5000 
     65 C           2.7155  -12.9895  -48.4481 C.2       1 UNK         0.5000 
     66 O           3.1841  -11.9467  -47.9834 O.2       1 UNK        -0.5000 
     67 C          -1.8563  -20.1176  -47.0049 C.2       11 UNK         0.5000 
     68 O          -2.5972  -20.2315  -47.9789 O.2       11 UNK        -0.5000 
     69 N          -2.2949  -20.0899  -45.7374 N.am      12 UNK        -0.5000 
     70 CA         -3.6976  -20.2533  -45.3531 C.3       12 UNK         0.1400 
     71 CB         -3.8562  -19.9405  -43.8576 C.3       12 UNK        -0.1800 
     72 C          -4.2267  -21.6621  -45.6796 C.2       12 UNK         0.5000 
     73 O          -5.3392  -21.7952  -46.1899 O.2       12 UNK        -0.5000 
     74 N          -3.3958  -22.6823  -45.4217 N.am      13 UNK        -0.5000 
     75 CA         -3.6730  -24.0777  -45.7580 C.3       13 UNK         0.1400 
     76 CB         -2.6681  -24.9954  -45.0453 C.3       13 UNK        -0.1800 
     77 C          -3.6600  -24.3126  -47.2774 C.2       13 UNK         0.5000 
     78 O          -4.5582  -24.9785  -47.7911 O.2       13 UNK        -0.5000 
     79 N          -2.6753  -23.7243  -47.9735 N.am      14 UNK        -0.5000 
     80 CA         -2.5595  -23.7591  -49.4322 C.3       14 UNK         0.1400 
     81 CB         -1.2436  -23.1035  -49.8755 C.3       14 UNK        -0.1800 
     82 C          -3.7587  -23.1023  -50.1368 C.2       14 UNK         0.5000 
     83 O          -4.2780  -23.6757  -51.0926 O.2       14 UNK        -0.5000 
     84 N          -4.2062  -21.9469  -49.6251 N.am      15 UNK        -0.5000 
     85 CA         -5.3908  -21.2298  -50.0953 C.3       15 UNK         0.1400 
     86 CB         -5.4841  -19.8694  -49.3895 C.3       15 UNK        -0.1800 
     87 C          -6.6878  -22.0319  -49.8918 C.2       15 UNK         0.5000 
     88 O          -7.5090  -22.0914  -50.8068 O.2       15 UNK        -0.5000 
     89 N          -6.8343  -22.6601  -48.7153 N.am      16 UNK        -0.5000 
     90 CA         -7.9690  -23.5196  -48.3689 C.3       16 UNK         0.1400 
     91 CB         -7.9129  -23.8677  -46.8738 C.3       16 UNK        -0.1800 
     92 C          -8.0375  -24.7979  -49.2260 C.2       16 UNK         0.5000 
     93 O          -9.1273  -25.1969  -49.6382 O.2       16 UNK        -0.5000 
     94 N          -6.8724  -25.3990  -49.5007 N.am      17 UNK        -0.5000 
     95 CA         -6.7174  -26.5655  -50.3721 C.3       17 UNK         0.1400 
     96 CB         -5.3521  -27.2114  -50.0864 C.3       17 UNK        -0.1800 
     97 C          -6.8396  -26.2346  -51.8738 C.2       17 UNK         0.5000 
     98 O          -7.0235  -27.1523  -52.6742 O.2       17 UNK        -0.5000 
     99 N          -6.7007  -24.9473  -52.2258 N.am      18 UNK        -0.5000 
    100 CA        -6.5742  -24.3932  -53.5784 C.3       18 UNK         0.1400 
    101 CB        -7.8727  -24.5900  -54.3874 C.3       18 UNK        -0.1800 
    102 C         -5.3148  -24.9160  -54.3042 C.2       18 UNK         0.5000 
    103 O         -5.3365  -25.1505  -55.5143 O.2       18 UNK        -0.5000 
    104 N         -4.2272  -25.0878  -53.5431 N.am      19 UNK        -0.5000 
    105 CA        -2.9395  -25.6249  -53.9775 C.3       19 UNK         0.1400 
    106 CB        -2.2711  -26.3161  -52.7752 C.3       19 UNK        -0.1800 
    107 C         -2.0577  -24.5260  -54.6033 C.2       19 UNK         0.5000 
    108 O         -0.9352  -24.2964  -54.1483 O.2       19 UNK        -0.5000 
    109 N         -2.6000  -23.8618  -55.6334 N.am      20 UNK        -0.5000 
    110 CA        -2.0363  -22.7131  -56.3486 C.3       20 UNK         0.1400 
    111 CB        -0.7742  -23.1293  -57.1382 C.3       20 UNK        -0.1800 
    112 C         -1.8231  -21.4905  -55.4257 C.2       20 UNK         0.5000 
    113 O         -2.5565  -21.3315  -54.4476 O.2       20 UNK        -0.5000 
    114 N         -0.8620  -20.6250  -55.7816 N.am      21 UNK        -0.5000 
    115 CA        -0.4389  -19.3773  -55.1240 C.3       21 UNK         0.1400 
    116 CB         0.0261  -19.6316  -53.6778 C.3       21 UNK        -0.1800 
    117 C         -1.4646  -18.2254  -55.1825 C.2       21 UNK         0.5000 
    118 O         -1.0656  -17.0738  -55.3602 O.2       21 UNK        -0.5000 
    119 N         -2.7537  -18.5455  -55.0660 N.am      22 UNK        -0.5000 
    120 CA        -3.8886  -17.6200  -55.0949 C.3       22 UNK         0.1400 
    121 C         -5.2001  -18.3373  -55.5203 C.2       22 UNK         0.5000 
    122 N         -6.2671  -17.5921  -55.7774 N.am      22 UNK        -0.7600 
    123 O         -5.2665  -19.5599  -55.6347 O.2       22 UNK        -0.5000 
    124 C124       -4.0296  -16.8121  -53.7751 C.3       23 UNK        -0.0398 
    125 S125       -4.1400  -17.8479  -52.2711 S.3       23 UNK        -0.2404 
    126 C126       -3.3828  -16.7633  -51.0201 C.3       23 UNK        -0.0205 
    127 H127        4.5502  -10.4728  -52.0720 H         1 UNK         0.0600 
    128 H128        6.0433  -10.8696  -51.2167 H         1 UNK         0.0600 
    129 H129        5.6326  -11.7106  -52.7156 H         1 UNK         0.0600 
    130 H130        2.7565  -11.3308  -51.0626 H         1 UNK         0.3000 
    131 H131        2.5793  -14.0985  -50.2724 H         1 UNK         0.0600 
    132 H132        0.2559  -13.5684  -49.6592 H         1 UNK         0.0800 
    133 H133        0.5728  -11.8551  -49.7050 H         1 UNK         0.0800 
    134 H134        1.9004  -14.4614  -52.5239 H         1 UNK         0.0800 
    135 H135        0.5372  -14.4258  -53.6067 H         1 UNK         0.0800 
    136 H136       -1.8478  -14.8276  -52.1851 H         1 UNK         0.1150 
    137 H137       -1.5580  -18.5757  -50.1303 H         1 UNK         0.1150 
    138 H138        2.0020  -16.4957  -51.3099 H         1 UNK         0.1150 
    139 H139        0.6405  -19.7179  -50.1340 H         1 UNK         0.0800 
    140 H140        2.0664  -18.8898  -50.6809 H         1 UNK         0.0800 
    141 H141       -0.6343  -18.0033  -47.9874 H         1 UNK         0.0800 
    142 H142        0.2283  -18.0809  -46.4936 H         1 UNK         0.0800 
    143 H143       -0.1400  -20.6123  -48.1456 H         1 UNK         0.0600 
    144 H144        0.9105  -20.1235  -45.5141 H         1 UNK         0.3000 
    145 H145        0.2142  -22.5949  -43.8444 H         1 UNK         0.0600 
    146 H146        2.1462  -24.2010  -43.7876 H         1 UNK         0.0600 
    147 H147        0.9205  -24.6464  -44.9628 H         1 UNK         0.0600 
    148 H148        2.4188  -23.9128  -45.5066 H         1 UNK         0.0600 
    149 H149        1.5992  -21.0337  -43.1818 H         1 UNK         0.3000 
    150 H150        4.9068  -20.3145  -43.5642 H         1 UNK         0.0600 
    151 H151        4.3063  -18.8289  -45.4664 H         1 UNK         0.0600 
    152 H152        4.3524  -17.9040  -43.9726 H         1 UNK         0.0600 
    153 H153        2.8054  -18.3770  -44.6721 H         1 UNK         0.0600 
    154 H154        2.7953  -18.8791  -42.2469 H         1 UNK         0.3000 
    155 H155        2.5973  -20.9865  -39.3679 H         1 UNK         0.0600 
    156 H156        3.6848  -18.1586  -39.8439 H         1 UNK         0.0600 
    157 H157        4.5173  -19.4550  -38.9952 H         1 UNK         0.0600 
    158 H158        3.0432  -18.7760  -38.3226 H         1 UNK         0.0600 
    159 H159        1.3543  -18.5737  -40.5398 H         1 UNK         0.3000 
    160 H160       -1.6908  -20.2110  -41.3020 H         1 UNK         0.0600 
    161 H161       -2.7016  -18.5797  -39.7316 H         1 UNK         0.0600 
    162 H162       -1.1477  -18.3466  -38.9297 H         1 UNK         0.0600 
    163 H163       -1.9648  -19.9028  -38.8419 H         1 UNK         0.0600 
    164 H164       -0.8194  -17.4488  -41.1976 H         1 UNK         0.3000 
    165 H165        0.6872  -17.3925  -44.3542 H         1 UNK         0.0600 
    166 H166       -1.0133  -15.8138  -45.1321 H         1 UNK         0.0600 
    167 H167       -1.7368  -17.4091  -45.0849 H         1 UNK         0.0600 
    168 H168       -2.0993  -16.2539  -43.8127 H         1 UNK         0.0600 
    169 H169       -0.0643  -15.1683  -42.8614 H         1 UNK         0.3000 
    170 H170        1.9580  -15.1007  -40.2407 H         1 UNK         0.0600 
    171 H171        4.1290  -15.4442  -41.3342 H         1 UNK         0.0600 
    172 H172        3.6478  -14.4698  -42.7145 H         1 UNK         0.0600 
    173 H173        3.8555  -13.7222  -41.1316 H         1 UNK         0.0600 
    174 H174        1.5138  -13.1742  -42.4416 H         1 UNK         0.3000 
    175 H175       -1.6486  -12.1898  -41.2764 H         1 UNK         0.0600 
    176 H176       -0.7197   -9.9236  -40.8776 H         1 UNK         0.0600 
    177 H177       -0.3242  -10.9817  -39.5333 H         1 UNK         0.0600 
    178 H178        0.9079  -10.5879  -40.7262 H         1 UNK         0.0600 
    179 H179        0.1651  -10.9044  -43.0610 H         1 UNK         0.3000 
    180 H180       -1.3027  -12.1722  -45.8873 H         1 UNK         0.0600 
    181 H181        1.0121  -10.4284  -44.8691 H         1 UNK         0.0600 
    182 H182       -0.6732   -9.9213  -44.9895 H         1 UNK         0.0600 
    183 H183        0.2297  -10.3222  -46.4382 H         1 UNK         0.0600 
    184 H184        0.3417  -13.3740  -46.7785 H         1 UNK         0.3000 
    185 H185        3.7435  -13.8847  -46.0899 H         1 UNK         0.0600 
    186 H186        1.5496  -16.0160  -46.0485 H         1 UNK         0.0600 
    187 H187        3.2567  -16.2900  -46.3899 H         1 UNK         0.0600 
    188 H188        2.7574  -15.7770  -44.7872 H         1 UNK         0.0600 
    189 H189        2.0764  -14.8999  -48.1590 H         1 UNK         0.3000 
    190 H190       -1.6194  -19.9957  -44.9844 H         1 UNK         0.3000 
    191 H191       -4.2926  -19.5334  -45.9192 H         1 UNK         0.0600 
    192 H192       -3.2535  -20.6071  -43.2401 H         1 UNK         0.0600 
    193 H193       -4.8951  -20.0501  -43.5437 H         1 UNK         0.0600 
    194 H194       -3.5567  -18.9163  -43.6351 H         1 UNK         0.0600 
    195 H195       -2.4848  -22.4788  -45.0409 H         1 UNK         0.3000 
    196 H196       -4.6721  -24.3227  -45.3913 H         1 UNK         0.0600 
    197 H197       -2.8864  -26.0437  -45.2528 H         1 UNK         0.0600 
    198 H198       -2.7107  -24.8630  -43.9641 H         1 UNK         0.0600 
    199 H199       -1.6439  -24.8065  -45.3664 H         1 UNK         0.0600 
    200 H200       -1.9384  -23.2416  -47.4671 H         1 UNK         0.3000 
    201 H201       -2.5326  -24.8091  -49.7292 H         1 UNK         0.0600 
    202 H202       -0.3851  -23.5672  -49.3893 H         1 UNK         0.0600 
    203 H203       -1.2275  -22.0388  -49.6453 H         1 UNK         0.0600 
    204 H204       -1.1040  -23.2053  -50.9528 H         1 UNK         0.0600 
    205 H205       -3.6842  -21.5067  -48.8722 H         1 UNK         0.3000 
    206 H206       -5.2682  -21.0511  -51.1658 H         1 UNK         0.0600 
    207 H207       -4.5884  -19.2763  -49.5671 H         1 UNK         0.0600 
    208 H208       -6.3339  -19.2940  -49.7585 H         1 UNK         0.0600 
    209 H209       -5.6006  -19.9794  -48.3109 H         1 UNK         0.0600 
    210 H210       -6.1281  -22.5302  -47.9989 H         1 UNK         0.3000 
    211 H211       -8.8840  -22.9517  -48.5493 H         1 UNK         0.0600 
    212 H212       -7.0016  -24.4095  -46.6196 H         1 UNK         0.0600 
    213 H213       -8.7587  -24.4932  -46.5858 H         1 UNK         0.0600 
    214 H214       -7.9492  -22.9685  -46.2587 H         1 UNK         0.0600 
    215 H215       -6.0261  -25.0480  -49.0602 H         1 UNK         0.3000 
    216 H216       -7.4976  -27.2894  -50.1283 H         1 UNK         0.0600 
    217 H217       -5.2024  -28.1030  -50.6965 H         1 UNK         0.0600 
    218 H218       -5.2698  -27.5142  -49.0424 H         1 UNK         0.0600 
    219 H219       -4.5322  -26.5247  -50.3008 H         1 UNK         0.0600 
    220 H220       -6.5195  -24.2884  -51.4797 H         1 UNK         0.3000 
    221 H221       -6.4254  -23.3200  -53.4504 H         1 UNK         0.0600 
    222 H222       -8.0533  -25.6396  -54.6199 H         1 UNK         0.0600 
    223 H223       -8.7370  -24.2127  -53.8408 H         1 UNK         0.0600 
    224 H224       -7.8267  -24.0502  -55.3338 H         1 UNK         0.0600 
    225 H225       -4.2706  -24.7516  -52.5830 H         1 UNK         0.3000 
    226 H226       -3.1090  -26.3833  -54.7446 H         1 UNK         0.0600 
    227 H227       -2.0550  -25.6079  -51.9752 H         1 UNK         0.0600 
    228 H228       -1.3292  -26.7829  -53.0657 H         1 UNK         0.0600 
    229 H229       -2.9089  -27.0999  -52.3662 H         1 UNK         0.0600 
    230 H230       -3.5459  -24.1197  -55.8921 H         1 UNK         0.3000 
    231 H231       -2.7947  -22.4129  -57.0729 H         1 UNK         0.0600 
    232 H232        0.0726  -23.3238  -56.4791 H         1 UNK         0.0600 
    233 H233       -0.4737  -22.3571  -57.8469 H         1 UNK         0.0600 
    234 H234       -0.9566  -24.0342  -57.7182 H         1 UNK         0.0600 
    235 H235       -0.3482  -20.8423  -56.6240 H         1 UNK         0.3000 
    236 H236        0.4331  -19.0394  -55.6862 H         1 UNK         0.0600 
    237 H237        0.7601  -20.4357  -53.6306 H         1 UNK         0.0600 
    238 H238        0.4957  -18.7377  -53.2678 H         1 UNK         0.0600 
    239 H239       -0.8042  -19.8924  -53.0205 H         1 UNK         0.0600 
    240 H240       -2.9985  -19.5189  -54.9021 H         1 UNK         0.3000 
    241 H241       -3.6883  -16.9088  -55.8986 H         1 UNK         0.0600 
    242 H242       -7.1218  -18.0478  -56.0575 H         1 UNK         0.3800 
    243 H243       -6.2447  -16.5864  -55.7106 H         1 UNK         0.3800 
    244 H244       -3.1713  -16.1481  -53.6854 H         1 UNK         0.0800 
    245 H245       -4.8989  -16.1542  -53.8079 H         1 UNK         0.0800 
    246 H246       -3.6502  -17.1293  -50.0282 H         1 UNK         0.0800 
    247 H247       -3.8147  -15.7642  -51.0965 H         1 UNK         0.0800 
@<TRIPOS>BOND
     1    1    2 1    
     2    1  127 1    
     3    1  128 1    
     4    1  129 1    
     5    2    3 2    
     6    2    4 am   BACKBONE|DICT|INTERRES
     7    4    5 1    
     8    4  130 1    
     9    5    6 1    
    10    5   65 1    
    11    5  131 1    
    12    6    7 1    
    13    6  132 1    
    14    6  133 1    
    15    7    8 1    
    16    8    9 1    
    17    8  134 1    
    18    8  135 1    
    19    9   10 ar   
    20    9   14 ar   
    21   10   11 ar   
    22   10  136 1    
    23   11   12 ar   
    24   11  126 1    
    25   12   13 ar   
    26   12  137 1    
    27   13   14 ar   
    28   13   15 1    
    29   14  138 1    
    30   15   16 1    
    31   15  139 1    
    32   15  140 1    
    33   16   17 1    
    34   17   18 1    
    35   17  141 1    
    36   17  142 1    
    37   18   19 1    
    38   18   67 1    
    39   18  143 1    
    40   19   20 am   BACKBONE|DICT|INTERRES
    41   19  144 1    
    42   20   21 2    
    43   20   22 1    
    44   22   23 1    
    45   22   24 1    
    46   22  145 1    
    47   23  146 1    
    48   23  147 1    
    49   23  148 1    
    50   24   25 am   BACKBONE|DICT|INTERRES
    51   24  149 1    
    52   25   26 2    
    53   25   27 1    
    54   27   28 1    
    55   27   29 1    
    56   27  150 1    
    57   28  151 1    
    58   28  152 1    
    59   28  153 1    
    60   29   30 am   BACKBONE|DICT|INTERRES
    61   29  154 1    
    62   30   31 2    
    63   30   32 1    
    64   32   33 1    
    65   32   34 1    
    66   32  155 1    
    67   33  156 1    
    68   33  157 1    
    69   33  158 1    
    70   34   35 am   BACKBONE|DICT|INTERRES
    71   34  159 1    
    72   35   36 2    
    73   35   37 1    
    74   37   38 1    
    75   37   39 1    
    76   37  160 1    
    77   38  161 1    
    78   38  162 1    
    79   38  163 1    
    80   39   40 am   BACKBONE|DICT|INTERRES
    81   39  164 1    
    82   40   41 2    
    83   40   42 1    
    84   42   43 1    
    85   42   44 1    
    86   42  165 1    
    87   43  166 1    
    88   43  167 1    
    89   43  168 1    
    90   44   45 am   BACKBONE|DICT|INTERRES
    91   44  169 1    
    92   45   46 2    
    93   45   47 1    
    94   47   48 1    
    95   47   49 1    
    96   47  170 1    
    97   48  171 1    
    98   48  172 1    
    99   48  173 1    
   100   49   50 am   BACKBONE|DICT|INTERRES
   101   49  174 1    
   102   50   51 2    
   103   50   52 1    
   104   52   53 1    
   105   52   54 1    
   106   52  175 1    
   107   53  176 1    
   108   53  177 1    
   109   53  178 1    
   110   54   55 am   BACKBONE|DICT|INTERRES
   111   54  179 1    
   112   55   56 2    
   113   55   57 1    
   114   57   58 1    
   115   57   59 1    
   116   57  180 1    
   117   58  181 1    
   118   58  182 1    
   119   58  183 1    
   120   59   60 am   BACKBONE|DICT|INTERRES
   121   59  184 1    
   122   60   61 2    
   123   60   62 1    
   124   62   63 1    
   125   62   64 1    
   126   62  185 1    
   127   63  186 1    
   128   63  187 1    
   129   63  188 1    
   130   64   65 am   BACKBONE|DICT|INTERRES
   131   64  189 1    
   132   65   66 2    
   133   67   68 2    
   134   67   69 am   BACKBONE|DICT|INTERRES
   135   69   70 1    
   136   69  190 1    
   137   70   71 1    
   138   70   72 1    
   139   70  191 1    
   140   71  192 1    
   141   71  193 1    
   142   71  194 1    
   143   72   73 2    
   144   72   74 am   BACKBONE|DICT|INTERRES
   145   74   75 1    
   146   74  195 1    
   147   75   76 1    
   148   75   77 1    
   149   75  196 1    
   150   76  197 1    
   151   76  198 1    
   152   76  199 1    
   153   77   78 2    
   154   77   79 am   BACKBONE|DICT|INTERRES
   155   79   80 1    
   156   79  200 1    
   157   80   81 1    
   158   80   82 1    
   159   80  201 1    
   160   81  202 1    
   161   81  203 1    
   162   81  204 1    
   163   82   83 2    
   164   82   84 am   BACKBONE|DICT|INTERRES
   165   84   85 1    
   166   84  205 1    
   167   85   86 1    
   168   85   87 1    
   169   85  206 1    
   170   86  207 1    
   171   86  208 1    
   172   86  209 1    
   173   87   88 2    
   174   87   89 am   BACKBONE|DICT|INTERRES
   175   89   90 1    
   176   89  210 1    
   177   90   91 1    
   178   90   92 1    
   179   90  211 1    
   180   91  212 1    
   181   91  213 1    
   182   91  214 1    
   183   92   93 2    
   184   92   94 am   BACKBONE|DICT|INTERRES
   185   94   95 1    
   186   94  215 1    
   187   95   96 1    
   188   95   97 1    
   189   95  216 1    
   190   96  217 1    
   191   96  218 1    
   192   96  219 1    
   193   97   98 2    
   194   97   99 am   BACKBONE|DICT|INTERRES
   195   99  100 1    
   196   99  220 1    
   197  100  101 1    
   198  100  102 1    
   199  100  221 1    
   200  101  222 1    
   201  101  223 1    
   202  101  224 1    
   203  102  103 2    
   204  102  104 am   BACKBONE|DICT|INTERRES
   205  104  105 1    
   206  104  225 1    
   207  105  106 1    
   208  105  107 1    
   209  105  226 1    
   210  106  227 1    
   211  106  228 1    
   212  106  229 1    
   213  107  108 2    
   214  107  109 am   BACKBONE|DICT|INTERRES
   215  109  110 1    
   216  109  230 1    
   217  110  111 1    
   218  110  112 1    
   219  110  231 1    
   220  111  232 1    
   221  111  233 1    
   222  111  234 1    
   223  112  113 2    
   224  112  114 am   BACKBONE|DICT|INTERRES
   225  114  115 1    
   226  114  235 1    
   227  115  116 1    
   228  115  117 1    
   229  115  236 1    
   230  116  237 1    
   231  116  238 1    
   232  116  239 1    
   233  117  118 2    
   234  117  119 am   BACKBONE|DICT|INTERRES
   235  119  120 1    
   236  119  240 1    
   237  120  121 1    
   238  120  124 1    
   239  120  241 1    
   240  121  122 am   BACKBONE|DICT|INTERRES
   241  121  123 2    
   242  122  242 1    
   243  122  243 1    
   244  124  125 1    
   245  124  244 1    
   246  124  245 1    
   247  125  126 1    
   248  126  246 1    
   249  126  247 1    
@<TRIPOS>SUBSTRUCTURE
     1 UNK         1 GROUP             0       ****    0 ROOT    
