@<TRIPOS>MOLECULE
3R540
247   249    1
SMALL
USER_CHARGES


@<TRIPOS>ATOM
      1 CA         -1.9056  -13.0601  -51.7623 C.3       0 UNK        -0.1800 
      2 C          -2.2815  -13.7846  -50.4780 C.2       0 UNK         0.5000 
      3 O          -1.4697  -14.5332  -49.9362 O.2       0 UNK        -0.5000 
      4 N          -3.4980  -13.5472  -49.9695 N.am      1 UNK        -0.5000 
      5 CA         -4.0515  -14.1794  -48.7623 C.3       1 UNK         0.1400 
      6 C6         -5.5301  -13.7768  -48.5296 C.3       23 UNK        -0.0398 
      7 S7         -6.6541  -14.3489  -49.8530 S.3       23 UNK        -0.2404 
      8 C8         -7.6127  -15.6500  -49.0043 C.3       23 UNK        -0.0205 
      9 C9         -6.8825  -16.9847  -49.0133 C.ar      23 UNK        -0.0193 
     10 C10        -7.2657  -17.9928  -49.9027 C.ar      23 UNK        -0.1150 
     11 C11        -6.5629  -19.2001  -49.9547 C.ar      23 UNK        -0.0193 
     12 C12        -5.4772  -19.4017  -49.0972 C.ar      23 UNK        -0.1150 
     13 C13        -5.1026  -18.4109  -48.1861 C.ar      23 UNK        -0.0193 
     14 C14        -5.8168  -17.2126  -48.1398 C.ar      23 UNK        -0.1150 
     15 C15        -3.9118  -18.6131  -47.2675 C.3       23 UNK        -0.0205 
     16 S16        -4.4435  -19.0361  -45.5809 S.3       23 UNK        -0.2404 
     17 C17        -2.8217  -19.1671  -44.7536 C.3       23 UNK        -0.0398 
     18 CA         -2.2983  -20.5918  -44.4314 C.3       11 UNK         0.1400 
     19 N          -2.9484  -21.2454  -43.2876 N.am      11 UNK        -0.5000 
     20 C          -4.1588  -21.8131  -43.1659 C.2       10 UNK         0.5000 
     21 O          -4.9889  -21.8778  -44.0717 O.2       10 UNK        -0.5000 
     22 CA         -4.4915  -22.4695  -41.8086 C.3       10 UNK         0.1400 
     23 CB         -4.5696  -23.9973  -41.9644 C.3       10 UNK        -0.1800 
     24 N          -3.5131  -22.1627  -40.7627 N.am      10 UNK        -0.5000 
     25 C          -3.4804  -21.0330  -40.0421 C.2       9 UNK         0.5000 
     26 O          -4.3290  -20.1448  -40.1211 O.2       9 UNK        -0.5000 
     27 CA         -2.2690  -20.8543  -39.1027 C.3       9 UNK         0.1400 
     28 CB         -2.5972  -21.3738  -37.6948 C.3       9 UNK        -0.1800 
     29 N          -1.0520  -21.5168  -39.5907 N.am      9 UNK        -0.5000 
     30 C          -0.4102  -21.1839  -40.7182 C.2       8 UNK         0.5000 
     31 O          -0.7780  -20.2784  -41.4692 O.2       8 UNK        -0.5000 
     32 CA          0.7799  -22.0664  -41.1233 C.3       8 UNK         0.1400 
     33 CB          0.2794  -23.2748  -41.9336 C.3       8 UNK        -0.1800 
     34 N           1.7196  -21.3040  -41.9426 N.am      8 UNK        -0.5000 
     35 C           2.6968  -20.5253  -41.4619 C.2       7 UNK         0.5000 
     36 O           2.9819  -20.4431  -40.2664 O.2       7 UNK        -0.5000 
     37 CA          3.4865  -19.6934  -42.4910 C.3       7 UNK         0.1400 
     38 CB          4.7272  -20.4599  -42.9730 C.3       7 UNK        -0.1800 
     39 N           2.6792  -19.3062  -43.6506 N.am      7 UNK        -0.5000 
     40 C           1.7525  -18.3396  -43.6427 C.2       6 UNK         0.5000 
     41 O           1.4926  -17.6658  -42.6443 O.2       6 UNK        -0.5000 
     42 CA          1.0174  -18.0705  -44.9762 C.3       6 UNK         0.1400 
     43 CB          0.0076  -16.9126  -44.8621 C.3       6 UNK        -0.1800 
     44 N           1.9386  -17.7771  -46.0764 N.am      6 UNK        -0.5000 
     45 C           2.6894  -18.6748  -46.7327 C.2       5 UNK         0.5000 
     46 O           2.6682  -19.8796  -46.4826 O.2       5 UNK        -0.5000 
     47 CA          3.6369  -18.1556  -47.8346 C.3       5 UNK         0.1400 
     48 CB          3.0086  -18.3690  -49.2193 C.3       5 UNK        -0.1800 
     49 N           3.9862  -16.7426  -47.6950 N.am      5 UNK        -0.5000 
     50 C           4.6948  -16.2075  -46.6911 C.2       4 UNK         0.5000 
     51 O           5.2410  -16.8745  -45.8119 O.2       4 UNK        -0.5000 
     52 CA          4.7878  -14.6661  -46.6428 C.3       4 UNK         0.1400 
     53 CB          6.1884  -14.2004  -47.0704 C.3       4 UNK        -0.1800 
     54 N           3.7869  -13.9549  -47.4514 N.am      4 UNK        -0.5000 
     55 C           2.4569  -14.0431  -47.3088 C.2       3 UNK         0.5000 
     56 O           1.9090  -14.7986  -46.5033 O.2       3 UNK        -0.5000 
     57 CA          1.6127  -13.1921  -48.2779 C.3       3 UNK         0.1400 
     58 CB          1.6225  -13.8218  -49.6805 C.3       3 UNK        -0.1800 
     59 N           0.2258  -13.0405  -47.8281 N.am      3 UNK        -0.5000 
     60 C          -0.1462  -12.3331  -46.7496 C.2       2 UNK         0.5000 
     61 O           0.6464  -11.6707  -46.0766 O.2       2 UNK        -0.5000 
     62 CA         -1.6391  -12.3439  -46.3575 C.3       2 UNK         0.1400 
     63 CB         -2.1177  -10.9559  -45.8941 C.3       2 UNK        -0.1800 
     64 N          -2.4958  -12.7832  -47.4592 N.am      2 UNK        -0.5000 
     65 C          -3.2264  -13.9059  -47.4822 C.2       1 UNK         0.5000 
     66 O          -3.2719  -14.7139  -46.5544 O.2       1 UNK        -0.5000 
     67 C          -2.1093  -21.4858  -45.6747 C.2       11 UNK         0.5000 
     68 O          -0.9757  -21.6702  -46.1221 O.2       11 UNK        -0.5000 
     69 N          -3.2025  -22.0646  -46.1839 N.am      12 UNK        -0.5000 
     70 CA         -3.2540  -22.9332  -47.3592 C.3       12 UNK         0.1400 
     71 CB         -4.7197  -23.2443  -47.6928 C.3       12 UNK        -0.1800 
     72 C          -2.4485  -24.2331  -47.1931 C.2       12 UNK         0.5000 
     73 O          -1.9778  -24.7771  -48.1894 O.2       12 UNK        -0.5000 
     74 N          -2.2674  -24.6800  -45.9429 N.am      13 UNK        -0.5000 
     75 CA         -1.4338  -25.8237  -45.5728 C.3       13 UNK         0.1400 
     76 CB         -1.6794  -26.1589  -44.0936 C.3       13 UNK        -0.1800 
     77 C           0.0693  -25.5926  -45.8302 C.2       13 UNK         0.5000 
     78 O           0.7818  -26.5530  -46.1234 O.2       13 UNK        -0.5000 
     79 N           0.5199  -24.3344  -45.7249 N.am      14 UNK        -0.5000 
     80 CA          1.8976  -23.9269  -46.0016 C.3       14 UNK         0.1400 
     81 CB          2.3154  -22.8244  -45.0187 C.3       14 UNK        -0.1800 
     82 C           2.0546  -23.4418  -47.4499 C.2       14 UNK         0.5000 
     83 O           3.0307  -23.8003  -48.1093 O.2       14 UNK        -0.5000 
     84 N           1.0849  -22.6471  -47.9222 N.am      15 UNK        -0.5000 
     85 CA          1.0855  -22.0421  -49.2540 C.3       15 UNK         0.1400 
     86 CB          0.0990  -20.8629  -49.2491 C.3       15 UNK        -0.1800 
     87 C           0.7442  -23.0229  -50.3931 C.2       15 UNK         0.5000 
     88 O           0.9185  -22.6687  -51.5605 O.2       15 UNK        -0.5000 
     89 N           0.2072  -24.2033  -50.0447 N.am      16 UNK        -0.5000 
     90 CA         -0.3287  -25.2396  -50.9392 C.3       16 UNK         0.1400 
     91 CB          0.8068  -25.8929  -51.7536 C.3       16 UNK        -0.1800 
     92 C          -1.4741  -24.7091  -51.8294 C.2       16 UNK         0.5000 
     93 O          -1.6316  -25.1547  -52.9677 O.2       16 UNK        -0.5000 
     94 N          -2.2014  -23.7074  -51.3091 N.am      17 UNK        -0.5000 
     95 CA         -3.1486  -22.7988  -51.9678 C.3       17 UNK         0.1400 
     96 CB         -4.3653  -23.5594  -52.5265 C.3       17 UNK        -0.1800 
     97 C          -2.4984  -21.9001  -53.0428 C.2       17 UNK         0.5000 
     98 O          -2.6927  -20.6862  -53.0169 O.2       17 UNK        -0.5000 
     99 N          -1.7199  -22.5040  -53.9484 N.am      18 UNK        -0.5000 
    100 CA        -1.0916  -21.9019  -55.1232 C.3       18 UNK         0.1400 
    101 CB        -0.2458  -22.9680  -55.8358 C.3       18 UNK        -0.1800 
    102 C         -0.2484  -20.6449  -54.8453 C.2       18 UNK         0.5000 
    103 O         -0.3555  -19.6792  -55.6016 O.2       18 UNK        -0.5000 
    104 N          0.5499  -20.6530  -53.7672 N.am      19 UNK        -0.5000 
    105 CA         1.4091  -19.5216  -53.4006 C.3       19 UNK         0.1400 
    106 CB         2.5296  -20.0000  -52.4673 C.3       19 UNK        -0.1800 
    107 C          0.6364  -18.3424  -52.7763 C.2       19 UNK         0.5000 
    108 O          1.1458  -17.2217  -52.7893 O.2       19 UNK        -0.5000 
    109 N         -0.5746  -18.6017  -52.2627 N.am      20 UNK        -0.5000 
    110 CA        -1.4935  -17.5792  -51.7586 C.3       20 UNK         0.1400 
    111 CB        -2.3036  -18.1597  -50.5876 C.3       20 UNK        -0.1800 
    112 C         -2.4333  -17.0536  -52.8615 C.2       20 UNK         0.5000 
    113 O         -3.1179  -16.0557  -52.6414 O.2       20 UNK        -0.5000 
    114 N         -2.4814  -17.7402  -54.0139 N.am      21 UNK        -0.5000 
    115 CA        -3.2862  -17.4955  -55.2202 C.3       21 UNK         0.1400 
    116 CB        -2.9463  -16.1294  -55.8457 C.3       21 UNK        -0.1800 
    117 C         -4.8108  -17.6587  -55.0380 C.2       21 UNK         0.5000 
    118 O         -5.4798  -18.1156  -55.9656 O.2       21 UNK        -0.5000 
    119 N         -5.3241  -17.2978  -53.8580 N.am      22 UNK        -0.5000 
    120 CA        -6.7190  -17.4108  -53.4055 C.3       22 UNK         0.1400 
    121 C         -7.7104  -16.4185  -54.0861 C.2       22 UNK         0.5000 
    122 N         -7.2449  -15.3914  -54.7866 N.am      22 UNK        -0.7600 
    123 O         -8.9234  -16.5598  -53.9553 O.2       22 UNK        -0.5000 
    124 C124       -7.2572  -18.8720  -53.3934 C.3       23 UNK        -0.0398 
    125 S125       -6.1624  -20.0719  -52.5513 S.3       23 UNK        -0.2404 
    126 C126       -6.9713  -20.2874  -50.9357 C.3       23 UNK        -0.0205 
    127 H127       -1.5058  -13.7682  -52.4882 H         1 UNK         0.0600 
    128 H128       -2.7657  -12.5639  -52.2122 H         1 UNK         0.0600 
    129 H129       -1.1414  -12.3099  -51.5601 H         1 UNK         0.0600 
    130 H130       -4.1302  -12.9370  -50.4675 H         1 UNK         0.3000 
    131 H131       -4.0081  -15.2566  -48.9314 H         1 UNK         0.0600 
    132 H132       -5.6164  -12.6909  -48.4625 H         1 UNK         0.0800 
    133 H133       -5.8913  -14.1545  -47.5718 H         1 UNK         0.0800 
    134 H134       -8.5750  -15.7494  -49.5087 H         1 UNK         0.0800 
    135 H135       -7.8427  -15.3522  -47.9805 H         1 UNK         0.0800 
    136 H136       -8.1010  -17.8315  -50.5692 H         1 UNK         0.1150 
    137 H137       -4.9212  -20.3270  -49.1436 H         1 UNK         0.1150 
    138 H138       -5.5253  -16.4524  -47.4300 H         1 UNK         0.1150 
    139 H139       -3.2614  -19.3982  -47.6561 H         1 UNK         0.0800 
    140 H140       -3.3160  -17.6987  -47.2446 H         1 UNK         0.0800 
    141 H141       -2.0868  -18.6521  -45.3708 H         1 UNK         0.0800 
    142 H142       -2.8765  -18.5890  -43.8302 H         1 UNK         0.0800 
    143 H143       -1.2818  -20.4370  -44.0672 H         1 UNK         0.0600 
    144 H144       -2.3826  -21.2197  -42.4487 H         1 UNK         0.3000 
    145 H145       -5.4732  -22.1048  -41.4990 H         1 UNK         0.0600 
    146 H146       -4.8614  -24.4741  -41.0285 H         1 UNK         0.0600 
    147 H147       -5.3103  -24.2794  -42.7139 H         1 UNK         0.0600 
    148 H148       -3.6131  -24.4206  -42.2727 H         1 UNK         0.0600 
    149 H149       -2.7868  -22.8463  -40.6090 H         1 UNK         0.3000 
    150 H150       -2.0634  -19.7839  -39.0331 H         1 UNK         0.0600 
    151 H151       -3.4846  -20.8818  -37.2941 H         1 UNK         0.0600 
    152 H152       -1.7789  -21.1788  -37.0014 H         1 UNK         0.0600 
    153 H153       -2.7894  -22.4474  -37.6957 H         1 UNK         0.0600 
    154 H154       -0.7000  -22.2795  -39.0294 H         1 UNK         0.3000 
    155 H155        1.2810  -22.4272  -40.2225 H         1 UNK         0.0600 
    156 H156        1.0980  -23.9525  -42.1750 H         1 UNK         0.0600 
    157 H157       -0.1923  -22.9703  -42.8689 H         1 UNK         0.0600 
    158 H158       -0.4535  -23.8525  -41.3690 H         1 UNK         0.0600 
    159 H159        1.5203  -21.2532  -42.9289 H         1 UNK         0.3000 
    160 H160        3.8273  -18.7844  -41.9904 H         1 UNK         0.0600 
    161 H161        5.3093  -19.8650  -43.6773 H         1 UNK         0.0600 
    162 H162        4.4605  -21.3958  -43.4633 H         1 UNK         0.0600 
    163 H163        5.3820  -20.7051  -42.1359 H         1 UNK         0.0600 
    164 H164        2.8593  -19.7807  -44.5302 H         1 UNK         0.3000 
    165 H165        0.4622  -18.9766  -45.2262 H         1 UNK         0.0600 
    166 H166        0.4998  -15.9762  -44.5981 H         1 UNK         0.0600 
    167 H167       -0.5260  -16.7539  -45.7997 H         1 UNK         0.0600 
    168 H168       -0.7356  -17.1114  -44.0896 H         1 UNK         0.0600 
    169 H169        2.0345  -16.7946  -46.3153 H         1 UNK         0.3000 
    170 H170        4.5582  -18.7388  -47.7784 H         1 UNK         0.0600 
    171 H171        2.7971  -19.4241  -49.3846 H         1 UNK         0.0600 
    172 H172        2.0700  -17.8235  -49.3288 H         1 UNK         0.0600 
    173 H173        3.6808  -18.0460  -50.0142 H         1 UNK         0.0600 
    174 H174        3.5813  -16.1113  -48.3695 H         1 UNK         0.3000 
    175 H175        4.6334  -14.3728  -45.6025 H         1 UNK         0.0600 
    176 H176        6.3894  -14.4402  -48.1153 H         1 UNK         0.0600 
    177 H177        6.3033  -13.1238  -46.9434 H         1 UNK         0.0600 
    178 H178        6.9621  -14.6799  -46.4691 H         1 UNK         0.0600 
    179 H179        4.1553  -13.3284  -48.1527 H         1 UNK         0.3000 
    180 H180        2.0607  -12.1982  -48.3395 H         1 UNK         0.0600 
    181 H181        1.2120  -14.8326  -49.6708 H         1 UNK         0.0600 
    182 H182        2.6347  -13.8845  -50.0813 H         1 UNK         0.0600 
    183 H183        1.0367  -13.2293  -50.3832 H         1 UNK         0.0600 
    184 H184       -0.4679  -13.5901  -48.3227 H         1 UNK         0.3000 
    185 H185       -1.7269  -13.0282  -45.5113 H         1 UNK         0.0600 
    186 H186       -1.5557  -10.6130  -45.0245 H         1 UNK         0.0600 
    187 H187       -2.0002  -10.2079  -46.6790 H         1 UNK         0.0600 
    188 H188       -3.1692  -10.9784  -45.6072 H         1 UNK         0.0600 
    189 H189       -2.5035  -12.1944  -48.2800 H         1 UNK         0.3000 
    190 H190       -4.0787  -21.9019  -45.6911 H         1 UNK         0.3000 
    191 H191       -2.8233  -22.3825  -48.1967 H         1 UNK         0.0600 
    192 H192       -4.7960  -23.8438  -48.6011 H         1 UNK         0.0600 
    193 H193       -5.2914  -22.3310  -47.8567 H         1 UNK         0.0600 
    194 H194       -5.2043  -23.7992  -46.8884 H         1 UNK         0.0600 
    195 H195       -2.7081  -24.1729  -45.1906 H         1 UNK         0.3000 
    196 H196       -1.7456  -26.6789  -46.1761 H         1 UNK         0.0600 
    197 H197       -1.0905  -27.0242  -43.7863 H         1 UNK         0.0600 
    198 H198       -2.7270  -26.3997  -43.9119 H         1 UNK         0.0600 
    199 H199       -1.4068  -25.3288  -43.4412 H         1 UNK         0.0600 
    200 H200       -0.1423  -23.5930  -45.5396 H         1 UNK         0.3000 
    201 H201        2.5763  -24.7707  -45.8593 H         1 UNK         0.0600 
    202 H202        2.3996  -23.2167  -44.0067 H         1 UNK         0.0600 
    203 H203        1.6041  -21.9981  -45.0108 H         1 UNK         0.0600 
    204 H204        3.2902  -22.4156  -45.2871 H         1 UNK         0.0600 
    205 H205        0.3425  -22.3524  -47.2940 H         1 UNK         0.3000 
    206 H206        2.0867  -21.6562  -49.4514 H         1 UNK         0.0600 
    207 H207        0.3620  -20.1312  -48.4848 H         1 UNK         0.0600 
    208 H208        0.1010  -20.3450  -50.2070 H         1 UNK         0.0600 
    209 H209       -0.9223  -21.1910  -49.0574 H         1 UNK         0.0600 
    210 H210        0.0434  -24.3690  -49.0600 H         1 UNK         0.3000 
    211 H211       -0.7654  -26.0088  -50.3011 H         1 UNK         0.0600 
    212 H212        1.2430  -25.1974  -52.4714 H         1 UNK         0.0600 
    213 H213        0.4409  -26.7539  -52.3141 H         1 UNK         0.0600 
    214 H214        1.6054  -26.2466  -51.1016 H         1 UNK         0.0600 
    215 H215       -1.9717  -23.4634  -50.3568 H         1 UNK         0.3000 
    216 H216       -3.5144  -22.1313  -51.1856 H         1 UNK         0.0600 
    217 H217       -4.0892  -24.2510  -53.3224 H         1 UNK         0.0600 
    218 H218       -5.0986  -22.8680  -52.9419 H         1 UNK         0.0600 
    219 H219       -4.8643  -24.1302  -51.7436 H         1 UNK         0.0600 
    220 H220       -1.6036  -23.5084  -53.8419 H         1 UNK         0.3000 
    221 H221       -1.8993  -21.6059  -55.7953 H         1 UNK         0.0600 
    222 H222        0.5449  -23.3499  -55.1884 H         1 UNK         0.0600 
    223 H223       -0.8589  -23.8134  -56.1488 H         1 UNK         0.0600 
    224 H224        0.2274  -22.5612  -56.7305 H         1 UNK         0.0600 
    225 H225        0.5834  -21.4712  -53.1652 H         1 UNK         0.3000 
    226 H226        1.8833  -19.1479  -54.3108 H         1 UNK         0.0600 
    227 H227        3.0795  -20.8349  -52.9020 H         1 UNK         0.0600 
    228 H228        3.2466  -19.2002  -52.2792 H         1 UNK         0.0600 
    229 H229        2.1391  -20.3204  -51.5042 H         1 UNK         0.0600 
    230 H230       -0.9494  -19.5391  -52.3398 H         1 UNK         0.3000 
    231 H231       -0.9242  -16.7277  -51.3816 H         1 UNK         0.0600 
    232 H232       -2.9082  -19.0137  -50.8947 H         1 UNK         0.0600 
    233 H233       -2.9823  -17.4104  -50.1778 H         1 UNK         0.0600 
    234 H234       -1.6511  -18.4799  -49.7758 H         1 UNK         0.0600 
    235 H235       -1.9230  -18.5820  -54.0556 H         1 UNK         0.3000 
    236 H236       -2.9788  -18.2652  -55.9299 H         1 UNK         0.0600 
    237 H237       -1.8779  -16.0428  -56.0434 H         1 UNK         0.0600 
    238 H238       -3.4646  -15.9981  -56.7963 H         1 UNK         0.0600 
    239 H239       -3.2367  -15.3002  -55.2002 H         1 UNK         0.0600 
    240 H240       -4.6794  -16.8772  -53.1944 H         1 UNK         0.3000 
    241 H241       -6.6845  -17.0722  -52.3719 H         1 UNK         0.0600 
    242 H242       -6.2526  -15.2541  -54.8917 H         1 UNK         0.3800 
    243 H243       -7.8910  -14.7476  -55.2154 H         1 UNK         0.3800 
    244 H244       -8.2428  -18.9093  -52.9279 H         1 UNK         0.0800 
    245 H245       -7.4039  -19.2223  -54.4158 H         1 UNK         0.0800 
    246 H246       -6.6903  -21.2637  -50.5377 H         1 UNK         0.0800 
    247 H247       -8.0556  -20.3129  -51.0517 H         1 UNK         0.0800 
@<TRIPOS>BOND
     1    1    2 1    
     2    1  127 1    
     3    1  128 1    
     4    1  129 1    
     5    2    3 2    
     6    2    4 am   BACKBONE|DICT|INTERRES
     7    4    5 1    
     8    4  130 1    
     9    5    6 1    
    10    5   65 1    
    11    5  131 1    
    12    6    7 1    
    13    6  132 1    
    14    6  133 1    
    15    7    8 1    
    16    8    9 1    
    17    8  134 1    
    18    8  135 1    
    19    9   10 ar   
    20    9   14 ar   
    21   10   11 ar   
    22   10  136 1    
    23   11   12 ar   
    24   11  126 1    
    25   12   13 ar   
    26   12  137 1    
    27   13   14 ar   
    28   13   15 1    
    29   14  138 1    
    30   15   16 1    
    31   15  139 1    
    32   15  140 1    
    33   16   17 1    
    34   17   18 1    
    35   17  141 1    
    36   17  142 1    
    37   18   19 1    
    38   18   67 1    
    39   18  143 1    
    40   19   20 am   BACKBONE|DICT|INTERRES
    41   19  144 1    
    42   20   21 2    
    43   20   22 1    
    44   22   23 1    
    45   22   24 1    
    46   22  145 1    
    47   23  146 1    
    48   23  147 1    
    49   23  148 1    
    50   24   25 am   BACKBONE|DICT|INTERRES
    51   24  149 1    
    52   25   26 2    
    53   25   27 1    
    54   27   28 1    
    55   27   29 1    
    56   27  150 1    
    57   28  151 1    
    58   28  152 1    
    59   28  153 1    
    60   29   30 am   BACKBONE|DICT|INTERRES
    61   29  154 1    
    62   30   31 2    
    63   30   32 1    
    64   32   33 1    
    65   32   34 1    
    66   32  155 1    
    67   33  156 1    
    68   33  157 1    
    69   33  158 1    
    70   34   35 am   BACKBONE|DICT|INTERRES
    71   34  159 1    
    72   35   36 2    
    73   35   37 1    
    74   37   38 1    
    75   37   39 1    
    76   37  160 1    
    77   38  161 1    
    78   38  162 1    
    79   38  163 1    
    80   39   40 am   BACKBONE|DICT|INTERRES
    81   39  164 1    
    82   40   41 2    
    83   40   42 1    
    84   42   43 1    
    85   42   44 1    
    86   42  165 1    
    87   43  166 1    
    88   43  167 1    
    89   43  168 1    
    90   44   45 am   BACKBONE|DICT|INTERRES
    91   44  169 1    
    92   45   46 2    
    93   45   47 1    
    94   47   48 1    
    95   47   49 1    
    96   47  170 1    
    97   48  171 1    
    98   48  172 1    
    99   48  173 1    
   100   49   50 am   BACKBONE|DICT|INTERRES
   101   49  174 1    
   102   50   51 2    
   103   50   52 1    
   104   52   53 1    
   105   52   54 1    
   106   52  175 1    
   107   53  176 1    
   108   53  177 1    
   109   53  178 1    
   110   54   55 am   BACKBONE|DICT|INTERRES
   111   54  179 1    
   112   55   56 2    
   113   55   57 1    
   114   57   58 1    
   115   57   59 1    
   116   57  180 1    
   117   58  181 1    
   118   58  182 1    
   119   58  183 1    
   120   59   60 am   BACKBONE|DICT|INTERRES
   121   59  184 1    
   122   60   61 2    
   123   60   62 1    
   124   62   63 1    
   125   62   64 1    
   126   62  185 1    
   127   63  186 1    
   128   63  187 1    
   129   63  188 1    
   130   64   65 am   BACKBONE|DICT|INTERRES
   131   64  189 1    
   132   65   66 2    
   133   67   68 2    
   134   67   69 am   BACKBONE|DICT|INTERRES
   135   69   70 1    
   136   69  190 1    
   137   70   71 1    
   138   70   72 1    
   139   70  191 1    
   140   71  192 1    
   141   71  193 1    
   142   71  194 1    
   143   72   73 2    
   144   72   74 am   BACKBONE|DICT|INTERRES
   145   74   75 1    
   146   74  195 1    
   147   75   76 1    
   148   75   77 1    
   149   75  196 1    
   150   76  197 1    
   151   76  198 1    
   152   76  199 1    
   153   77   78 2    
   154   77   79 am   BACKBONE|DICT|INTERRES
   155   79   80 1    
   156   79  200 1    
   157   80   81 1    
   158   80   82 1    
   159   80  201 1    
   160   81  202 1    
   161   81  203 1    
   162   81  204 1    
   163   82   83 2    
   164   82   84 am   BACKBONE|DICT|INTERRES
   165   84   85 1    
   166   84  205 1    
   167   85   86 1    
   168   85   87 1    
   169   85  206 1    
   170   86  207 1    
   171   86  208 1    
   172   86  209 1    
   173   87   88 2    
   174   87   89 am   BACKBONE|DICT|INTERRES
   175   89   90 1    
   176   89  210 1    
   177   90   91 1    
   178   90   92 1    
   179   90  211 1    
   180   91  212 1    
   181   91  213 1    
   182   91  214 1    
   183   92   93 2    
   184   92   94 am   BACKBONE|DICT|INTERRES
   185   94   95 1    
   186   94  215 1    
   187   95   96 1    
   188   95   97 1    
   189   95  216 1    
   190   96  217 1    
   191   96  218 1    
   192   96  219 1    
   193   97   98 2    
   194   97   99 am   BACKBONE|DICT|INTERRES
   195   99  100 1    
   196   99  220 1    
   197  100  101 1    
   198  100  102 1    
   199  100  221 1    
   200  101  222 1    
   201  101  223 1    
   202  101  224 1    
   203  102  103 2    
   204  102  104 am   BACKBONE|DICT|INTERRES
   205  104  105 1    
   206  104  225 1    
   207  105  106 1    
   208  105  107 1    
   209  105  226 1    
   210  106  227 1    
   211  106  228 1    
   212  106  229 1    
   213  107  108 2    
   214  107  109 am   BACKBONE|DICT|INTERRES
   215  109  110 1    
   216  109  230 1    
   217  110  111 1    
   218  110  112 1    
   219  110  231 1    
   220  111  232 1    
   221  111  233 1    
   222  111  234 1    
   223  112  113 2    
   224  112  114 am   BACKBONE|DICT|INTERRES
   225  114  115 1    
   226  114  235 1    
   227  115  116 1    
   228  115  117 1    
   229  115  236 1    
   230  116  237 1    
   231  116  238 1    
   232  116  239 1    
   233  117  118 2    
   234  117  119 am   BACKBONE|DICT|INTERRES
   235  119  120 1    
   236  119  240 1    
   237  120  121 1    
   238  120  124 1    
   239  120  241 1    
   240  121  122 am   BACKBONE|DICT|INTERRES
   241  121  123 2    
   242  122  242 1    
   243  122  243 1    
   244  124  125 1    
   245  124  244 1    
   246  124  245 1    
   247  125  126 1    
   248  126  246 1    
   249  126  247 1    
@<TRIPOS>SUBSTRUCTURE
     1 UNK         1 GROUP             0       ****    0 ROOT    
