@<TRIPOS>MOLECULE
3R540
247   249    1
SMALL
USER_CHARGES


@<TRIPOS>ATOM
      1 CA         -1.4410  -10.0608  -46.8547 C.3       0 UNK        -0.1800 
      2 C          -2.5637  -10.8384  -47.5378 C.2       0 UNK         0.5000 
      3 O          -3.6920  -10.3531  -47.5869 O.2       0 UNK        -0.5000 
      4 N          -2.3123  -12.0361  -48.0840 N.am      1 UNK        -0.5000 
      5 CA         -1.0390  -12.7702  -48.0654 C.3       1 UNK         0.1400 
      6 C6         -0.9303  -13.7513  -49.2591 C.3       23 UNK        -0.0398 
      7 S7         -2.2660  -14.9989  -49.3204 S.3       23 UNK        -0.2404 
      8 C8         -2.0896  -15.6123  -51.0304 C.3       23 UNK        -0.0205 
      9 C9         -0.8775  -16.5043  -51.3134 C.ar      23 UNK        -0.0193 
     10 C10        -0.6397  -16.8808  -52.6381 C.ar      23 UNK        -0.1150 
     11 C11         0.4113  -17.7412  -52.9644 C.ar      23 UNK        -0.0193 
     12 C12         1.2444  -18.2244  -51.9530 C.ar      23 UNK        -0.1150 
     13 C13         1.0342  -17.8493  -50.6246 C.ar      23 UNK        -0.0193 
     14 C14        -0.0217  -16.9864  -50.3123 C.ar      23 UNK        -0.1150 
     15 C15         1.9425  -18.3879  -49.5270 C.3       23 UNK        -0.0205 
     16 S16         1.3741  -20.0034  -48.9070 S.3       23 UNK        -0.2404 
     17 C17        -0.1604  -19.4992  -48.0708 C.3       23 UNK        -0.0398 
     18 CA         -0.8777  -20.6583  -47.3487 C.3       11 UNK         0.1400 
     19 N          -0.1627  -21.1349  -46.1599 N.am      11 UNK        -0.5000 
     20 C          -0.5375  -22.1988  -45.4333 C.2       10 UNK         0.5000 
     21 O          -1.4956  -22.9168  -45.7185 O.2       10 UNK        -0.5000 
     22 CA          0.2443  -22.4770  -44.1384 C.3       10 UNK         0.1400 
     23 CB          1.5775  -23.1775  -44.4391 C.3       10 UNK        -0.1800 
     24 N           0.4731  -21.2647  -43.3509 N.am      10 UNK        -0.5000 
     25 C          -0.5024  -20.5224  -42.8054 C.2       9 UNK         0.5000 
     26 O          -1.6961  -20.8144  -42.8689 O.2       9 UNK        -0.5000 
     27 CA         -0.0866  -19.2101  -42.1167 C.3       9 UNK         0.1400 
     28 CB          0.4294  -19.4729  -40.6945 C.3       9 UNK        -0.1800 
     29 N           0.9246  -18.4774  -42.8743 N.am      9 UNK        -0.5000 
     30 C           0.7484  -17.9711  -44.1019 C.2       8 UNK         0.5000 
     31 O          -0.3158  -18.0157  -44.7187 O.2       8 UNK        -0.5000 
     32 CA          1.9901  -17.3598  -44.7719 C.3       8 UNK         0.1400 
     33 CB          2.2523  -15.9405  -44.2533 C.3       8 UNK        -0.1800 
     34 N           3.1844  -18.1777  -44.5640 N.am      8 UNK        -0.5000 
     35 C           3.3580  -19.4057  -45.0701 C.2       7 UNK         0.5000 
     36 O           2.5275  -19.9786  -45.7730 O.2       7 UNK        -0.5000 
     37 CA          4.6618  -20.1274  -44.6870 C.3       7 UNK         0.1400 
     38 CB          5.8352  -19.6220  -45.5398 C.3       7 UNK        -0.1800 
     39 N           4.9865  -19.9755  -43.2676 N.am      7 UNK        -0.5000 
     40 C           4.2662  -20.5116  -42.2726 C.2       6 UNK         0.5000 
     41 O           3.2650  -21.2042  -42.4492 O.2       6 UNK        -0.5000 
     42 CA          4.7147  -20.1870  -40.8364 C.3       6 UNK         0.1400 
     43 CB          5.8448  -21.1301  -40.3970 C.3       6 UNK        -0.1800 
     44 N           5.1343  -18.7963  -40.6349 N.am      6 UNK        -0.5000 
     45 C           4.3648  -17.7243  -40.8644 C.2       5 UNK         0.5000 
     46 O           3.2571  -17.7770  -41.4008 O.2       5 UNK        -0.5000 
     47 CA          4.9371  -16.3578  -40.4472 C.3       5 UNK         0.1400 
     48 CB          5.5684  -15.6523  -41.6573 C.3       5 UNK        -0.1800 
     49 N           3.9004  -15.4939  -39.8810 N.am      5 UNK        -0.5000 
     50 C           3.2186  -15.7425  -38.7528 C.2       4 UNK         0.5000 
     51 O           3.4720  -16.6823  -37.9973 O.2       4 UNK        -0.5000 
     52 CA          2.0687  -14.7781  -38.3911 C.3       4 UNK         0.1400 
     53 CB          2.4777  -13.8689  -37.2211 C.3       4 UNK        -0.1800 
     54 N           1.6231  -13.9366  -39.5061 N.am      4 UNK        -0.5000 
     55 C           0.9202  -14.3712  -40.5594 C.2       3 UNK         0.5000 
     56 O           0.5470  -15.5386  -40.7035 O.2       3 UNK        -0.5000 
     57 CA          0.5957  -13.3243  -41.6361 C.3       3 UNK         0.1400 
     58 CB          1.8810  -12.7526  -42.2724 C.3       3 UNK        -0.1800 
     59 N          -0.2403  -13.9543  -42.6519 N.am      3 UNK        -0.5000 
     60 C          -0.9565  -13.3222  -43.5840 C.2       2 UNK         0.5000 
     61 O          -1.0261  -12.0945  -43.6823 O.2       2 UNK        -0.5000 
     62 CA         -1.7559  -14.2163  -44.5506 C.3       2 UNK         0.1400 
     63 CB         -3.1884  -14.4159  -44.0320 C.3       2 UNK        -0.1800 
     64 N          -1.8198  -13.6397  -45.8926 N.am      2 UNK        -0.5000 
     65 C          -0.7762  -13.4871  -46.7209 C.2       1 UNK         0.5000 
     66 O           0.3615  -13.8812  -46.4652 O.2       1 UNK        -0.5000 
     67 C          -2.3230  -20.2332  -47.0297 C.2       11 UNK         0.5000 
     68 O          -3.2219  -20.5487  -47.8091 O.2       11 UNK        -0.5000 
     69 N          -2.5217  -19.5388  -45.9007 N.am      12 UNK        -0.5000 
     70 CA         -3.8314  -19.1046  -45.4172 C.3       12 UNK         0.1400 
     71 CB         -3.6483  -18.1323  -44.2429 C.3       12 UNK        -0.1800 
     72 C          -4.7335  -20.2866  -45.0202 C.2       12 UNK         0.5000 
     73 O          -5.9145  -20.2871  -45.3672 O.2       12 UNK        -0.5000 
     74 N          -4.1559  -21.2821  -44.3327 N.am      13 UNK        -0.5000 
     75 CA         -4.8270  -22.5192  -43.9312 C.3       13 UNK         0.1400 
     76 CB         -3.9336  -23.2916  -42.9486 C.3       13 UNK        -0.1800 
     77 C          -5.2119  -23.4045  -45.1306 C.2       13 UNK         0.5000 
     78 O          -6.3179  -23.9458  -45.1554 O.2       13 UNK        -0.5000 
     79 N          -4.3037  -23.5205  -46.1092 N.am      14 UNK        -0.5000 
     80 CA         -4.5201  -24.2534  -47.3582 C.3       14 UNK         0.1400 
     81 CB         -3.1616  -24.4975  -48.0345 C.3       14 UNK        -0.1800 
     82 C          -5.4659  -23.5294  -48.3353 C.2       14 UNK         0.5000 
     83 O          -6.0583  -24.1873  -49.1907 O.2       14 UNK        -0.5000 
     84 N          -5.5563  -22.1967  -48.2065 N.am      15 UNK        -0.5000 
     85 CA         -6.1911  -21.2461  -49.1231 C.3       15 UNK         0.1400 
     86 CB         -7.7192  -21.4509  -49.1737 C.3       15 UNK        -0.1800 
     87 C          -5.5177  -21.2978  -50.5085 C.2       15 UNK         0.5000 
     88 O          -6.1948  -21.4852  -51.5188 O.2       15 UNK        -0.5000 
     89 N          -4.1812  -21.1747  -50.5099 N.am      16 UNK        -0.5000 
     90 CA         -3.2680  -21.4615  -51.6241 C.3       16 UNK         0.1400 
     91 CB         -1.8469  -21.0174  -51.2421 C.3       16 UNK        -0.1800 
     92 C          -3.6581  -20.8663  -52.9896 C.2       16 UNK         0.5000 
     93 O          -3.5581  -21.5617  -54.0022 O.2       16 UNK        -0.5000 
     94 N          -4.1157  -19.6081  -52.9876 N.am      17 UNK        -0.5000 
     95 CA         -4.5407  -18.8858  -54.1869 C.3       17 UNK         0.1400 
     96 CB         -4.6246  -17.3860  -53.8670 C.3       17 UNK        -0.1800 
     97 C          -5.8769  -19.3922  -54.7636 C.2       17 UNK         0.5000 
     98 O          -6.0535  -19.3714  -55.9818 O.2       17 UNK        -0.5000 
     99 N          -6.7867  -19.8439  -53.8898 N.am      18 UNK        -0.5000 
    100 CA        -8.0877  -20.4039  -54.2620 C.3       18 UNK         0.1400 
    101 CB        -9.0746  -20.2193  -53.0988 C.3       18 UNK        -0.1800 
    102 C         -7.9704  -21.8886  -54.6455 C.2       18 UNK         0.5000 
    103 O         -8.6381  -22.3353  -55.5785 O.2       18 UNK        -0.5000 
    104 N         -7.0988  -22.6155  -53.9339 N.am      19 UNK        -0.5000 
    105 CA        -6.7532  -24.0160  -54.1781 C.3       19 UNK         0.1400 
    106 CB        -5.9909  -24.5486  -52.9541 C.3       19 UNK        -0.1800 
    107 C         -5.9176  -24.2275  -55.4564 C.2       19 UNK         0.5000 
    108 O         -5.8359  -25.3581  -55.9377 O.2       19 UNK        -0.5000 
    109 N         -5.3051  -23.1462  -55.9630 N.am      20 UNK        -0.5000 
    110 CA        -4.3759  -23.0902  -57.0948 C.3       20 UNK         0.1400 
    111 CB        -5.0718  -23.4890  -58.4129 C.3       20 UNK        -0.1800 
    112 C         -3.0804  -23.8802  -56.8173 C.2       20 UNK         0.5000 
    113 O         -2.5604  -24.5638  -57.7009 O.2       20 UNK        -0.5000 
    114 N         -2.5843  -23.7638  -55.5783 N.am      21 UNK        -0.5000 
    115 CA        -1.3309  -24.3636  -55.1179 C.3       21 UNK         0.1400 
    116 CB        -1.3709  -24.4701  -53.5853 C.3       21 UNK        -0.1800 
    117 C         -0.0969  -23.5588  -55.5716 C.2       21 UNK         0.5000 
    118 O          1.0080  -24.1023  -55.5982 O.2       21 UNK        -0.5000 
    119 N         -0.3115  -22.2797  -55.9012 N.am      22 UNK        -0.5000 
    120 CA         0.6848  -21.3196  -56.3923 C.3       22 UNK         0.1400 
    121 C          1.3350  -21.7498  -57.7368 C.2       22 UNK         0.5000 
    122 N          2.6397  -21.5679  -57.8900 N.am      22 UNK        -0.7600 
    123 O          0.6592  -22.2019  -58.6585 O.2       22 UNK        -0.5000 
    124 C124        0.0643  -19.9063  -56.5274 C.3       23 UNK        -0.0398 
    125 S125       -0.6517  -19.3140  -54.9573 S.3       23 UNK        -0.2404 
    126 C126        0.6361  -18.1563  -54.4080 C.3       23 UNK        -0.0205 
    127 H127       -0.9852  -10.6435  -46.0551 H         1 UNK         0.0600 
    128 H128       -0.6701   -9.7855  -47.5741 H         1 UNK         0.0600 
    129 H129       -1.8270   -9.1419  -46.4130 H         1 UNK         0.0600 
    130 H130       -3.0688  -12.5256  -48.5416 H         1 UNK         0.3000 
    131 H131       -0.2289  -12.0491  -48.1870 H         1 UNK         0.0600 
    132 H132       -0.9488  -13.1814  -50.1890 H         1 UNK         0.0800 
    133 H133        0.0346  -14.2609  -49.2483 H         1 UNK         0.0800 
    134 H134       -2.0809  -14.7603  -51.7119 H         1 UNK         0.0800 
    135 H135       -2.9880  -16.1832  -51.2677 H         1 UNK         0.0800 
    136 H136       -1.2888  -16.5200  -53.4236 H         1 UNK         0.1150 
    137 H137        2.0531  -18.8993  -52.1963 H         1 UNK         0.1150 
    138 H138       -0.1800  -16.7191  -49.2785 H         1 UNK         0.1150 
    139 H139        2.0055  -17.6797  -48.6993 H         1 UNK         0.0800 
    140 H140        2.9581  -18.4963  -49.9103 H         1 UNK         0.0800 
    141 H141       -0.8158  -19.0842  -48.8374 H         1 UNK         0.0800 
    142 H142        0.0598  -18.6875  -47.3755 H         1 UNK         0.0800 
    143 H143       -0.9431  -21.5011  -48.0395 H         1 UNK         0.0600 
    144 H144        0.6744  -20.6228  -45.8950 H         1 UNK         0.3000 
    145 H145       -0.3586  -23.1549  -43.5307 H         1 UNK         0.0600 
    146 H146        2.0845  -23.4690  -43.5193 H         1 UNK         0.0600 
    147 H147        1.4184  -24.0847  -45.0232 H         1 UNK         0.0600 
    148 H148        2.2536  -22.5373  -45.0053 H         1 UNK         0.0600 
    149 H149        1.4404  -20.9896  -43.2120 H         1 UNK         0.3000 
    150 H150       -0.9715  -18.5746  -42.0452 H         1 UNK         0.0600 
    151 H151        1.3313  -20.0856  -40.7003 H         1 UNK         0.0600 
    152 H152       -0.3198  -19.9927  -40.0964 H         1 UNK         0.0600 
    153 H153        0.6651  -18.5382  -40.1843 H         1 UNK         0.0600 
    154 H154        1.8236  -18.3411  -42.4161 H         1 UNK         0.3000 
    155 H155        1.8000  -17.3025  -45.8458 H         1 UNK         0.0600 
    156 H156        2.4141  -15.9275  -43.1753 H         1 UNK         0.0600 
    157 H157        1.4044  -15.2916  -44.4659 H         1 UNK         0.0600 
    158 H158        3.1250  -15.4967  -44.7322 H         1 UNK         0.0600 
    159 H159        3.8842  -17.8087  -43.9383 H         1 UNK         0.3000 
    160 H160        4.5258  -21.1913  -44.8932 H         1 UNK         0.0600 
    161 H161        6.0447  -18.5674  -45.3569 H         1 UNK         0.0600 
    162 H162        5.6200  -19.7346  -46.6033 H         1 UNK         0.0600 
    163 H163        6.7446  -20.1861  -45.3319 H         1 UNK         0.0600 
    164 H164        5.7915  -19.4132  -43.0343 H         1 UNK         0.3000 
    165 H165        3.8570  -20.3624  -40.1838 H         1 UNK         0.0600 
    166 H166        6.0922  -20.9867  -39.3451 H         1 UNK         0.0600 
    167 H167        6.7524  -20.9719  -40.9808 H         1 UNK         0.0600 
    168 H168        5.5526  -22.1740  -40.5206 H         1 UNK         0.0600 
    169 H169        6.0400  -18.6625  -40.2088 H         1 UNK         0.3000 
    170 H170        5.7056  -16.5098  -39.6866 H         1 UNK         0.0600 
    171 H171        6.3602  -16.2606  -42.0963 H         1 UNK         0.0600 
    172 H172        4.8335  -15.4560  -42.4390 H         1 UNK         0.0600 
    173 H173        6.0140  -14.6997  -41.3701 H         1 UNK         0.0600 
    174 H174        3.6083  -14.7116  -40.4451 H         1 UNK         0.3000 
    175 H175        1.2245  -15.3905  -38.0671 H         1 UNK         0.0600 
    176 H176        3.3144  -13.2221  -37.4877 H         1 UNK         0.0600 
    177 H177        1.6490  -13.2350  -36.9050 H         1 UNK         0.0600 
    178 H178        2.7816  -14.4580  -36.3547 H         1 UNK         0.0600 
    179 H179        1.8848  -12.9622  -39.4602 H         1 UNK         0.3000 
    180 H180        0.0297  -12.5188  -41.1640 H         1 UNK         0.0600 
    181 H181        2.4994  -13.5358  -42.7098 H         1 UNK         0.0600 
    182 H182        2.4900  -12.2288  -41.5354 H         1 UNK         0.0600 
    183 H183        1.6535  -12.0337  -43.0593 H         1 UNK         0.0600 
    184 H184       -0.2813  -14.9629  -42.5641 H         1 UNK         0.3000 
    185 H185       -1.2684  -15.1911  -44.6241 H         1 UNK         0.0600 
    186 H186       -3.7799  -15.0203  -44.7197 H         1 UNK         0.0600 
    187 H187       -3.1867  -14.9261  -43.0679 H         1 UNK         0.0600 
    188 H188       -3.7040  -13.4637  -43.8991 H         1 UNK         0.0600 
    189 H189       -2.7102  -13.2612  -46.1794 H         1 UNK         0.3000 
    190 H190       -1.7179  -19.2626  -45.3446 H         1 UNK         0.3000 
    191 H191       -4.3232  -18.5652  -46.2295 H         1 UNK         0.0600 
    192 H192       -4.6061  -17.7210  -43.9227 H         1 UNK         0.0600 
    193 H193       -3.0094  -17.2965  -44.5251 H         1 UNK         0.0600 
    194 H194       -3.1940  -18.6189  -43.3799 H         1 UNK         0.0600 
    195 H195       -3.1891  -21.1746  -44.0373 H         1 UNK         0.3000 
    196 H196       -5.7471  -22.2471  -43.4101 H         1 UNK         0.0600 
    197 H197       -2.9781  -23.5614  -43.3996 H         1 UNK         0.0600 
    198 H198       -3.7258  -22.6995  -42.0572 H         1 UNK         0.0600 
    199 H199       -4.4163  -24.2135  -42.6222 H         1 UNK         0.0600 
    200 H200       -3.3860  -23.1007  -45.9820 H         1 UNK         0.3000 
    201 H201       -4.9642  -25.2221  -47.1198 H         1 UNK         0.0600 
    202 H202       -2.6668  -23.5593  -48.2897 H         1 UNK         0.0600 
    203 H203       -3.2788  -25.0683  -48.9566 H         1 UNK         0.0600 
    204 H204       -2.4930  -25.0625  -47.3848 H         1 UNK         0.0600 
    205 H205       -4.9745  -21.7686  -47.4971 H         1 UNK         0.3000 
    206 H206       -6.0023  -20.2511  -48.7178 H         1 UNK         0.0600 
    207 H207       -8.1516  -21.4275  -48.1734 H         1 UNK         0.0600 
    208 H208       -8.1962  -20.6599  -49.7528 H         1 UNK         0.0600 
    209 H209       -7.9906  -22.4009  -49.6350 H         1 UNK         0.0600 
    210 H210       -3.7422  -20.9975  -49.6104 H         1 UNK         0.3000 
    211 H211       -3.2604  -22.5461  -51.7438 H         1 UNK         0.0600 
    212 H212       -1.1438  -21.1933  -52.0578 H         1 UNK         0.0600 
    213 H213       -1.4806  -21.5693  -50.3774 H         1 UNK         0.0600 
    214 H214       -1.8070  -19.9533  -51.0058 H         1 UNK         0.0600 
    215 H215       -4.1747  -19.1178  -52.1078 H         1 UNK         0.3000 
    216 H216       -3.7781  -19.0247  -54.9563 H         1 UNK         0.0600 
    217 H217       -5.3440  -17.1818  -53.0731 H         1 UNK         0.0600 
    218 H218       -4.9319  -16.8158  -54.7446 H         1 UNK         0.0600 
    219 H219       -3.6567  -16.9975  -53.5531 H         1 UNK         0.0600 
    220 H220       -6.5289  -19.9187  -52.9137 H         1 UNK         0.3000 
    221 H221       -8.4785  -19.8610  -55.1254 H         1 UNK         0.0600 
    222 H222       -9.1829  -19.1667  -52.8368 H         1 UNK         0.0600 
    223 H223       -8.7532  -20.7561  -52.2059 H         1 UNK         0.0600 
    224 H224      -10.0642  -20.5919  -53.3658 H         1 UNK         0.0600 
    225 H225       -6.6483  -22.1744  -53.1341 H         1 UNK         0.3000 
    226 H226       -7.6786  -24.5850  -54.2868 H         1 UNK         0.0600 
    227 H227       -5.0539  -24.0118  -52.8011 H         1 UNK         0.0600 
    228 H228       -6.5838  -24.4483  -52.0446 H         1 UNK         0.0600 
    229 H229       -5.7492  -25.6057  -53.0703 H         1 UNK         0.0600 
    230 H230       -5.4097  -22.2827  -55.4482 H         1 UNK         0.3000 
    231 H231       -4.0777  -22.0447  -57.1867 H         1 UNK         0.0600 
    232 H232       -5.3398  -24.5456  -58.4300 H         1 UNK         0.0600 
    233 H233       -4.4200  -23.3050  -59.2676 H         1 UNK         0.0600 
    234 H234       -5.9816  -22.9091  -58.5684 H         1 UNK         0.0600 
    235 H235       -3.0545  -23.1360  -54.9306 H         1 UNK         0.3000 
    236 H236       -1.2468  -25.3709  -55.5311 H         1 UNK         0.0600 
    237 H237       -2.2383  -25.0390  -53.2499 H         1 UNK         0.0600 
    238 H238       -0.4822  -24.9762  -53.2065 H         1 UNK         0.0600 
    239 H239       -1.4116  -23.4866  -53.1174 H         1 UNK         0.0600 
    240 H240       -1.2538  -21.9279  -55.8233 H         1 UNK         0.3000 
    241 H241        1.4725  -21.2722  -55.6378 H         1 UNK         0.0600 
    242 H242        3.0704  -21.8279  -58.7640 H         1 UNK         0.3800 
    243 H243        3.2141  -21.1922  -57.1508 H         1 UNK         0.3800 
    244 H244       -0.7277  -19.9087  -57.2784 H         1 UNK         0.0800 
    245 H245        0.8090  -19.1892  -56.8777 H         1 UNK         0.0800 
    246 H246        1.6164  -18.6221  -54.5209 H         1 UNK         0.0800 
    247 H247        0.6325  -17.2743  -55.0501 H         1 UNK         0.0800 
@<TRIPOS>BOND
     1    1    2 1    
     2    1  127 1    
     3    1  128 1    
     4    1  129 1    
     5    2    3 2    
     6    2    4 am   BACKBONE|DICT|INTERRES
     7    4    5 1    
     8    4  130 1    
     9    5    6 1    
    10    5   65 1    
    11    5  131 1    
    12    6    7 1    
    13    6  132 1    
    14    6  133 1    
    15    7    8 1    
    16    8    9 1    
    17    8  134 1    
    18    8  135 1    
    19    9   10 ar   
    20    9   14 ar   
    21   10   11 ar   
    22   10  136 1    
    23   11   12 ar   
    24   11  126 1    
    25   12   13 ar   
    26   12  137 1    
    27   13   14 ar   
    28   13   15 1    
    29   14  138 1    
    30   15   16 1    
    31   15  139 1    
    32   15  140 1    
    33   16   17 1    
    34   17   18 1    
    35   17  141 1    
    36   17  142 1    
    37   18   19 1    
    38   18   67 1    
    39   18  143 1    
    40   19   20 am   BACKBONE|DICT|INTERRES
    41   19  144 1    
    42   20   21 2    
    43   20   22 1    
    44   22   23 1    
    45   22   24 1    
    46   22  145 1    
    47   23  146 1    
    48   23  147 1    
    49   23  148 1    
    50   24   25 am   BACKBONE|DICT|INTERRES
    51   24  149 1    
    52   25   26 2    
    53   25   27 1    
    54   27   28 1    
    55   27   29 1    
    56   27  150 1    
    57   28  151 1    
    58   28  152 1    
    59   28  153 1    
    60   29   30 am   BACKBONE|DICT|INTERRES
    61   29  154 1    
    62   30   31 2    
    63   30   32 1    
    64   32   33 1    
    65   32   34 1    
    66   32  155 1    
    67   33  156 1    
    68   33  157 1    
    69   33  158 1    
    70   34   35 am   BACKBONE|DICT|INTERRES
    71   34  159 1    
    72   35   36 2    
    73   35   37 1    
    74   37   38 1    
    75   37   39 1    
    76   37  160 1    
    77   38  161 1    
    78   38  162 1    
    79   38  163 1    
    80   39   40 am   BACKBONE|DICT|INTERRES
    81   39  164 1    
    82   40   41 2    
    83   40   42 1    
    84   42   43 1    
    85   42   44 1    
    86   42  165 1    
    87   43  166 1    
    88   43  167 1    
    89   43  168 1    
    90   44   45 am   BACKBONE|DICT|INTERRES
    91   44  169 1    
    92   45   46 2    
    93   45   47 1    
    94   47   48 1    
    95   47   49 1    
    96   47  170 1    
    97   48  171 1    
    98   48  172 1    
    99   48  173 1    
   100   49   50 am   BACKBONE|DICT|INTERRES
   101   49  174 1    
   102   50   51 2    
   103   50   52 1    
   104   52   53 1    
   105   52   54 1    
   106   52  175 1    
   107   53  176 1    
   108   53  177 1    
   109   53  178 1    
   110   54   55 am   BACKBONE|DICT|INTERRES
   111   54  179 1    
   112   55   56 2    
   113   55   57 1    
   114   57   58 1    
   115   57   59 1    
   116   57  180 1    
   117   58  181 1    
   118   58  182 1    
   119   58  183 1    
   120   59   60 am   BACKBONE|DICT|INTERRES
   121   59  184 1    
   122   60   61 2    
   123   60   62 1    
   124   62   63 1    
   125   62   64 1    
   126   62  185 1    
   127   63  186 1    
   128   63  187 1    
   129   63  188 1    
   130   64   65 am   BACKBONE|DICT|INTERRES
   131   64  189 1    
   132   65   66 2    
   133   67   68 2    
   134   67   69 am   BACKBONE|DICT|INTERRES
   135   69   70 1    
   136   69  190 1    
   137   70   71 1    
   138   70   72 1    
   139   70  191 1    
   140   71  192 1    
   141   71  193 1    
   142   71  194 1    
   143   72   73 2    
   144   72   74 am   BACKBONE|DICT|INTERRES
   145   74   75 1    
   146   74  195 1    
   147   75   76 1    
   148   75   77 1    
   149   75  196 1    
   150   76  197 1    
   151   76  198 1    
   152   76  199 1    
   153   77   78 2    
   154   77   79 am   BACKBONE|DICT|INTERRES
   155   79   80 1    
   156   79  200 1    
   157   80   81 1    
   158   80   82 1    
   159   80  201 1    
   160   81  202 1    
   161   81  203 1    
   162   81  204 1    
   163   82   83 2    
   164   82   84 am   BACKBONE|DICT|INTERRES
   165   84   85 1    
   166   84  205 1    
   167   85   86 1    
   168   85   87 1    
   169   85  206 1    
   170   86  207 1    
   171   86  208 1    
   172   86  209 1    
   173   87   88 2    
   174   87   89 am   BACKBONE|DICT|INTERRES
   175   89   90 1    
   176   89  210 1    
   177   90   91 1    
   178   90   92 1    
   179   90  211 1    
   180   91  212 1    
   181   91  213 1    
   182   91  214 1    
   183   92   93 2    
   184   92   94 am   BACKBONE|DICT|INTERRES
   185   94   95 1    
   186   94  215 1    
   187   95   96 1    
   188   95   97 1    
   189   95  216 1    
   190   96  217 1    
   191   96  218 1    
   192   96  219 1    
   193   97   98 2    
   194   97   99 am   BACKBONE|DICT|INTERRES
   195   99  100 1    
   196   99  220 1    
   197  100  101 1    
   198  100  102 1    
   199  100  221 1    
   200  101  222 1    
   201  101  223 1    
   202  101  224 1    
   203  102  103 2    
   204  102  104 am   BACKBONE|DICT|INTERRES
   205  104  105 1    
   206  104  225 1    
   207  105  106 1    
   208  105  107 1    
   209  105  226 1    
   210  106  227 1    
   211  106  228 1    
   212  106  229 1    
   213  107  108 2    
   214  107  109 am   BACKBONE|DICT|INTERRES
   215  109  110 1    
   216  109  230 1    
   217  110  111 1    
   218  110  112 1    
   219  110  231 1    
   220  111  232 1    
   221  111  233 1    
   222  111  234 1    
   223  112  113 2    
   224  112  114 am   BACKBONE|DICT|INTERRES
   225  114  115 1    
   226  114  235 1    
   227  115  116 1    
   228  115  117 1    
   229  115  236 1    
   230  116  237 1    
   231  116  238 1    
   232  116  239 1    
   233  117  118 2    
   234  117  119 am   BACKBONE|DICT|INTERRES
   235  119  120 1    
   236  119  240 1    
   237  120  121 1    
   238  120  124 1    
   239  120  241 1    
   240  121  122 am   BACKBONE|DICT|INTERRES
   241  121  123 2    
   242  122  242 1    
   243  122  243 1    
   244  124  125 1    
   245  124  244 1    
   246  124  245 1    
   247  125  126 1    
   248  126  246 1    
   249  126  247 1    
@<TRIPOS>SUBSTRUCTURE
     1 UNK         1 GROUP             0       ****    0 ROOT    
