@<TRIPOS>MOLECULE
3R540
247   249    1
SMALL
USER_CHARGES


@<TRIPOS>ATOM
      1 CA         -1.5969  -12.4664  -50.5376 C.3       0 UNK        -0.1800 
      2 C          -0.1959  -12.7256  -50.0011 C.2       0 UNK         0.5000 
      3 O           0.7711  -12.1646  -50.5157 O.2       0 UNK        -0.5000 
      4 N          -0.0859  -13.5591  -48.9592 N.am      1 UNK        -0.5000 
      5 CA          1.1836  -13.9414  -48.3279 C.3       1 UNK         0.1400 
      6 C6          1.0588  -15.2391  -47.4924 C.3       23 UNK        -0.0398 
      7 S7          0.4480  -16.6519  -48.4718 S.3       23 UNK        -0.2404 
      8 C8          2.0237  -17.4024  -48.9788 C.3       23 UNK        -0.0205 
      9 C9          1.8023  -18.5460  -49.9537 C.ar      23 UNK        -0.0193 
     10 C10         1.9932  -18.3432  -51.3221 C.ar      23 UNK        -0.1150 
     11 C11         1.7855  -19.3847  -52.2297 C.ar      23 UNK        -0.0193 
     12 C12         1.4009  -20.6422  -51.7579 C.ar      23 UNK        -0.1150 
     13 C13         1.2023  -20.8574  -50.3908 C.ar      23 UNK        -0.0193 
     14 C14         1.4026  -19.8037  -49.4926 C.ar      23 UNK        -0.1150 
     15 C15         0.7054  -22.2092  -49.9037 C.3       23 UNK        -0.0205 
     16 S16         2.0468  -23.2590  -49.2644 S.3       23 UNK        -0.2404 
     17 C17         2.0247  -22.8623  -47.4820 C.3       23 UNK        -0.0398 
     18 CA          1.2006  -23.8841  -46.6594 C.3       11 UNK         0.1400 
     19 N           1.6525  -23.9620  -45.2696 N.am      11 UNK        -0.5000 
     20 C           1.3716  -24.9699  -44.4329 C.2       10 UNK         0.5000 
     21 O           0.7346  -25.9708  -44.7596 O.2       10 UNK        -0.5000 
     22 CA          1.8426  -24.8066  -42.9753 C.3       10 UNK         0.1400 
     23 CB          3.3155  -25.2174  -42.8317 C.3       10 UNK        -0.1800 
     24 N           1.6670  -23.4404  -42.4768 N.am      10 UNK        -0.5000 
     25 C           0.4742  -22.8605  -42.2851 C.2       9 UNK         0.5000 
     26 O          -0.5977  -23.4363  -42.4677 O.2       9 UNK        -0.5000 
     27 CA          0.4707  -21.3796  -41.8589 C.3       9 UNK         0.1400 
     28 CB          0.5425  -21.2708  -40.3287 C.3       9 UNK        -0.1800 
     29 N           1.5228  -20.5485  -42.4569 N.am      9 UNK        -0.5000 
     30 C           1.7970  -20.4396  -43.7661 C.2       8 UNK         0.5000 
     31 O           1.2657  -21.1308  -44.6361 O.2       8 UNK        -0.5000 
     32 CA          2.8058  -19.3491  -44.1583 C.3       8 UNK         0.1400 
     33 CB          2.9867  -19.2245  -45.6811 C.3       8 UNK        -0.1800 
     34 N           2.3241  -18.0794  -43.6287 N.am      8 UNK        -0.5000 
     35 C           3.0506  -17.1812  -42.9523 C.2       7 UNK         0.5000 
     36 O           4.2617  -17.2907  -42.7579 O.2       7 UNK        -0.5000 
     37 CA          2.3011  -15.9605  -42.3738 C.3       7 UNK         0.1400 
     38 CB          2.5117  -14.7289  -43.2639 C.3       7 UNK        -0.1800 
     39 N           0.8623  -16.1796  -42.2102 N.am      7 UNK        -0.5000 
     40 C           0.3145  -17.0632  -41.3624 C.2       6 UNK         0.5000 
     41 O           0.9662  -17.6926  -40.5291 O.2       6 UNK        -0.5000 
     42 CA         -1.2014  -17.3286  -41.4884 C.3       6 UNK         0.1400 
     43 CB         -1.9630  -16.6390  -40.3465 C.3       6 UNK        -0.1800 
     44 N          -1.7913  -16.9139  -42.7654 N.am      6 UNK        -0.5000 
     45 C          -1.4335  -17.3482  -43.9833 C.2       5 UNK         0.5000 
     46 O          -0.5553  -18.1870  -44.1736 O.2       5 UNK        -0.5000 
     47 CA         -2.1286  -16.6937  -45.1927 C.3       5 UNK         0.1400 
     48 CB         -3.2360  -17.6041  -45.7441 C.3       5 UNK        -0.1800 
     49 N          -2.6893  -15.3686  -44.9054 N.am      5 UNK        -0.5000 
     50 C          -1.9694  -14.2839  -44.5875 C.2       4 UNK         0.5000 
     51 O          -0.7437  -14.2870  -44.4583 O.2       4 UNK        -0.5000 
     52 CA         -2.7583  -12.9839  -44.3425 C.3       4 UNK         0.1400 
     53 CB         -2.6745  -12.5816  -42.8619 C.3       4 UNK        -0.1800 
     54 N          -2.2872  -11.8698  -45.1675 N.am      4 UNK        -0.5000 
     55 C          -2.2442  -11.8599  -46.5064 C.2       3 UNK         0.5000 
     56 O          -2.5800  -12.8101  -47.2113 O.2       3 UNK        -0.5000 
     57 CA         -1.7058  -10.5889  -47.1913 C.3       3 UNK         0.1400 
     58 CB         -2.8728   -9.8011  -47.8058 C.3       3 UNK        -0.1800 
     59 N          -0.9631   -9.6926  -46.3038 N.am      3 UNK        -0.5000 
     60 C           0.2627   -9.7520  -45.7498 C.2       2 UNK         0.5000 
     61 O           0.6322   -8.8086  -45.0526 O.2       2 UNK        -0.5000 
     62 CA          1.2673  -10.9232  -45.9185 C.3       2 UNK         0.1400 
     63 CB          1.6207  -11.5287  -44.5464 C.3       2 UNK        -0.1800 
     64 N           0.9065  -11.9993  -46.8405 N.am      2 UNK        -0.5000 
     65 C           1.7756  -12.8067  -47.4643 C.2       1 UNK         0.5000 
     66 O           2.9989  -12.6930  -47.3775 O.2       1 UNK        -0.5000 
     67 C          -0.3103  -23.5860  -46.7268 C.2       11 UNK         0.5000 
     68 O          -1.0061  -24.1577  -47.5653 O.2       11 UNK        -0.5000 
     69 N          -0.8032  -22.7226  -45.8276 N.am      12 UNK        -0.5000 
     70 CA         -2.2225  -22.3990  -45.6804 C.3       12 UNK         0.1400 
     71 CB         -2.3957  -21.2585  -44.6697 C.3       12 UNK        -0.1800 
     72 C          -3.0663  -23.6237  -45.2815 C.2       12 UNK         0.5000 
     73 O          -4.1423  -23.8240  -45.8418 O.2       12 UNK        -0.5000 
     74 N          -2.5442  -24.4483  -44.3649 N.am      13 UNK        -0.5000 
     75 CA         -3.1450  -25.7215  -43.9706 C.3       13 UNK         0.1400 
     76 CB         -2.4234  -26.2608  -42.7261 C.3       13 UNK        -0.1800 
     77 C          -3.1295  -26.7656  -45.1040 C.2       13 UNK         0.5000 
     78 O          -4.1095  -27.4931  -45.2695 O.2       13 UNK        -0.5000 
     79 N          -2.0207  -26.8265  -45.8539 N.am      14 UNK        -0.5000 
     80 CA         -1.8079  -27.7947  -46.9274 C.3       14 UNK         0.1400 
     81 CB         -0.3034  -27.9104  -47.2193 C.3       14 UNK        -0.1800 
     82 C          -2.5782  -27.4679  -48.2191 C.2       14 UNK         0.5000 
     83 O          -3.2013  -28.3661  -48.7874 O.2       14 UNK        -0.5000 
     84 N          -2.4825  -26.2155  -48.6842 N.am      15 UNK        -0.5000 
     85 CA         -2.8682  -25.8117  -50.0385 C.3       15 UNK         0.1400 
     86 CB         -1.5848  -25.6028  -50.8614 C.3       15 UNK        -0.1800 
     87 C          -3.7522  -24.5549  -50.0954 C.2       15 UNK         0.5000 
     88 O          -4.1935  -24.2056  -51.1905 O.2       15 UNK        -0.5000 
     89 N          -3.9942  -23.8836  -48.9585 N.am      16 UNK        -0.5000 
     90 CA         -4.8524  -22.6955  -48.8180 C.3       16 UNK         0.1400 
     91 CB         -6.3353  -23.0909  -48.9790 C.3       16 UNK        -0.1800 
     92 C          -4.4418  -21.5301  -49.7433 C.2       16 UNK         0.5000 
     93 O          -5.2867  -20.9695  -50.4419 O.2       16 UNK        -0.5000 
     94 N          -3.1352  -21.2223  -49.7656 N.am      17 UNK        -0.5000 
     95 CA         -2.4934  -20.2242  -50.6361 C.3       17 UNK         0.1400 
     96 CB         -2.9301  -18.7931  -50.2582 C.3       17 UNK        -0.1800 
     97 C          -2.6738  -20.5487  -52.1362 C.2       17 UNK         0.5000 
     98 O          -2.9548  -19.6555  -52.9376 O.2       17 UNK        -0.5000 
     99 N          -2.5452  -21.8457  -52.4606 N.am      18 UNK        -0.5000 
    100 CA        -2.7836  -22.4720  -53.7653 C.3       18 UNK         0.1400 
    101 CB        -1.7491  -21.9907  -54.8025 C.3       18 UNK        -0.1800 
    102 C         -4.2421  -22.2832  -54.2280 C.2       18 UNK         0.5000 
    103 O         -4.4851  -21.8178  -55.3406 O.2       18 UNK        -0.5000 
    104 N         -5.1888  -22.6042  -53.3339 N.am      19 UNK        -0.5000 
    105 CA        -6.6331  -22.3675  -53.4573 C.3       19 UNK         0.1400 
    106 CB        -7.2505  -23.3081  -54.5123 C.3       19 UNK        -0.1800 
    107 C         -6.9550  -20.8766  -53.7060 C.2       19 UNK         0.5000 
    108 O         -7.7336  -20.5409  -54.6000 O.2       19 UNK        -0.5000 
    109 N         -6.2956  -20.0163  -52.9191 N.am      20 UNK        -0.5000 
    110 CA        -6.3004  -18.5519  -52.9437 C.3       20 UNK         0.1400 
    111 CB        -7.7142  -18.0010  -52.6669 C.3       20 UNK        -0.1800 
    112 C         -5.6615  -17.9049  -54.1926 C.2       20 UNK         0.5000 
    113 O         -5.6747  -16.6758  -54.2877 O.2       20 UNK        -0.5000 
    114 N         -5.0830  -18.6935  -55.1128 N.am      21 UNK        -0.5000 
    115 CA        -4.4578  -18.1993  -56.3452 C.3       21 UNK         0.1400 
    116 CB        -4.1209  -19.3730  -57.2752 C.3       21 UNK        -0.1800 
    117 C         -3.2078  -17.3325  -56.1039 C.2       21 UNK         0.5000 
    118 O         -2.9252  -16.4514  -56.9176 O.2       21 UNK        -0.5000 
    119 N         -2.5023  -17.5700  -54.9909 N.am      22 UNK        -0.5000 
    120 CA        -1.3808  -16.7356  -54.5315 C.3       22 UNK         0.1400 
    121 C         -1.8221  -15.4296  -53.8040 C.2       22 UNK         0.5000 
    122 N         -3.1076  -15.1763  -53.5800 N.am      22 UNK        -0.7600 
    123 O         -0.9760  -14.6150  -53.4484 O.2       22 UNK        -0.5000 
    124 C124       -0.3723  -17.5375  -53.6724 C.3       23 UNK        -0.0398 
    125 S125        0.3491  -18.9603  -54.5613 S.3       23 UNK        -0.2404 
    126 C126        1.9545  -19.1429  -53.7218 C.3       23 UNK        -0.0205 
    127 H127       -2.3472  -13.0631  -50.0182 H         1 UNK         0.0600 
    128 H128       -1.6436  -12.7120  -51.5980 H         1 UNK         0.0600 
    129 H129       -1.8565  -11.4145  -50.4211 H         1 UNK         0.0600 
    130 H130       -0.9191  -13.9855  -48.5753 H         1 UNK         0.3000 
    131 H131        1.9030  -14.1360  -49.1265 H         1 UNK         0.0600 
    132 H132        2.0174  -15.5063  -47.0432 H         1 UNK         0.0800 
    133 H133        0.3722  -15.0872  -46.6604 H         1 UNK         0.0800 
    134 H134        2.6566  -16.6383  -49.4330 H         1 UNK         0.0800 
    135 H135        2.5621  -17.7626  -48.1033 H         1 UNK         0.0800 
    136 H136        2.2903  -17.3683  -51.6823 H         1 UNK         0.1150 
    137 H137        1.2301  -21.4450  -52.4617 H         1 UNK         0.1150 
    138 H138        1.2311  -19.9492  -48.4364 H         1 UNK         0.1150 
    139 H139       -0.0645  -22.0671  -49.1463 H         1 UNK         0.0800 
    140 H140        0.2209  -22.7391  -50.7247 H         1 UNK         0.0800 
    141 H141        1.6881  -21.8400  -47.3100 H         1 UNK         0.0800 
    142 H142        3.0651  -22.8832  -47.1548 H         1 UNK         0.0800 
    143 H143        1.3562  -24.8728  -47.0966 H         1 UNK         0.0600 
    144 H144        2.0819  -23.1271  -44.8937 H         1 UNK         0.3000 
    145 H145        1.2404  -25.4746  -42.3556 H         1 UNK         0.0600 
    146 H146        3.6352  -25.1800  -41.7902 H         1 UNK         0.0600 
    147 H147        3.4710  -26.2388  -43.1818 H         1 UNK         0.0600 
    148 H148        3.9746  -24.5682  -43.4093 H         1 UNK         0.0600 
    149 H149        2.5016  -22.8992  -42.3057 H         1 UNK         0.3000 
    150 H150       -0.4813  -20.9539  -42.1788 H         1 UNK         0.0600 
    151 H151        0.3856  -20.2456  -39.9955 H         1 UNK         0.0600 
    152 H152       -0.2273  -21.8821  -39.8554 H         1 UNK         0.0600 
    153 H153        1.5080  -21.6045  -39.9467 H         1 UNK         0.0600 
    154 H154        1.9956  -19.9182  -41.8245 H         1 UNK         0.3000 
    155 H155        3.7642  -19.6188  -43.7104 H         1 UNK         0.0600 
    156 H156        2.0393  -18.9979  -46.1719 H         1 UNK         0.0600 
    157 H157        3.3688  -20.1516  -46.1096 H         1 UNK         0.0600 
    158 H158        3.6941  -18.4336  -45.9301 H         1 UNK         0.0600 
    159 H159        1.3219  -17.9353  -43.7257 H         1 UNK         0.3000 
    160 H160        2.7264  -15.7506  -41.3903 H         1 UNK         0.0600 
    161 H161        3.5729  -14.5184  -43.4028 H         1 UNK         0.0600 
    162 H162        2.0615  -13.8456  -42.8118 H         1 UNK         0.0600 
    163 H163        2.0694  -14.8641  -44.2520 H         1 UNK         0.0600 
    164 H164        0.2581  -15.6938  -42.8611 H         1 UNK         0.3000 
    165 H165       -1.3452  -18.4071  -41.3968 H         1 UNK         0.0600 
    166 H166       -3.0223  -16.8962  -40.3657 H         1 UNK         0.0600 
    167 H167       -1.5741  -16.9458  -39.3745 H         1 UNK         0.0600 
    168 H168       -1.8786  -15.5531  -40.4063 H         1 UNK         0.0600 
    169 H169       -2.5177  -16.2156  -42.7143 H         1 UNK         0.3000 
    170 H170       -1.3744  -16.5747  -45.9717 H         1 UNK         0.0600 
    171 H171       -4.0158  -17.7864  -45.0037 H         1 UNK         0.0600 
    172 H172       -3.7033  -17.1669  -46.6268 H         1 UNK         0.0600 
    173 H173       -2.8315  -18.5713  -46.0440 H         1 UNK         0.0600 
    174 H174       -3.6911  -15.2797  -44.9969 H         1 UNK         0.3000 
    175 H175       -3.8077  -13.1551  -44.5915 H         1 UNK         0.0600 
    176 H176       -1.6493  -12.3564  -42.5640 H         1 UNK         0.0600 
    177 H177       -3.2848  -11.7020  -42.6559 H         1 UNK         0.0600 
    178 H178       -3.0346  -13.3838  -42.2164 H         1 UNK         0.0600 
    179 H179       -1.9752  -11.0466  -44.6736 H         1 UNK         0.3000 
    180 H180       -1.0567  -10.8749  -48.0161 H         1 UNK         0.0600 
    181 H181       -3.5689   -9.4490  -47.0432 H         1 UNK         0.0600 
    182 H182       -3.4386  -10.4185  -48.5053 H         1 UNK         0.0600 
    183 H183       -2.5152   -8.9334  -48.3607 H         1 UNK         0.0600 
    184 H184       -1.4803   -8.8547  -46.0822 H         1 UNK         0.3000 
    185 H185        2.1703  -10.4500  -46.3101 H         1 UNK         0.0600 
    186 H186        1.9043  -10.7610  -43.8256 H         1 UNK         0.0600 
    187 H187        0.7791  -12.0790  -44.1257 H         1 UNK         0.0600 
    188 H188        2.4662  -12.2110  -44.6255 H         1 UNK         0.0600 
    189 H189       -0.0764  -12.1790  -46.9656 H         1 UNK         0.3000 
    190 H190       -0.1521  -22.2428  -45.2112 H         1 UNK         0.3000 
    191 H191       -2.5756  -22.0444  -46.6499 H         1 UNK         0.0600 
    192 H192       -1.7342  -20.4257  -44.9032 H         1 UNK         0.0600 
    193 H193       -3.4186  -20.8809  -44.6810 H         1 UNK         0.0600 
    194 H194       -2.1803  -21.5824  -43.6525 H         1 UNK         0.0600 
    195 H195       -1.6873  -24.1788  -43.8901 H         1 UNK         0.3000 
    196 H196       -4.1875  -25.5353  -43.7038 H         1 UNK         0.0600 
    197 H197       -2.8589  -27.2059  -42.3996 H         1 UNK         0.0600 
    198 H198       -2.5003  -25.5617  -41.8932 H         1 UNK         0.0600 
    199 H199       -1.3641  -26.4347  -42.9183 H         1 UNK         0.0600 
    200 H200       -1.2386  -26.2268  -45.6201 H         1 UNK         0.3000 
    201 H201       -2.1502  -28.7713  -46.5778 H         1 UNK         0.0600 
    202 H202        0.2445  -28.2416  -46.3370 H         1 UNK         0.0600 
    203 H203        0.1202  -26.9577  -47.5382 H         1 UNK         0.0600 
    204 H204       -0.1125  -28.6360  -48.0109 H         1 UNK         0.0600 
    205 H205       -1.9360  -25.5335  -48.1589 H         1 UNK         0.3000 
    206 H206       -3.4509  -26.5994  -50.5199 H         1 UNK         0.0600 
    207 H207       -1.0029  -26.5228  -50.9194 H         1 UNK         0.0600 
    208 H208       -1.8097  -25.2998  -51.8846 H         1 UNK         0.0600 
    209 H209       -0.9484  -24.8360  -50.4192 H         1 UNK         0.0600 
    210 H210       -3.6078  -24.2464  -48.0970 H         1 UNK         0.3000 
    211 H211       -4.7271  -22.3188  -47.8043 H         1 UNK         0.0600 
    212 H212       -6.5544  -23.4482  -49.9857 H         1 UNK         0.0600 
    213 H213       -6.9911  -22.2417  -48.7831 H         1 UNK         0.0600 
    214 H214       -6.6085  -23.8785  -48.2767 H         1 UNK         0.0600 
    215 H215       -2.5179  -21.7573  -49.1727 H         1 UNK         0.3000 
    216 H216       -1.4250  -20.2849  -50.4445 H         1 UNK         0.0600 
    217 H217       -2.3813  -18.0496  -50.8371 H         1 UNK         0.0600 
    218 H218       -2.7330  -18.5886  -49.2058 H         1 UNK         0.0600 
    219 H219       -3.9918  -18.6281  -50.4379 H         1 UNK         0.0600 
    220 H220       -2.3867  -22.4949  -51.7050 H         1 UNK         0.3000 
    221 H221       -2.6395  -23.5445  -53.6277 H         1 UNK         0.0600 
    222 H222       -1.8774  -20.9349  -55.0411 H         1 UNK         0.0600 
    223 H223       -0.7307  -22.1301  -54.4400 H         1 UNK         0.0600 
    224 H224       -1.8439  -22.5480  -55.7349 H         1 UNK         0.0600 
    225 H225       -4.8841  -23.0191  -52.4556 H         1 UNK         0.3000 
    226 H226       -7.0701  -22.6198  -52.4901 H         1 UNK         0.0600 
    227 H227       -7.0199  -24.3504  -54.2924 H         1 UNK         0.0600 
    228 H228       -8.3367  -23.2130  -54.5313 H         1 UNK         0.0600 
    229 H229       -6.8854  -23.0883  -55.5160 H         1 UNK         0.0600 
    230 H230       -5.7178  -20.4176  -52.1832 H         1 UNK         0.3000 
    231 H231       -5.6680  -18.2512  -52.1082 H         1 UNK         0.0600 
    232 H232       -8.3970  -18.2005  -53.4930 H         1 UNK         0.0600 
    233 H233       -7.6917  -16.9208  -52.5187 H         1 UNK         0.0600 
    234 H234       -8.1390  -18.4409  -51.7646 H         1 UNK         0.0600 
    235 H235       -5.0614  -19.6949  -54.9622 H         1 UNK         0.3000 
    236 H236       -5.1945  -17.5735  -56.8531 H         1 UNK         0.0600 
    237 H237       -4.9942  -19.9995  -57.4577 H         1 UNK         0.0600 
    238 H238       -3.7699  -19.0132  -58.2431 H         1 UNK         0.0600 
    239 H239       -3.3335  -20.0011  -56.8582 H         1 UNK         0.0600 
    240 H240       -2.7863  -18.3213  -54.3672 H         1 UNK         0.3000 
    241 H241       -0.8356  -16.3976  -55.4147 H         1 UNK         0.0600 
    242 H242       -3.8339  -15.8089  -53.8935 H         1 UNK         0.3800 
    243 H243       -3.3648  -14.3190  -53.1189 H         1 UNK         0.3800 
    244 H244        0.4449  -16.8875  -53.3560 H         1 UNK         0.0800 
    245 H245       -0.8459  -17.9003  -52.7595 H         1 UNK         0.0800 
    246 H246        2.5614  -18.2547  -53.9042 H         1 UNK         0.0800 
    247 H247        2.4949  -19.9792  -54.1676 H         1 UNK         0.0800 
@<TRIPOS>BOND
     1    1    2 1    
     2    1  127 1    
     3    1  128 1    
     4    1  129 1    
     5    2    3 2    
     6    2    4 am   BACKBONE|DICT|INTERRES
     7    4    5 1    
     8    4  130 1    
     9    5    6 1    
    10    5   65 1    
    11    5  131 1    
    12    6    7 1    
    13    6  132 1    
    14    6  133 1    
    15    7    8 1    
    16    8    9 1    
    17    8  134 1    
    18    8  135 1    
    19    9   10 ar   
    20    9   14 ar   
    21   10   11 ar   
    22   10  136 1    
    23   11   12 ar   
    24   11  126 1    
    25   12   13 ar   
    26   12  137 1    
    27   13   14 ar   
    28   13   15 1    
    29   14  138 1    
    30   15   16 1    
    31   15  139 1    
    32   15  140 1    
    33   16   17 1    
    34   17   18 1    
    35   17  141 1    
    36   17  142 1    
    37   18   19 1    
    38   18   67 1    
    39   18  143 1    
    40   19   20 am   BACKBONE|DICT|INTERRES
    41   19  144 1    
    42   20   21 2    
    43   20   22 1    
    44   22   23 1    
    45   22   24 1    
    46   22  145 1    
    47   23  146 1    
    48   23  147 1    
    49   23  148 1    
    50   24   25 am   BACKBONE|DICT|INTERRES
    51   24  149 1    
    52   25   26 2    
    53   25   27 1    
    54   27   28 1    
    55   27   29 1    
    56   27  150 1    
    57   28  151 1    
    58   28  152 1    
    59   28  153 1    
    60   29   30 am   BACKBONE|DICT|INTERRES
    61   29  154 1    
    62   30   31 2    
    63   30   32 1    
    64   32   33 1    
    65   32   34 1    
    66   32  155 1    
    67   33  156 1    
    68   33  157 1    
    69   33  158 1    
    70   34   35 am   BACKBONE|DICT|INTERRES
    71   34  159 1    
    72   35   36 2    
    73   35   37 1    
    74   37   38 1    
    75   37   39 1    
    76   37  160 1    
    77   38  161 1    
    78   38  162 1    
    79   38  163 1    
    80   39   40 am   BACKBONE|DICT|INTERRES
    81   39  164 1    
    82   40   41 2    
    83   40   42 1    
    84   42   43 1    
    85   42   44 1    
    86   42  165 1    
    87   43  166 1    
    88   43  167 1    
    89   43  168 1    
    90   44   45 am   BACKBONE|DICT|INTERRES
    91   44  169 1    
    92   45   46 2    
    93   45   47 1    
    94   47   48 1    
    95   47   49 1    
    96   47  170 1    
    97   48  171 1    
    98   48  172 1    
    99   48  173 1    
   100   49   50 am   BACKBONE|DICT|INTERRES
   101   49  174 1    
   102   50   51 2    
   103   50   52 1    
   104   52   53 1    
   105   52   54 1    
   106   52  175 1    
   107   53  176 1    
   108   53  177 1    
   109   53  178 1    
   110   54   55 am   BACKBONE|DICT|INTERRES
   111   54  179 1    
   112   55   56 2    
   113   55   57 1    
   114   57   58 1    
   115   57   59 1    
   116   57  180 1    
   117   58  181 1    
   118   58  182 1    
   119   58  183 1    
   120   59   60 am   BACKBONE|DICT|INTERRES
   121   59  184 1    
   122   60   61 2    
   123   60   62 1    
   124   62   63 1    
   125   62   64 1    
   126   62  185 1    
   127   63  186 1    
   128   63  187 1    
   129   63  188 1    
   130   64   65 am   BACKBONE|DICT|INTERRES
   131   64  189 1    
   132   65   66 2    
   133   67   68 2    
   134   67   69 am   BACKBONE|DICT|INTERRES
   135   69   70 1    
   136   69  190 1    
   137   70   71 1    
   138   70   72 1    
   139   70  191 1    
   140   71  192 1    
   141   71  193 1    
   142   71  194 1    
   143   72   73 2    
   144   72   74 am   BACKBONE|DICT|INTERRES
   145   74   75 1    
   146   74  195 1    
   147   75   76 1    
   148   75   77 1    
   149   75  196 1    
   150   76  197 1    
   151   76  198 1    
   152   76  199 1    
   153   77   78 2    
   154   77   79 am   BACKBONE|DICT|INTERRES
   155   79   80 1    
   156   79  200 1    
   157   80   81 1    
   158   80   82 1    
   159   80  201 1    
   160   81  202 1    
   161   81  203 1    
   162   81  204 1    
   163   82   83 2    
   164   82   84 am   BACKBONE|DICT|INTERRES
   165   84   85 1    
   166   84  205 1    
   167   85   86 1    
   168   85   87 1    
   169   85  206 1    
   170   86  207 1    
   171   86  208 1    
   172   86  209 1    
   173   87   88 2    
   174   87   89 am   BACKBONE|DICT|INTERRES
   175   89   90 1    
   176   89  210 1    
   177   90   91 1    
   178   90   92 1    
   179   90  211 1    
   180   91  212 1    
   181   91  213 1    
   182   91  214 1    
   183   92   93 2    
   184   92   94 am   BACKBONE|DICT|INTERRES
   185   94   95 1    
   186   94  215 1    
   187   95   96 1    
   188   95   97 1    
   189   95  216 1    
   190   96  217 1    
   191   96  218 1    
   192   96  219 1    
   193   97   98 2    
   194   97   99 am   BACKBONE|DICT|INTERRES
   195   99  100 1    
   196   99  220 1    
   197  100  101 1    
   198  100  102 1    
   199  100  221 1    
   200  101  222 1    
   201  101  223 1    
   202  101  224 1    
   203  102  103 2    
   204  102  104 am   BACKBONE|DICT|INTERRES
   205  104  105 1    
   206  104  225 1    
   207  105  106 1    
   208  105  107 1    
   209  105  226 1    
   210  106  227 1    
   211  106  228 1    
   212  106  229 1    
   213  107  108 2    
   214  107  109 am   BACKBONE|DICT|INTERRES
   215  109  110 1    
   216  109  230 1    
   217  110  111 1    
   218  110  112 1    
   219  110  231 1    
   220  111  232 1    
   221  111  233 1    
   222  111  234 1    
   223  112  113 2    
   224  112  114 am   BACKBONE|DICT|INTERRES
   225  114  115 1    
   226  114  235 1    
   227  115  116 1    
   228  115  117 1    
   229  115  236 1    
   230  116  237 1    
   231  116  238 1    
   232  116  239 1    
   233  117  118 2    
   234  117  119 am   BACKBONE|DICT|INTERRES
   235  119  120 1    
   236  119  240 1    
   237  120  121 1    
   238  120  124 1    
   239  120  241 1    
   240  121  122 am   BACKBONE|DICT|INTERRES
   241  121  123 2    
   242  122  242 1    
   243  122  243 1    
   244  124  125 1    
   245  124  244 1    
   246  124  245 1    
   247  125  126 1    
   248  126  246 1    
   249  126  247 1    
@<TRIPOS>SUBSTRUCTURE
     1 UNK         1 GROUP             0       ****    0 ROOT    
