@<TRIPOS>MOLECULE
3R540
247   249    1
SMALL
USER_CHARGES


@<TRIPOS>ATOM
      1 CA         -0.3186  -11.7374  -43.0763 C.3       0 UNK        -0.1800 
      2 C           0.0571  -11.2544  -44.4687 C.2       0 UNK         0.5000 
      3 O          -0.5169  -10.2820  -44.9590 O.2       0 UNK        -0.5000 
      4 N           1.0272  -11.9240  -45.1016 N.am      1 UNK        -0.5000 
      5 CA          1.5816  -11.5612  -46.4119 C.3       1 UNK         0.1400 
      6 C6          2.3126  -12.7485  -47.0832 C.3       23 UNK        -0.0398 
      7 S7          1.2293  -14.1971  -47.3148 S.3       23 UNK        -0.2404 
      8 C8          1.0046  -14.1925  -49.1181 C.3       23 UNK        -0.0205 
      9 C9          0.2140  -15.4080  -49.5752 C.ar      23 UNK        -0.0193 
     10 C10        -1.1795  -15.3487  -49.6751 C.ar      23 UNK        -0.1150 
     11 C11        -1.9151  -16.4649  -50.0879 C.ar      23 UNK        -0.0193 
     12 C12        -1.2330  -17.6379  -50.4260 C.ar      23 UNK        -0.1150 
     13 C13         0.1581  -17.7148  -50.3228 C.ar      23 UNK        -0.0193 
     14 C14         0.8771  -16.5962  -49.8944 C.ar      23 UNK        -0.1150 
     15 C15         0.8795  -19.0081  -50.6736 C.3       23 UNK        -0.0205 
     16 S16         0.9879  -20.1365  -49.2481 S.3       23 UNK        -0.2404 
     17 C17        -0.7636  -20.5908  -49.0237 C.3       23 UNK        -0.0398 
     18 CA         -0.9523  -21.8527  -48.1559 C.3       11 UNK         0.1400 
     19 N          -0.4998  -21.6669  -46.7750 N.am      11 UNK        -0.5000 
     20 C          -0.4331  -22.6417  -45.8574 C.2       10 UNK         0.5000 
     21 O          -0.6938  -23.8211  -46.0921 O.2       10 UNK        -0.5000 
     22 CA         -0.0788  -22.2177  -44.4224 C.3       10 UNK         0.1400 
     23 CB          1.4376  -22.0418  -44.2499 C.3       10 UNK        -0.1800 
     24 N          -0.7727  -20.9891  -44.0366 N.am      10 UNK        -0.5000 
     25 C          -2.0960  -20.9035  -43.8395 C.2       9 UNK         0.5000 
     26 O          -2.8614  -21.8650  -43.9120 O.2       9 UNK        -0.5000 
     27 CA         -2.6640  -19.5015  -43.5578 C.3       9 UNK         0.1400 
     28 CB         -2.5248  -19.1450  -42.0705 C.3       9 UNK        -0.1800 
     29 N          -2.0233  -18.4673  -44.3704 N.am      9 UNK        -0.5000 
     30 C          -2.1698  -18.3549  -45.6993 C.2       8 UNK         0.5000 
     31 O          -2.8713  -19.1050  -46.3746 O.2       8 UNK        -0.5000 
     32 CA         -1.3655  -17.2459  -46.4005 C.3       8 UNK         0.1400 
     33 CB         -2.1422  -15.9214  -46.3429 C.3       8 UNK        -0.1800 
     34 N          -0.0327  -17.0446  -45.8343 N.am      8 UNK        -0.5000 
     35 C           0.9101  -17.9865  -45.6879 C.2       7 UNK         0.5000 
     36 O           0.7703  -19.1553  -46.0436 O.2       7 UNK        -0.5000 
     37 CA          2.1970  -17.5715  -44.9506 C.3       7 UNK         0.1400 
     38 CB          3.3099  -17.2142  -45.9465 C.3       7 UNK        -0.1800 
     39 N           1.9974  -16.4582  -44.0174 N.am      7 UNK        -0.5000 
     40 C           1.2155  -16.4943  -42.9291 C.2       6 UNK         0.5000 
     41 O           0.5717  -17.4915  -42.5973 O.2       6 UNK        -0.5000 
     42 CA          1.1254  -15.1980  -42.0946 C.3       6 UNK         0.1400 
     43 CB          0.3640  -15.3920  -40.7717 C.3       6 UNK        -0.1800 
     44 N           2.4363  -14.6147  -41.8000 N.am      6 UNK        -0.5000 
     45 C           3.1931  -13.9070  -42.6444 C.2       5 UNK         0.5000 
     46 O           2.8450  -13.6478  -43.7980 O.2       5 UNK        -0.5000 
     47 CA          4.5454  -13.4025  -42.1025 C.3       5 UNK         0.1400 
     48 CB          5.4769  -12.9208  -43.2271 C.3       5 UNK        -0.1800 
     49 N           4.3646  -12.3210  -41.1329 N.am      5 UNK        -0.5000 
     50 C           3.9468  -12.4844  -39.8685 C.2       4 UNK         0.5000 
     51 O           3.7027  -13.5875  -39.3758 O.2       4 UNK        -0.5000 
     52 CA          3.7730  -11.2235  -38.9977 C.3       4 UNK         0.1400 
     53 CB          4.9448  -11.0869  -38.0132 C.3       4 UNK        -0.1800 
     54 N           3.6552   -9.9811  -39.7620 N.am      4 UNK        -0.5000 
     55 C           2.6050   -9.6320  -40.5162 C.2       3 UNK         0.5000 
     56 O           1.5989  -10.3284  -40.6506 O.2       3 UNK        -0.5000 
     57 CA          2.6937   -8.2854  -41.2636 C.3       3 UNK         0.1400 
     58 CB          3.6810   -7.2807  -40.6273 C.3       3 UNK        -0.1800 
     59 N           2.9918   -8.4686  -42.6876 N.am      3 UNK        -0.5000 
     60 C           4.0608   -9.0773  -43.2198 C.2       2 UNK         0.5000 
     61 O           4.9496   -9.6192  -42.5596 O.2       2 UNK        -0.5000 
     62 CA          4.0849   -9.1537  -44.7510 C.3       2 UNK         0.1400 
     63 CB          5.4950   -9.3784  -45.3308 C.3       2 UNK        -0.1800 
     64 N           3.1969  -10.2417  -45.1329 N.am      2 UNK        -0.5000 
     65 C           2.5344  -10.3541  -46.2894 C.2       1 UNK         0.5000 
     66 O           2.6375   -9.5559  -47.2217 O.2       1 UNK        -0.5000 
     67 C          -2.4176  -22.3268  -48.2188 C.2       11 UNK         0.5000 
     68 O          -2.7136  -23.2446  -48.9815 O.2       11 UNK        -0.5000 
     69 N          -3.3001  -21.7274  -47.4062 N.am      12 UNK        -0.5000 
     70 CA         -4.7051  -22.1171  -47.2774 C.3       12 UNK         0.1400 
     71 CB         -5.4537  -21.1023  -46.4015 C.3       12 UNK        -0.1800 
     72 C          -4.8750  -23.5453  -46.7300 C.2       12 UNK         0.5000 
     73 O          -5.6639  -24.3108  -47.2840 O.2       12 UNK        -0.5000 
     74 N          -4.0971  -23.8998  -45.6961 N.am      13 UNK        -0.5000 
     75 CA         -4.0488  -25.2453  -45.1144 C.3       13 UNK         0.1400 
     76 CB         -3.1891  -25.2242  -43.8417 C.3       13 UNK        -0.1800 
     77 C          -3.5371  -26.3130  -46.1023 C.2       13 UNK         0.5000 
     78 O          -4.0421  -27.4359  -46.1023 O.2       13 UNK        -0.5000 
     79 N          -2.5772  -25.9292  -46.9536 N.am      14 UNK        -0.5000 
     80 CA         -2.0417  -26.7380  -48.0502 C.3       14 UNK         0.1400 
     81 CB         -0.6359  -26.2195  -48.3969 C.3       14 UNK        -0.1800 
     82 C          -2.9361  -26.7456  -49.3089 C.2       14 UNK         0.5000 
     83 O          -2.5693  -27.3911  -50.2923 O.2       14 UNK        -0.5000 
     84 N          -4.0555  -26.0029  -49.2892 N.am      15 UNK        -0.5000 
     85 CA         -5.0073  -25.7891  -50.3868 C.3       15 UNK         0.1400 
     86 CB         -5.8104  -27.0769  -50.6604 C.3       15 UNK        -0.1800 
     87 C          -4.3361  -25.2208  -51.6555 C.2       15 UNK         0.5000 
     88 O          -4.6571  -25.6399  -52.7676 O.2       15 UNK        -0.5000 
     89 N          -3.3586  -24.3240  -51.4520 N.am      16 UNK        -0.5000 
     90 CA         -2.4697  -23.7161  -52.4486 C.3       16 UNK         0.1400 
     91 CB         -3.2488  -22.7006  -53.3074 C.3       16 UNK        -0.1800 
     92 C          -1.6970  -24.7465  -53.3034 C.2       16 UNK         0.5000 
     93 O          -1.3650  -24.4587  -54.4527 O.2       16 UNK        -0.5000 
     94 N          -1.4657  -25.9495  -52.7512 N.am      17 UNK        -0.5000 
     95 CA         -0.9086  -27.1316  -53.4209 C.3       17 UNK         0.1400 
     96 CB          0.5810  -26.9165  -53.7600 C.3       17 UNK        -0.1800 
     97 C          -1.7477  -27.5849  -54.6393 C.2       17 UNK         0.5000 
     98 O          -1.1962  -28.1126  -55.6060 O.2       17 UNK        -0.5000 
     99 N          -3.0665  -27.3437  -54.5696 N.am      18 UNK        -0.5000 
    100 CA        -4.0937  -27.5750  -55.5893 C.3       18 UNK         0.1400 
    101 CB        -4.1568  -29.0581  -56.0098 C.3       18 UNK        -0.1800 
    102 C         -4.0230  -26.6188  -56.7996 C.2       18 UNK         0.5000 
    103 O         -4.7902  -26.7990  -57.7477 O.2       18 UNK        -0.5000 
    104 N         -3.1603  -25.5924  -56.7537 N.am      19 UNK        -0.5000 
    105 CA        -3.1149  -24.5053  -57.7316 C.3       19 UNK         0.1400 
    106 CB        -1.6868  -23.9362  -57.8014 C.3       19 UNK        -0.1800 
    107 C         -4.1650  -23.4490  -57.3424 C.2       19 UNK         0.5000 
    108 O         -3.8215  -22.4119  -56.7730 O.2       19 UNK        -0.5000 
    109 N         -5.4369  -23.7799  -57.6061 N.am      20 UNK        -0.5000 
    110 CA        -6.6448  -23.1089  -57.1187 C.3       20 UNK         0.1400 
    111 CB        -6.7460  -21.6562  -57.6401 C.3       20 UNK        -0.1800 
    112 C         -6.7562  -23.2626  -55.5869 C.2       20 UNK         0.5000 
    113 O         -6.6934  -24.3928  -55.1006 O.2       20 UNK        -0.5000 
    114 N         -6.9232  -22.1550  -54.8592 N.am      21 UNK        -0.5000 
    115 CA        -6.9829  -22.0865  -53.4034 C.3       21 UNK         0.1400 
    116 CB        -8.3782  -22.5105  -52.9087 C.3       21 UNK        -0.1800 
    117 C         -6.6541  -20.6490  -52.9733 C.2       21 UNK         0.5000 
    118 O         -6.7327  -19.7331  -53.7975 O.2       21 UNK        -0.5000 
    119 N         -6.3111  -20.4751  -51.6929 N.am      22 UNK        -0.5000 
    120 CA        -6.0048  -19.1723  -51.0763 C.3       22 UNK         0.1400 
    121 C         -6.5816  -19.0245  -49.6366 C.2       22 UNK         0.5000 
    122 N         -7.4923  -19.8851  -49.1950 N.am      22 UNK        -0.7600 
    123 O         -6.2179  -18.1083  -48.9067 O.2       22 UNK        -0.5000 
    124 C124       -4.4901  -18.8257  -51.1803 C.3       23 UNK        -0.0398 
    125 S125       -4.1941  -17.0758  -51.6247 S.3       23 UNK        -0.2404 
    126 C126       -3.4406  -16.4035  -50.1042 C.3       23 UNK        -0.0205 
    127 H127        0.5513  -12.1291  -42.5495 H         1 UNK         0.0600 
    128 H128       -1.0752  -12.5193  -43.1368 H         1 UNK         0.0600 
    129 H129       -0.7201  -10.9158  -42.4829 H         1 UNK         0.0600 
    130 H130        1.4957  -12.6996  -44.6393 H         1 UNK         0.3000 
    131 H131        0.7578  -11.2623  -47.0638 H         1 UNK         0.0600 
    132 H132        3.1655  -13.0646  -46.4796 H         1 UNK         0.0800 
    133 H133        2.7230  -12.4474  -48.0487 H         1 UNK         0.0800 
    134 H134        1.9794  -14.1821  -49.6082 H         1 UNK         0.0800 
    135 H135        0.4952  -13.2755  -49.4184 H         1 UNK         0.0800 
    136 H136       -1.6919  -14.4354  -49.4070 H         1 UNK         0.1150 
    137 H137       -1.7831  -18.5047  -50.7555 H         1 UNK         0.1150 
    138 H138        1.9531  -16.6508  -49.8059 H         1 UNK         0.1150 
    139 H139        0.3783  -19.5087  -51.5034 H         1 UNK         0.0800 
    140 H140        1.8895  -18.7857  -51.0211 H         1 UNK         0.0800 
    141 H141       -1.1970  -20.7472  -50.0134 H         1 UNK         0.0800 
    142 H142       -1.2901  -19.7455  -48.5792 H         1 UNK         0.0800 
    143 H143       -0.3439  -22.6497  -48.5888 H         1 UNK         0.0600 
    144 H144       -0.2035  -20.7294  -46.5144 H         1 UNK         0.3000 
    145 H145       -0.4029  -23.0146  -43.7496 H         1 UNK         0.0600 
    146 H146        1.6891  -21.7725  -43.2240 H         1 UNK         0.0600 
    147 H147        1.9629  -22.9694  -44.4807 H         1 UNK         0.0600 
    148 H148        1.8376  -21.2697  -44.9069 H         1 UNK         0.0600 
    149 H149       -0.2231  -20.1419  -44.0154 H         1 UNK         0.3000 
    150 H150       -3.7276  -19.5164  -43.8049 H         1 UNK         0.0600 
    151 H151       -3.0318  -19.8808  -41.4450 H         1 UNK         0.0600 
    152 H152       -2.9685  -18.1731  -41.8540 H         1 UNK         0.0600 
    153 H153       -1.4803  -19.1135  -41.7581 H         1 UNK         0.0600 
    154 H154       -1.3823  -17.8469  -43.8940 H         1 UNK         0.3000 
    155 H155       -1.2363  -17.5331  -47.4448 H         1 UNK         0.0600 
    156 H156       -2.2999  -15.5907  -45.3156 H         1 UNK         0.0600 
    157 H157       -3.1225  -16.0247  -46.8101 H         1 UNK         0.0600 
    158 H158       -1.6160  -15.1265  -46.8694 H         1 UNK         0.0600 
    159 H159        0.1927  -16.1062  -45.5398 H         1 UNK         0.3000 
    160 H160        2.5275  -18.4351  -44.3698 H         1 UNK         0.0600 
    161 H161        4.2493  -17.0117  -45.4320 H         1 UNK         0.0600 
    162 H162        3.4894  -18.0361  -46.6409 H         1 UNK         0.0600 
    163 H163        3.0571  -16.3360  -46.5394 H         1 UNK         0.0600 
    164 H164        2.4696  -15.5864  -44.2309 H         1 UNK         0.3000 
    165 H165        0.5561  -14.4902  -42.6979 H         1 UNK         0.0600 
    166 H166        0.2688  -14.4498  -40.2314 H         1 UNK         0.0600 
    167 H167       -0.6456  -15.7654  -40.9485 H         1 UNK         0.0600 
    168 H168        0.8698  -16.1040  -40.1184 H         1 UNK         0.0600 
    169 H169        2.7823  -14.7350  -40.8543 H         1 UNK         0.3000 
    170 H170        5.0372  -14.2415  -41.6058 H         1 UNK         0.0600 
    171 H171        5.0345  -12.1005  -43.7899 H         1 UNK         0.0600 
    172 H172        6.4332  -12.5785  -42.8314 H         1 UNK         0.0600 
    173 H173        5.6843  -13.7258  -43.9332 H         1 UNK         0.0600 
    174 H174        4.5420  -11.3798  -41.4669 H         1 UNK         0.3000 
    175 H175        2.8555  -11.3537  -38.4200 H         1 UNK         0.0600 
    176 H176        5.8916  -10.9375  -38.5338 H         1 UNK         0.0600 
    177 H177        4.7961  -10.2452  -37.3364 H         1 UNK         0.0600 
    178 H178        5.0461  -11.9820  -37.3980 H         1 UNK         0.0600 
    179 H179        4.4550   -9.3648  -39.7467 H         1 UNK         0.3000 
    180 H180        1.6982   -7.8422  -41.2088 H         1 UNK         0.0600 
    181 H181        4.7184   -7.6075  -40.7033 H         1 UNK         0.0600 
    182 H182        3.4573   -7.1266  -39.5708 H         1 UNK         0.0600 
    183 H183        3.6092   -6.3080  -41.1140 H         1 UNK         0.0600 
    184 H184        2.2864   -8.1170  -43.3203 H         1 UNK         0.3000 
    185 H185        3.6977   -8.2097  -45.1406 H         1 UNK         0.0600 
    186 H186        6.1757   -8.5889  -45.0103 H         1 UNK         0.0600 
    187 H187        5.9231  -10.3288  -45.0131 H         1 UNK         0.0600 
    188 H188        5.4787   -9.3696  -46.4206 H         1 UNK         0.0600 
    189 H189        3.0268  -10.9380  -44.4199 H         1 UNK         0.3000 
    190 H190       -3.0038  -20.9258  -46.8549 H         1 UNK         0.3000 
    191 H191       -5.1480  -22.0897  -48.2751 H         1 UNK         0.0600 
    192 H192       -5.0390  -21.0532  -45.3948 H         1 UNK         0.0600 
    193 H193       -6.5079  -21.3668  -46.3113 H         1 UNK         0.0600 
    194 H194       -5.4064  -20.1016  -46.8313 H         1 UNK         0.0600 
    195 H195       -3.5024  -23.1978  -45.2660 H         1 UNK         0.3000 
    196 H196       -5.0668  -25.5201  -44.8311 H         1 UNK         0.0600 
    197 H197       -3.1586  -26.2091  -43.3741 H         1 UNK         0.0600 
    198 H198       -3.5911  -24.5272  -43.1063 H         1 UNK         0.0600 
    199 H199       -2.1614  -24.9293  -44.0544 H         1 UNK         0.0600 
    200 H200       -2.1696  -25.0068  -46.8373 H         1 UNK         0.3000 
    201 H201       -1.9490  -27.7720  -47.7123 H         1 UNK         0.0600 
    202 H202        0.0184  -26.2416  -47.5252 H         1 UNK         0.0600 
    203 H203       -0.6669  -25.1935  -48.7650 H         1 UNK         0.0600 
    204 H204       -0.1669  -26.8315  -49.1684 H         1 UNK         0.0600 
    205 H205       -4.2581  -25.4829  -48.4442 H         1 UNK         0.3000 
    206 H206       -5.7074  -25.0260  -50.0447 H         1 UNK         0.0600 
    207 H207       -6.2870  -27.4434  -49.7512 H         1 UNK         0.0600 
    208 H208       -6.6004  -26.8978  -51.3907 H         1 UNK         0.0600 
    209 H209       -5.1771  -27.8736  -51.0521 H         1 UNK         0.0600 
    210 H210       -3.1630  -24.0520  -50.4881 H         1 UNK         0.3000 
    211 H211       -1.7149  -23.1649  -51.8861 H         1 UNK         0.0600 
    212 H212       -3.9888  -23.1936  -53.9386 H         1 UNK         0.0600 
    213 H213       -2.5805  -22.1451  -53.9665 H         1 UNK         0.0600 
    214 H214       -3.7646  -21.9712  -52.6840 H         1 UNK         0.0600 
    215 H215       -1.8195  -26.1215  -51.8166 H         1 UNK         0.3000 
    216 H216       -0.9675  -27.9450  -52.6963 H         1 UNK         0.0600 
    217 H217        1.0370  -27.8391  -54.1209 H         1 UNK         0.0600 
    218 H218        1.1433  -26.6008  -52.8813 H         1 UNK         0.0600 
    219 H219        0.7163  -26.1613  -54.5347 H         1 UNK         0.0600 
    220 H220       -3.4130  -26.8525  -53.7501 H         1 UNK         0.3000 
    221 H221       -5.0384  -27.3415  -55.0958 H         1 UNK         0.0600 
    222 H222       -3.2888  -29.3525  -56.5999 H         1 UNK         0.0600 
    223 H223       -4.2125  -29.7135  -55.1406 H         1 UNK         0.0600 
    224 H224       -5.0408  -29.2531  -56.6179 H         1 UNK         0.0600 
    225 H225       -2.5865  -25.4680  -55.9275 H         1 UNK         0.3000 
    226 H226       -3.3630  -24.8874  -58.7241 H         1 UNK         0.0600 
    227 H227       -0.9656  -24.7122  -58.0577 H         1 UNK         0.0600 
    228 H228       -1.6176  -23.1609  -58.5651 H         1 UNK         0.0600 
    229 H229       -1.3755  -23.4899  -56.8573 H         1 UNK         0.0600 
    230 H230       -5.5918  -24.6971  -58.0071 H         1 UNK         0.3000 
    231 H231       -7.4869  -23.6618  -57.5370 H         1 UNK         0.0600 
    232 H232       -6.6558  -21.6262  -58.7259 H         1 UNK         0.0600 
    233 H233       -5.9727  -21.0080  -57.2273 H         1 UNK         0.0600 
    234 H234       -7.7124  -21.2178  -57.3884 H         1 UNK         0.0600 
    235 H235       -6.9211  -21.2483  -55.3109 H         1 UNK         0.3000 
    236 H236       -6.2292  -22.7544  -52.9818 H         1 UNK         0.0600 
    237 H237       -8.4446  -22.4588  -51.8216 H         1 UNK         0.0600 
    238 H238       -9.1597  -21.8688  -53.3176 H         1 UNK         0.0600 
    239 H239       -8.6059  -23.5375  -53.1944 H         1 UNK         0.0600 
    240 H240       -6.2595  -21.2728  -51.0763 H         1 UNK         0.3000 
    241 H241       -6.5627  -18.4203  -51.6374 H         1 UNK         0.0600 
    242 H242       -7.8639  -19.7599  -48.2669 H         1 UNK         0.3800 
    243 H243       -7.8833  -20.5940  -49.7928 H         1 UNK         0.3800 
    244 H244       -4.0186  -19.4181  -51.9657 H         1 UNK         0.0800 
    245 H245       -3.9619  -19.0918  -50.2633 H         1 UNK         0.0800 
    246 H246       -3.8264  -16.9264  -49.2285 H         1 UNK         0.0800 
    247 H247       -3.7713  -15.3687  -50.0052 H         1 UNK         0.0800 
@<TRIPOS>BOND
     1    1    2 1    
     2    1  127 1    
     3    1  128 1    
     4    1  129 1    
     5    2    3 2    
     6    2    4 am   BACKBONE|DICT|INTERRES
     7    4    5 1    
     8    4  130 1    
     9    5    6 1    
    10    5   65 1    
    11    5  131 1    
    12    6    7 1    
    13    6  132 1    
    14    6  133 1    
    15    7    8 1    
    16    8    9 1    
    17    8  134 1    
    18    8  135 1    
    19    9   10 ar   
    20    9   14 ar   
    21   10   11 ar   
    22   10  136 1    
    23   11   12 ar   
    24   11  126 1    
    25   12   13 ar   
    26   12  137 1    
    27   13   14 ar   
    28   13   15 1    
    29   14  138 1    
    30   15   16 1    
    31   15  139 1    
    32   15  140 1    
    33   16   17 1    
    34   17   18 1    
    35   17  141 1    
    36   17  142 1    
    37   18   19 1    
    38   18   67 1    
    39   18  143 1    
    40   19   20 am   BACKBONE|DICT|INTERRES
    41   19  144 1    
    42   20   21 2    
    43   20   22 1    
    44   22   23 1    
    45   22   24 1    
    46   22  145 1    
    47   23  146 1    
    48   23  147 1    
    49   23  148 1    
    50   24   25 am   BACKBONE|DICT|INTERRES
    51   24  149 1    
    52   25   26 2    
    53   25   27 1    
    54   27   28 1    
    55   27   29 1    
    56   27  150 1    
    57   28  151 1    
    58   28  152 1    
    59   28  153 1    
    60   29   30 am   BACKBONE|DICT|INTERRES
    61   29  154 1    
    62   30   31 2    
    63   30   32 1    
    64   32   33 1    
    65   32   34 1    
    66   32  155 1    
    67   33  156 1    
    68   33  157 1    
    69   33  158 1    
    70   34   35 am   BACKBONE|DICT|INTERRES
    71   34  159 1    
    72   35   36 2    
    73   35   37 1    
    74   37   38 1    
    75   37   39 1    
    76   37  160 1    
    77   38  161 1    
    78   38  162 1    
    79   38  163 1    
    80   39   40 am   BACKBONE|DICT|INTERRES
    81   39  164 1    
    82   40   41 2    
    83   40   42 1    
    84   42   43 1    
    85   42   44 1    
    86   42  165 1    
    87   43  166 1    
    88   43  167 1    
    89   43  168 1    
    90   44   45 am   BACKBONE|DICT|INTERRES
    91   44  169 1    
    92   45   46 2    
    93   45   47 1    
    94   47   48 1    
    95   47   49 1    
    96   47  170 1    
    97   48  171 1    
    98   48  172 1    
    99   48  173 1    
   100   49   50 am   BACKBONE|DICT|INTERRES
   101   49  174 1    
   102   50   51 2    
   103   50   52 1    
   104   52   53 1    
   105   52   54 1    
   106   52  175 1    
   107   53  176 1    
   108   53  177 1    
   109   53  178 1    
   110   54   55 am   BACKBONE|DICT|INTERRES
   111   54  179 1    
   112   55   56 2    
   113   55   57 1    
   114   57   58 1    
   115   57   59 1    
   116   57  180 1    
   117   58  181 1    
   118   58  182 1    
   119   58  183 1    
   120   59   60 am   BACKBONE|DICT|INTERRES
   121   59  184 1    
   122   60   61 2    
   123   60   62 1    
   124   62   63 1    
   125   62   64 1    
   126   62  185 1    
   127   63  186 1    
   128   63  187 1    
   129   63  188 1    
   130   64   65 am   BACKBONE|DICT|INTERRES
   131   64  189 1    
   132   65   66 2    
   133   67   68 2    
   134   67   69 am   BACKBONE|DICT|INTERRES
   135   69   70 1    
   136   69  190 1    
   137   70   71 1    
   138   70   72 1    
   139   70  191 1    
   140   71  192 1    
   141   71  193 1    
   142   71  194 1    
   143   72   73 2    
   144   72   74 am   BACKBONE|DICT|INTERRES
   145   74   75 1    
   146   74  195 1    
   147   75   76 1    
   148   75   77 1    
   149   75  196 1    
   150   76  197 1    
   151   76  198 1    
   152   76  199 1    
   153   77   78 2    
   154   77   79 am   BACKBONE|DICT|INTERRES
   155   79   80 1    
   156   79  200 1    
   157   80   81 1    
   158   80   82 1    
   159   80  201 1    
   160   81  202 1    
   161   81  203 1    
   162   81  204 1    
   163   82   83 2    
   164   82   84 am   BACKBONE|DICT|INTERRES
   165   84   85 1    
   166   84  205 1    
   167   85   86 1    
   168   85   87 1    
   169   85  206 1    
   170   86  207 1    
   171   86  208 1    
   172   86  209 1    
   173   87   88 2    
   174   87   89 am   BACKBONE|DICT|INTERRES
   175   89   90 1    
   176   89  210 1    
   177   90   91 1    
   178   90   92 1    
   179   90  211 1    
   180   91  212 1    
   181   91  213 1    
   182   91  214 1    
   183   92   93 2    
   184   92   94 am   BACKBONE|DICT|INTERRES
   185   94   95 1    
   186   94  215 1    
   187   95   96 1    
   188   95   97 1    
   189   95  216 1    
   190   96  217 1    
   191   96  218 1    
   192   96  219 1    
   193   97   98 2    
   194   97   99 am   BACKBONE|DICT|INTERRES
   195   99  100 1    
   196   99  220 1    
   197  100  101 1    
   198  100  102 1    
   199  100  221 1    
   200  101  222 1    
   201  101  223 1    
   202  101  224 1    
   203  102  103 2    
   204  102  104 am   BACKBONE|DICT|INTERRES
   205  104  105 1    
   206  104  225 1    
   207  105  106 1    
   208  105  107 1    
   209  105  226 1    
   210  106  227 1    
   211  106  228 1    
   212  106  229 1    
   213  107  108 2    
   214  107  109 am   BACKBONE|DICT|INTERRES
   215  109  110 1    
   216  109  230 1    
   217  110  111 1    
   218  110  112 1    
   219  110  231 1    
   220  111  232 1    
   221  111  233 1    
   222  111  234 1    
   223  112  113 2    
   224  112  114 am   BACKBONE|DICT|INTERRES
   225  114  115 1    
   226  114  235 1    
   227  115  116 1    
   228  115  117 1    
   229  115  236 1    
   230  116  237 1    
   231  116  238 1    
   232  116  239 1    
   233  117  118 2    
   234  117  119 am   BACKBONE|DICT|INTERRES
   235  119  120 1    
   236  119  240 1    
   237  120  121 1    
   238  120  124 1    
   239  120  241 1    
   240  121  122 am   BACKBONE|DICT|INTERRES
   241  121  123 2    
   242  122  242 1    
   243  122  243 1    
   244  124  125 1    
   245  124  244 1    
   246  124  245 1    
   247  125  126 1    
   248  126  246 1    
   249  126  247 1    
@<TRIPOS>SUBSTRUCTURE
     1 UNK         1 GROUP             0       ****    0 ROOT    
