@<TRIPOS>MOLECULE
3R540
247   249    1
SMALL
USER_CHARGES


@<TRIPOS>ATOM
      1 CA          3.1303  -11.1053  -48.2805 C.3       0 UNK        -0.1800 
      2 C           3.8067  -12.3661  -47.7631 C.2       0 UNK         0.5000 
      3 O           5.0308  -12.4788  -47.8357 O.2       0 UNK        -0.5000 
      4 N           3.0270  -13.3172  -47.2362 N.am      1 UNK        -0.5000 
      5 CA          3.4881  -14.6388  -46.7956 C.3       1 UNK         0.1400 
      6 C6          2.4193  -15.7315  -47.0519 C.3       23 UNK        -0.0398 
      7 S7          2.0211  -15.8593  -48.8272 S.3       23 UNK        -0.2404 
      8 C8          3.2837  -17.0392  -49.3956 C.3       23 UNK        -0.0205 
      9 C9          2.6871  -18.4105  -49.6646 C.ar      23 UNK        -0.0193 
     10 C10         2.1722  -18.7029  -50.9293 C.ar      23 UNK        -0.1150 
     11 C11         1.6531  -19.9678  -51.2071 C.ar      23 UNK        -0.0193 
     12 C12         1.6303  -20.9364  -50.2009 C.ar      23 UNK        -0.1150 
     13 C13         2.1406  -20.6655  -48.9277 C.ar      23 UNK        -0.0193 
     14 C14         2.6771  -19.3949  -48.6712 C.ar      23 UNK        -0.1150 
     15 C15         2.1516  -21.7886  -47.8885 C.3       23 UNK        -0.0205 
     16 S16         2.1162  -21.2233  -46.1567 S.3       23 UNK        -0.2404 
     17 C17         2.3834  -22.7807  -45.2401 C.3       23 UNK        -0.0398 
     18 CA          1.1820  -23.2741  -44.3894 C.3       11 UNK         0.1400 
     19 N           0.4295  -22.1868  -43.7500 N.am      11 UNK        -0.5000 
     20 C          -0.2431  -22.2980  -42.5957 C.2       10 UNK         0.5000 
     21 O          -0.2493  -23.3154  -41.9018 O.2       10 UNK        -0.5000 
     22 CA         -1.0532  -21.0689  -42.1437 C.3       10 UNK         0.1400 
     23 CB         -0.1356  -20.0200  -41.4972 C.3       10 UNK        -0.1800 
     24 N          -1.8002  -20.4629  -43.2476 N.am      10 UNK        -0.5000 
     25 C          -2.9067  -21.0027  -43.7838 C.2       9 UNK         0.5000 
     26 O          -3.4357  -22.0257  -43.3507 O.2       9 UNK        -0.5000 
     27 CA         -3.5417  -20.3081  -45.0080 C.3       9 UNK         0.1400 
     28 CB         -4.8008  -19.5306  -44.5980 C.3       9 UNK        -0.1800 
     29 N          -2.6462  -19.4096  -45.7335 N.am      9 UNK        -0.5000 
     30 C          -1.5150  -19.7827  -46.3504 C.2       8 UNK         0.5000 
     31 O          -1.1519  -20.9560  -46.4270 O.2       8 UNK        -0.5000 
     32 CA         -0.6175  -18.6573  -46.9142 C.3       8 UNK         0.1400 
     33 CB         -0.9091  -18.4453  -48.4069 C.3       8 UNK        -0.1800 
     34 N          -0.7821  -17.3783  -46.2170 N.am      8 UNK        -0.5000 
     35 C          -0.6529  -17.1837  -44.8942 C.2       7 UNK         0.5000 
     36 O          -0.2207  -18.0415  -44.1249 O.2       7 UNK        -0.5000 
     37 CA         -1.1859  -15.8572  -44.3132 C.3       7 UNK         0.1400 
     38 CB         -0.0568  -15.0029  -43.7225 C.3       7 UNK        -0.1800 
     39 N          -1.9647  -15.0596  -45.2663 N.am      7 UNK        -0.5000 
     40 C          -3.1585  -15.4175  -45.7688 C.2       6 UNK         0.5000 
     41 O          -3.7289  -16.4658  -45.4658 O.2       6 UNK        -0.5000 
     42 CA         -3.8097  -14.4821  -46.8075 C.3       6 UNK         0.1400 
     43 CB         -4.9430  -13.6724  -46.1599 C.3       6 UNK        -0.1800 
     44 N          -2.8693  -13.5542  -47.4379 N.am      6 UNK        -0.5000 
     45 C          -1.8660  -13.8980  -48.2593 C.2       5 UNK         0.5000 
     46 O          -1.6453  -15.0547  -48.6150 O.2       5 UNK        -0.5000 
     47 CA         -0.9265  -12.7576  -48.7078 C.3       5 UNK         0.1400 
     48 CB         -1.3758  -12.1838  -50.0591 C.3       5 UNK        -0.1800 
     49 N          -0.8493  -11.6718  -47.7202 N.am      5 UNK        -0.5000 
     50 C          -0.2948  -11.8121  -46.5097 C.2       4 UNK         0.5000 
     51 O           0.2959  -12.8375  -46.1639 O.2       4 UNK        -0.5000 
     52 CA         -0.4833  -10.6493  -45.5153 C.3       4 UNK         0.1400 
     53 CB         -1.9416  -10.5985  -45.0295 C.3       4 UNK        -0.1800 
     54 N           0.3837  -10.8019  -44.3464 N.am      4 UNK        -0.5000 
     55 C           1.7013  -10.5717  -44.3410 C.2       3 UNK         0.5000 
     56 O           2.3032  -10.0622  -45.2876 O.2       3 UNK        -0.5000 
     57 CA          2.5025  -11.0240  -43.1081 C.3       3 UNK         0.1400 
     58 CB          1.6558  -11.7027  -42.0067 C.3       3 UNK        -0.1800 
     59 N           3.5249  -11.9300  -43.6129 N.am      3 UNK        -0.5000 
     60 C           4.5942  -12.4108  -42.9715 C.2       2 UNK         0.5000 
     61 O           4.8708  -12.1349  -41.8031 O.2       2 UNK        -0.5000 
     62 CA          5.5341  -13.3279  -43.7886 C.3       2 UNK         0.1400 
     63 CB          6.0310  -14.5405  -42.9741 C.3       2 UNK        -0.1800 
     64 N           4.9774  -13.7396  -45.0873 N.am      2 UNK        -0.5000 
     65 C           3.9422  -14.5606  -45.3253 C.2       1 UNK         0.5000 
     66 O           3.3337  -15.1769  -44.4512 O.2       1 UNK        -0.5000 
     67 C           0.2488  -24.2461  -45.1430 C.2       11 UNK         0.5000 
     68 O           0.5228  -25.4472  -45.1599 O.2       11 UNK        -0.5000 
     69 N          -0.8672  -23.7269  -45.6755 N.am      12 UNK        -0.5000 
     70 CA         -2.0800  -24.4189  -46.1244 C.3       12 UNK         0.1400 
     71 CB         -2.7258  -25.2120  -44.9720 C.3       12 UNK        -0.1800 
     72 C          -1.9416  -25.3092  -47.3711 C.2       12 UNK         0.5000 
     73 O          -2.6965  -25.1175  -48.3254 O.2       12 UNK        -0.5000 
     74 N          -1.0257  -26.2835  -47.3360 N.am      13 UNK        -0.5000 
     75 CA         -0.8955  -27.3601  -48.3222 C.3       13 UNK         0.1400 
     76 CB          0.1530  -28.3731  -47.8378 C.3       13 UNK        -0.1800 
     77 C          -0.5618  -26.8526  -49.7342 C.2       13 UNK         0.5000 
     78 O          -1.2349  -27.2226  -50.6968 O.2       13 UNK        -0.5000 
     79 N           0.4383  -25.9662  -49.8164 N.am      14 UNK        -0.5000 
     80 CA          0.8429  -25.2847  -51.0484 C.3       14 UNK         0.1400 
     81 CB          2.2588  -24.7187  -50.8571 C.3       14 UNK        -0.1800 
     82 C          -0.1362  -24.1697  -51.4677 C.2       14 UNK         0.5000 
     83 O          -0.0971  -23.7274  -52.6146 O.2       14 UNK        -0.5000 
     84 N          -0.9948  -23.7379  -50.5348 N.am      15 UNK        -0.5000 
     85 CA         -1.9691  -22.6602  -50.6918 C.3       15 UNK         0.1400 
     86 CB         -2.0610  -21.8936  -49.3641 C.3       15 UNK        -0.1800 
     87 C          -3.3467  -23.1672  -51.1574 C.2       15 UNK         0.5000 
     88 O          -4.3506  -22.4957  -50.9110 O.2       15 UNK        -0.5000 
     89 N          -3.3727  -24.3393  -51.8089 N.am      16 UNK        -0.5000 
     90 CA         -4.5469  -25.0293  -52.3493 C.3       16 UNK         0.1400 
     91 CB         -5.1594  -24.2272  -53.5175 C.3       16 UNK        -0.1800 
     92 C          -5.5647  -25.3912  -51.2492 C.2       16 UNK         0.5000 
     93 O          -6.7494  -25.0783  -51.3704 O.2       16 UNK        -0.5000 
     94 N          -5.0581  -26.0265  -50.1816 N.am      17 UNK        -0.5000 
     95 CA         -5.7786  -26.4315  -48.9689 C.3       17 UNK         0.1400 
     96 CB         -6.8525  -27.4946  -49.2827 C.3       17 UNK        -0.1800 
     97 C          -6.3235  -25.2161  -48.1919 C.2       17 UNK         0.5000 
     98 O          -7.4982  -25.1801  -47.8220 O.2       17 UNK        -0.5000 
     99 N          -5.4318  -24.2395  -47.9746 N.am      18 UNK        -0.5000 
    100 CA        -5.6379  -22.9799  -47.2519 C.3       18 UNK         0.1400 
    101 CB        -5.9655  -23.2402  -45.7659 C.3       18 UNK        -0.1800 
    102 C         -6.6379  -22.0107  -47.9150 C.2       18 UNK         0.5000 
    103 O         -7.1760  -21.1342  -47.2367 O.2       18 UNK        -0.5000 
    104 N         -6.8486  -22.1514  -49.2296 N.am      19 UNK        -0.5000 
    105 CA        -7.6607  -21.2347  -50.0296 C.3       19 UNK         0.1400 
    106 CB        -8.0619  -21.9288  -51.3393 C.3       19 UNK        -0.1800 
    107 C         -6.9282  -19.9132  -50.3284 C.2       19 UNK         0.5000 
    108 O         -7.5873  -18.8899  -50.5138 O.2       19 UNK        -0.5000 
    109 N         -5.5871  -19.9718  -50.3906 N.am      20 UNK        -0.5000 
    110 CA        -4.6649  -18.8947  -50.7740 C.3       20 UNK         0.1400 
    111 CB        -4.7027  -17.7324  -49.7588 C.3       20 UNK        -0.1800 
    112 C         -4.8685  -18.4475  -52.2380 C.2       20 UNK         0.5000 
    113 O         -4.6744  -17.2777  -52.5700 O.2       20 UNK        -0.5000 
    114 N         -5.2608  -19.4071  -53.0878 N.am      21 UNK        -0.5000 
    115 CA        -5.5380  -19.2217  -54.5133 C.3       21 UNK         0.1400 
    116 CB        -6.5225  -20.3169  -54.9559 C.3       21 UNK        -0.1800 
    117 C         -4.2679  -19.2488  -55.3878 C.2       21 UNK         0.5000 
    118 O         -4.3471  -18.9395  -56.5777 O.2       21 UNK        -0.5000 
    119 N         -3.1343  -19.6448  -54.7974 N.am      22 UNK        -0.5000 
    120 CA        -1.8108  -19.7107  -55.4280 C.3       22 UNK         0.1400 
    121 C         -1.2371  -18.3301  -55.8664 C.2       22 UNK         0.5000 
    122 N         -0.3089  -18.3165  -56.8143 N.am      22 UNK        -0.7600 
    123 O         -1.6012  -17.2768  -55.3479 O.2       22 UNK        -0.5000 
    124 C124       -0.8195  -20.5059  -54.5404 C.3       23 UNK        -0.0398 
    125 S125       -0.5550  -19.7970  -52.8747 S.3       23 UNK        -0.2404 
    126 C126        1.1689  -20.3025  -52.6076 C.3       23 UNK        -0.0205 
    127 H127        3.5180  -10.2298  -47.7600 H         1 UNK         0.0600 
    128 H128        3.3284  -10.9850  -49.3454 H         1 UNK         0.0600 
    129 H129        2.0510  -11.1357  -48.1391 H         1 UNK         0.0600 
    130 H130        2.0333  -13.1499  -47.1136 H         1 UNK         0.3000 
    131 H131        4.3717  -14.9199  -47.3729 H         1 UNK         0.0600 
    132 H132        1.4973  -15.4966  -46.5201 H         1 UNK         0.0800 
    133 H133        2.7470  -16.7051  -46.6834 H         1 UNK         0.0800 
    134 H134        4.0980  -17.1143  -48.6738 H         1 UNK         0.0800 
    135 H135        3.7334  -16.6496  -50.3101 H         1 UNK         0.0800 
    136 H136        2.1895  -17.9495  -51.7044 H         1 UNK         0.1150 
    137 H137        1.2315  -21.9140  -50.4195 H         1 UNK         0.1150 
    138 H138        3.0982  -19.1659  -47.7034 H         1 UNK         0.1150 
    139 H139        1.2948  -22.4463  -48.0451 H         1 UNK         0.0800 
    140 H140        3.0478  -22.3888  -48.0496 H         1 UNK         0.0800 
    141 H141        2.7381  -23.5618  -45.9149 H         1 UNK         0.0800 
    142 H142        3.2217  -22.5908  -44.5686 H         1 UNK         0.0800 
    143 H143        1.6193  -23.8744  -43.5882 H         1 UNK         0.0600 
    144 H144        0.3772  -21.3224  -44.2713 H         1 UNK         0.3000 
    145 H145       -1.7674  -21.3979  -41.3857 H         1 UNK         0.0600 
    146 H146       -0.7015  -19.1483  -41.1682 H         1 UNK         0.0600 
    147 H147        0.3678  -20.4317  -40.6216 H         1 UNK         0.0600 
    148 H148        0.6372  -19.6775  -42.1861 H         1 UNK         0.0600 
    149 H149       -1.4050  -19.6211  -43.6536 H         1 UNK         0.3000 
    150 H150       -3.8367  -21.0962  -45.6990 H         1 UNK         0.0600 
    151 H151       -5.5076  -20.1720  -44.0703 H         1 UNK         0.0600 
    152 H152       -5.3173  -19.1294  -45.4706 H         1 UNK         0.0600 
    153 H153       -4.5589  -18.6968  -43.9378 H         1 UNK         0.0600 
    154 H154       -2.8835  -18.4243  -45.7046 H         1 UNK         0.3000 
    155 H155        0.4231  -18.9598  -46.8003 H         1 UNK         0.0600 
    156 H156       -1.9552  -18.1945  -48.5829 H         1 UNK         0.0600 
    157 H157       -0.6789  -19.3400  -48.9834 H         1 UNK         0.0600 
    158 H158       -0.3022  -17.6416  -48.8210 H         1 UNK         0.0600 
    159 H159       -1.1345  -16.6140  -46.7779 H         1 UNK         0.3000 
    160 H160       -1.8549  -16.1260  -43.4930 H         1 UNK         0.0600 
    161 H161       -0.4497  -14.0906  -43.2747 H         1 UNK         0.0600 
    162 H162        0.6748  -14.7197  -44.4762 H         1 UNK         0.0600 
    163 H163        0.4784  -15.5458  -42.9425 H         1 UNK         0.0600 
    164 H164       -1.5291  -14.2094  -45.5971 H         1 UNK         0.3000 
    165 H165       -4.2387  -15.1124  -47.5895 H         1 UNK         0.0600 
    166 H166       -5.4657  -13.0640  -46.8982 H         1 UNK         0.0600 
    167 H167       -5.6825  -14.3313  -45.7026 H         1 UNK         0.0600 
    168 H168       -4.5684  -13.0080  -45.3800 H         1 UNK         0.0600 
    169 H169       -2.9802  -12.5785  -47.2073 H         1 UNK         0.3000 
    170 H170        0.0719  -13.1831  -48.8327 H         1 UNK         0.0600 
    171 H171       -1.4208  -12.9659  -50.8183 H         1 UNK         0.0600 
    172 H172       -2.3653  -11.7295  -49.9961 H         1 UNK         0.0600 
    173 H173       -0.6787  -11.4256  -50.4163 H         1 UNK         0.0600 
    174 H174       -1.3095  -10.8052  -47.9605 H         1 UNK         0.3000 
    175 H175       -0.2418   -9.7128  -46.0224 H         1 UNK         0.0600 
    176 H176       -2.2394  -11.5306  -44.5468 H         1 UNK         0.0600 
    177 H177       -2.0890   -9.7900  -44.3130 H         1 UNK         0.0600 
    178 H178       -2.6304  -10.4214  -45.8562 H         1 UNK         0.0600 
    179 H179       -0.0227  -11.2624  -43.5459 H         1 UNK         0.3000 
    180 H180        2.9884  -10.1400  -42.6913 H         1 UNK         0.0600 
    181 H181        1.2091  -12.6330  -42.3569 H         1 UNK         0.0600 
    182 H182        0.8553  -11.0485  -41.6593 H         1 UNK         0.0600 
    183 H183        2.2622  -11.9420  -41.1334 H         1 UNK         0.0600 
    184 H184        3.4131  -12.1782  -44.5862 H         1 UNK         0.3000 
    185 H185        6.4071  -12.7179  -44.0248 H         1 UNK         0.0600 
    186 H186        6.6036  -14.2169  -42.1042 H         1 UNK         0.0600 
    187 H187        5.2060  -15.1516  -42.6076 H         1 UNK         0.0600 
    188 H188        6.6833  -15.1775  -43.5713 H         1 UNK         0.0600 
    189 H189        5.3688  -13.2639  -45.8942 H         1 UNK         0.3000 
    190 H190       -0.9305  -22.7120  -45.7152 H         1 UNK         0.3000 
    191 H191       -2.7734  -23.6213  -46.3898 H         1 UNK         0.0600 
    192 H192       -2.0772  -26.0085  -44.6065 H         1 UNK         0.0600 
    193 H193       -3.6580  -25.6794  -45.2918 H         1 UNK         0.0600 
    194 H194       -2.9591  -24.5628  -44.1286 H         1 UNK         0.0600 
    195 H195       -0.4167  -26.3171  -46.5219 H         1 UNK         0.3000 
    196 H196       -1.8585  -27.8720  -48.3784 H         1 UNK         0.0600 
    197 H197        0.2687  -29.1893  -48.5522 H         1 UNK         0.0600 
    198 H198       -0.1395  -28.8153  -46.8852 H         1 UNK         0.0600 
    199 H199        1.1315  -27.9104  -47.7041 H         1 UNK         0.0600 
    200 H200        0.9321  -25.7175  -48.9717 H         1 UNK         0.3000 
    201 H201        0.8734  -26.0141  -51.8607 H         1 UNK         0.0600 
    202 H202        2.9791  -25.5172  -50.6787 H         1 UNK         0.0600 
    203 H203        2.3090  -24.0305  -50.0134 H         1 UNK         0.0600 
    204 H204        2.5900  -24.1769  -51.7442 H         1 UNK         0.0600 
    205 H205       -1.0201  -24.2235  -49.6495 H         1 UNK         0.3000 
    206 H206       -1.6153  -21.9688  -51.4542 H         1 UNK         0.0600 
    207 H207       -2.6364  -20.9754  -49.4713 H         1 UNK         0.0600 
    208 H208       -1.0692  -21.6164  -49.0100 H         1 UNK         0.0600 
    209 H209       -2.5365  -22.4842  -48.5833 H         1 UNK         0.0600 
    210 H210       -2.4905  -24.8151  -51.9335 H         1 UNK         0.3000 
    211 H211       -4.1899  -25.9766  -52.7559 H         1 UNK         0.0600 
    212 H212       -5.5402  -23.2595  -53.1942 H         1 UNK         0.0600 
    213 H213       -5.9890  -24.7697  -53.9723 H         1 UNK         0.0600 
    214 H214       -4.4217  -24.0485  -54.2997 H         1 UNK         0.0600 
    215 H215       -4.0575  -26.1739  -50.1555 H         1 UNK         0.3000 
    216 H216       -5.0389  -26.9002  -48.3180 H         1 UNK         0.0600 
    217 H217       -7.2948  -27.8819  -48.3642 H         1 UNK         0.0600 
    218 H218       -6.4235  -28.3416  -49.8180 H         1 UNK         0.0600 
    219 H219       -7.6641  -27.0908  -49.8883 H         1 UNK         0.0600 
    220 H220       -4.4910  -24.3972  -48.3246 H         1 UNK         0.3000 
    221 H221       -4.6787  -22.4663  -47.2962 H         1 UNK         0.0600 
    222 H222       -6.9368  -23.7194  -45.6430 H         1 UNK         0.0600 
    223 H223       -5.2175  -23.8765  -45.2976 H         1 UNK         0.0600 
    224 H224       -5.9920  -22.3114  -45.1965 H         1 UNK         0.0600 
    225 H225       -6.3490  -22.8747  -49.7309 H         1 UNK         0.3000 
    226 H226       -8.5725  -20.9967  -49.4777 H         1 UNK         0.0600 
    227 H227       -8.6238  -22.8426  -51.1451 H         1 UNK         0.0600 
    228 H228       -8.6922  -21.2810  -51.9498 H         1 UNK         0.0600 
    229 H229       -7.1892  -22.1946  -51.9351 H         1 UNK         0.0600 
    230 H230       -5.1637  -20.8920  -50.2980 H         1 UNK         0.3000 
    231 H231       -3.6630  -19.3226  -50.7373 H         1 UNK         0.0600 
    232 H232       -4.5611  -18.0938  -48.7400 H         1 UNK         0.0600 
    233 H233       -5.6483  -17.1912  -49.7944 H         1 UNK         0.0600 
    234 H234       -3.9081  -17.0125  -49.9597 H         1 UNK         0.0600 
    235 H235       -5.3968  -20.3378  -52.7207 H         1 UNK         0.3000 
    236 H236       -6.0167  -18.2510  -54.6586 H         1 UNK         0.0600 
    237 H237       -6.8011  -20.1937  -56.0033 H         1 UNK         0.0600 
    238 H238       -6.0927  -21.3134  -54.8460 H         1 UNK         0.0600 
    239 H239       -7.4419  -20.2813  -54.3709 H         1 UNK         0.0600 
    240 H240       -3.1570  -19.8362  -53.8080 H         1 UNK         0.3000 
    241 H241       -1.9474  -20.2855  -56.3463 H         1 UNK         0.0600 
    242 H242        0.0790  -17.4318  -57.1035 H         1 UNK         0.3800 
    243 H243        0.0091  -19.1627  -57.2612 H         1 UNK         0.3800 
    244 H244       -1.1831  -21.5265  -54.4104 H         1 UNK         0.0800 
    245 H245        0.1393  -20.6049  -55.0519 H         1 UNK         0.0800 
    246 H246        1.8067  -19.8114  -53.3441 H         1 UNK         0.0800 
    247 H247        1.2632  -21.3745  -52.7872 H         1 UNK         0.0800 
@<TRIPOS>BOND
     1    1    2 1    
     2    1  127 1    
     3    1  128 1    
     4    1  129 1    
     5    2    3 2    
     6    2    4 am   BACKBONE|DICT|INTERRES
     7    4    5 1    
     8    4  130 1    
     9    5    6 1    
    10    5   65 1    
    11    5  131 1    
    12    6    7 1    
    13    6  132 1    
    14    6  133 1    
    15    7    8 1    
    16    8    9 1    
    17    8  134 1    
    18    8  135 1    
    19    9   10 ar   
    20    9   14 ar   
    21   10   11 ar   
    22   10  136 1    
    23   11   12 ar   
    24   11  126 1    
    25   12   13 ar   
    26   12  137 1    
    27   13   14 ar   
    28   13   15 1    
    29   14  138 1    
    30   15   16 1    
    31   15  139 1    
    32   15  140 1    
    33   16   17 1    
    34   17   18 1    
    35   17  141 1    
    36   17  142 1    
    37   18   19 1    
    38   18   67 1    
    39   18  143 1    
    40   19   20 am   BACKBONE|DICT|INTERRES
    41   19  144 1    
    42   20   21 2    
    43   20   22 1    
    44   22   23 1    
    45   22   24 1    
    46   22  145 1    
    47   23  146 1    
    48   23  147 1    
    49   23  148 1    
    50   24   25 am   BACKBONE|DICT|INTERRES
    51   24  149 1    
    52   25   26 2    
    53   25   27 1    
    54   27   28 1    
    55   27   29 1    
    56   27  150 1    
    57   28  151 1    
    58   28  152 1    
    59   28  153 1    
    60   29   30 am   BACKBONE|DICT|INTERRES
    61   29  154 1    
    62   30   31 2    
    63   30   32 1    
    64   32   33 1    
    65   32   34 1    
    66   32  155 1    
    67   33  156 1    
    68   33  157 1    
    69   33  158 1    
    70   34   35 am   BACKBONE|DICT|INTERRES
    71   34  159 1    
    72   35   36 2    
    73   35   37 1    
    74   37   38 1    
    75   37   39 1    
    76   37  160 1    
    77   38  161 1    
    78   38  162 1    
    79   38  163 1    
    80   39   40 am   BACKBONE|DICT|INTERRES
    81   39  164 1    
    82   40   41 2    
    83   40   42 1    
    84   42   43 1    
    85   42   44 1    
    86   42  165 1    
    87   43  166 1    
    88   43  167 1    
    89   43  168 1    
    90   44   45 am   BACKBONE|DICT|INTERRES
    91   44  169 1    
    92   45   46 2    
    93   45   47 1    
    94   47   48 1    
    95   47   49 1    
    96   47  170 1    
    97   48  171 1    
    98   48  172 1    
    99   48  173 1    
   100   49   50 am   BACKBONE|DICT|INTERRES
   101   49  174 1    
   102   50   51 2    
   103   50   52 1    
   104   52   53 1    
   105   52   54 1    
   106   52  175 1    
   107   53  176 1    
   108   53  177 1    
   109   53  178 1    
   110   54   55 am   BACKBONE|DICT|INTERRES
   111   54  179 1    
   112   55   56 2    
   113   55   57 1    
   114   57   58 1    
   115   57   59 1    
   116   57  180 1    
   117   58  181 1    
   118   58  182 1    
   119   58  183 1    
   120   59   60 am   BACKBONE|DICT|INTERRES
   121   59  184 1    
   122   60   61 2    
   123   60   62 1    
   124   62   63 1    
   125   62   64 1    
   126   62  185 1    
   127   63  186 1    
   128   63  187 1    
   129   63  188 1    
   130   64   65 am   BACKBONE|DICT|INTERRES
   131   64  189 1    
   132   65   66 2    
   133   67   68 2    
   134   67   69 am   BACKBONE|DICT|INTERRES
   135   69   70 1    
   136   69  190 1    
   137   70   71 1    
   138   70   72 1    
   139   70  191 1    
   140   71  192 1    
   141   71  193 1    
   142   71  194 1    
   143   72   73 2    
   144   72   74 am   BACKBONE|DICT|INTERRES
   145   74   75 1    
   146   74  195 1    
   147   75   76 1    
   148   75   77 1    
   149   75  196 1    
   150   76  197 1    
   151   76  198 1    
   152   76  199 1    
   153   77   78 2    
   154   77   79 am   BACKBONE|DICT|INTERRES
   155   79   80 1    
   156   79  200 1    
   157   80   81 1    
   158   80   82 1    
   159   80  201 1    
   160   81  202 1    
   161   81  203 1    
   162   81  204 1    
   163   82   83 2    
   164   82   84 am   BACKBONE|DICT|INTERRES
   165   84   85 1    
   166   84  205 1    
   167   85   86 1    
   168   85   87 1    
   169   85  206 1    
   170   86  207 1    
   171   86  208 1    
   172   86  209 1    
   173   87   88 2    
   174   87   89 am   BACKBONE|DICT|INTERRES
   175   89   90 1    
   176   89  210 1    
   177   90   91 1    
   178   90   92 1    
   179   90  211 1    
   180   91  212 1    
   181   91  213 1    
   182   91  214 1    
   183   92   93 2    
   184   92   94 am   BACKBONE|DICT|INTERRES
   185   94   95 1    
   186   94  215 1    
   187   95   96 1    
   188   95   97 1    
   189   95  216 1    
   190   96  217 1    
   191   96  218 1    
   192   96  219 1    
   193   97   98 2    
   194   97   99 am   BACKBONE|DICT|INTERRES
   195   99  100 1    
   196   99  220 1    
   197  100  101 1    
   198  100  102 1    
   199  100  221 1    
   200  101  222 1    
   201  101  223 1    
   202  101  224 1    
   203  102  103 2    
   204  102  104 am   BACKBONE|DICT|INTERRES
   205  104  105 1    
   206  104  225 1    
   207  105  106 1    
   208  105  107 1    
   209  105  226 1    
   210  106  227 1    
   211  106  228 1    
   212  106  229 1    
   213  107  108 2    
   214  107  109 am   BACKBONE|DICT|INTERRES
   215  109  110 1    
   216  109  230 1    
   217  110  111 1    
   218  110  112 1    
   219  110  231 1    
   220  111  232 1    
   221  111  233 1    
   222  111  234 1    
   223  112  113 2    
   224  112  114 am   BACKBONE|DICT|INTERRES
   225  114  115 1    
   226  114  235 1    
   227  115  116 1    
   228  115  117 1    
   229  115  236 1    
   230  116  237 1    
   231  116  238 1    
   232  116  239 1    
   233  117  118 2    
   234  117  119 am   BACKBONE|DICT|INTERRES
   235  119  120 1    
   236  119  240 1    
   237  120  121 1    
   238  120  124 1    
   239  120  241 1    
   240  121  122 am   BACKBONE|DICT|INTERRES
   241  121  123 2    
   242  122  242 1    
   243  122  243 1    
   244  124  125 1    
   245  124  244 1    
   246  124  245 1    
   247  125  126 1    
   248  126  246 1    
   249  126  247 1    
@<TRIPOS>SUBSTRUCTURE
     1 UNK         1 GROUP             0       ****    0 ROOT    
