@<TRIPOS>MOLECULE
3R540
247   249    1
SMALL
USER_CHARGES


@<TRIPOS>ATOM
      1 CA         -6.1015  -15.7882  -48.9800 C.3       0 UNK        -0.1800 
      2 C          -5.0159  -14.8293  -49.4444 C.2       0 UNK         0.5000 
      3 O          -5.2731  -13.6337  -49.5815 O.2       0 UNK        -0.5000 
      4 N          -3.8076  -15.3541  -49.6923 N.am      1 UNK        -0.5000 
      5 CA         -2.6252  -14.5923  -50.1217 C.3       1 UNK         0.1400 
      6 C6         -1.4650  -15.5144  -50.5901 C.3       23 UNK        -0.0398 
      7 S7         -0.8810  -16.6993  -49.3207 S.3       23 UNK        -0.2404 
      8 C8          0.8679  -16.9450  -49.7628 C.3       23 UNK        -0.0205 
      9 C9          1.1171  -18.3607  -50.2611 C.ar      23 UNK        -0.0193 
     10 C10         0.7000  -18.7339  -51.5398 C.ar      23 UNK        -0.1150 
     11 C11         0.9232  -20.0304  -52.0087 C.ar      23 UNK        -0.0193 
     12 C12         1.5651  -20.9588  -51.1840 C.ar      23 UNK        -0.1150 
     13 C13         2.0021  -20.6035  -49.9026 C.ar      23 UNK        -0.0193 
     14 C14         1.7758  -19.2934  -49.4529 C.ar      23 UNK        -0.1150 
     15 C15         2.7246  -21.6700  -49.0677 C.3       23 UNK        -0.0205 
     16 S16         3.0702  -21.2618  -47.3160 S.3       23 UNK        -0.2404 
     17 C17         1.3803  -21.1434  -46.6525 C.3       23 UNK        -0.0398 
     18 CA          0.9451  -22.3644  -45.8103 C.3       11 UNK         0.1400 
     19 N           1.6772  -22.4573  -44.5444 N.am      11 UNK        -0.5000 
     20 C           1.8626  -23.5966  -43.8631 C.2       10 UNK         0.5000 
     21 O           1.3834  -24.6757  -44.2147 O.2       10 UNK        -0.5000 
     22 CA          2.6944  -23.5146  -42.5648 C.3       10 UNK         0.1400 
     23 CB          3.4081  -24.8388  -42.2214 C.3       10 UNK        -0.1800 
     24 N           3.6305  -22.3861  -42.5386 N.am      10 UNK        -0.5000 
     25 C           4.6975  -22.1758  -43.3277 C.2       9 UNK         0.5000 
     26 O           5.0814  -22.9727  -44.1843 O.2       9 UNK        -0.5000 
     27 CA          5.4596  -20.8455  -43.1422 C.3       9 UNK         0.1400 
     28 CB          5.5577  -20.0754  -44.4705 C.3       9 UNK        -0.1800 
     29 N           4.8172  -19.9803  -42.1511 N.am      9 UNK        -0.5000 
     30 C           5.1411  -19.9110  -40.8526 C.2       8 UNK         0.5000 
     31 O           6.0952  -20.5077  -40.3532 O.2       8 UNK        -0.5000 
     32 CA          4.2255  -19.0567  -39.9509 C.3       8 UNK         0.1400 
     33 CB          4.8326  -17.6622  -39.7378 C.3       8 UNK        -0.1800 
     34 N           2.8624  -18.9197  -40.4764 N.am      8 UNK        -0.5000 
     35 C           1.9778  -19.9271  -40.5540 C.2       7 UNK         0.5000 
     36 O           2.2137  -21.0644  -40.1478 O.2       7 UNK        -0.5000 
     37 CA          0.6331  -19.6534  -41.2586 C.3       7 UNK         0.1400 
     38 CB         -0.4305  -19.2441  -40.2291 C.3       7 UNK        -0.1800 
     39 N           0.7110  -18.6299  -42.3008 N.am      7 UNK        -0.5000 
     40 C           1.5265  -18.6540  -43.3640 C.2       6 UNK         0.5000 
     41 O           2.2036  -19.6367  -43.6679 O.2       6 UNK        -0.5000 
     42 CA          1.6675  -17.3486  -44.1762 C.3       6 UNK         0.1400 
     43 CB          0.9500  -17.4429  -45.5321 C.3       6 UNK        -0.1800 
     44 N           1.1894  -16.1596  -43.4646 N.am      6 UNK        -0.5000 
     45 C           1.7206  -15.6506  -42.3430 C.2       5 UNK         0.5000 
     46 O           2.6654  -16.1625  -41.7428 O.2       5 UNK        -0.5000 
     47 CA          1.0501  -14.3902  -41.7765 C.3       5 UNK         0.1400 
     48 CB          1.4996  -13.1414  -42.5509 C.3       5 UNK        -0.1800 
     49 N          -0.4061  -14.5055  -41.8424 N.am      5 UNK        -0.5000 
     50 C          -1.1749  -15.0101  -40.8680 C.2       4 UNK         0.5000 
     51 O          -0.7406  -15.3787  -39.7765 O.2       4 UNK        -0.5000 
     52 CA         -2.6844  -15.1338  -41.1601 C.3       4 UNK         0.1400 
     53 CB         -3.4250  -13.8668  -40.7062 C.3       4 UNK        -0.1800 
     54 N          -2.9850  -15.3838  -42.5715 N.am      4 UNK        -0.5000 
     55 C          -2.6904  -16.5197  -43.2175 C.2       3 UNK         0.5000 
     56 O          -2.1642  -17.4939  -42.6816 O.2       3 UNK        -0.5000 
     57 CA         -2.9910  -16.5666  -44.7273 C.3       3 UNK         0.1400 
     58 CB         -4.3795  -17.1684  -44.9909 C.3       3 UNK        -0.1800 
     59 N          -2.8722  -15.2882  -45.4414 N.am      3 UNK        -0.5000 
     60 C          -1.7822  -14.5037  -45.4676 C.2       2 UNK         0.5000 
     61 O          -0.8122  -14.6694  -44.7289 O.2       2 UNK        -0.5000 
     62 CA         -1.7465  -13.4157  -46.5541 C.3       2 UNK         0.1400 
     63 CB         -0.3678  -12.7214  -46.6328 C.3       2 UNK        -0.1800 
     64 N          -2.0896  -14.0832  -47.8060 N.am      2 UNK        -0.5000 
     65 C          -2.1750  -13.5822  -49.0421 C.2       1 UNK         0.5000 
     66 O          -1.9647  -12.4063  -49.3415 O.2       1 UNK        -0.5000 
     67 C          -0.5806  -22.2924  -45.6200 C.2       11 UNK         0.5000 
     68 O          -1.2765  -22.3885  -46.6247 O.2       11 UNK        -0.5000 
     69 N          -1.0787  -22.0758  -44.3928 N.am      12 UNK        -0.5000 
     70 CA         -2.4532  -21.6617  -44.0612 C.3       12 UNK         0.1400 
     71 CB         -2.6614  -21.7820  -42.5443 C.3       12 UNK        -0.1800 
     72 C          -3.6043  -22.3701  -44.8106 C.2       12 UNK         0.5000 
     73 O          -4.5674  -21.7079  -45.1983 O.2       12 UNK        -0.5000 
     74 N          -3.4785  -23.6875  -45.0192 N.am      13 UNK        -0.5000 
     75 CA         -4.4549  -24.5049  -45.7447 C.3       13 UNK         0.1400 
     76 CB         -4.2081  -25.9846  -45.4128 C.3       13 UNK        -0.1800 
     77 C          -4.4344  -24.2886  -47.2727 C.2       13 UNK         0.5000 
     78 O          -5.4722  -24.4417  -47.9174 O.2       13 UNK        -0.5000 
     79 N          -3.2624  -23.9504  -47.8235 N.am      14 UNK        -0.5000 
     80 CA         -3.0380  -23.6938  -49.2464 C.3       14 UNK         0.1400 
     81 CB         -1.6296  -24.1782  -49.6263 C.3       14 UNK        -0.1800 
     82 C          -3.1957  -22.2027  -49.5847 C.2       14 UNK         0.5000 
     83 O          -3.6921  -21.8780  -50.6610 O.2       14 UNK        -0.5000 
     84 N          -2.8014  -21.3259  -48.6499 N.am      15 UNK        -0.5000 
     85 CA         -2.8148  -19.8626  -48.7408 C.3       15 UNK         0.1400 
     86 CB         -2.3472  -19.2831  -47.3967 C.3       15 UNK        -0.1800 
     87 C          -4.1786  -19.2623  -49.1230 C.2       15 UNK         0.5000 
     88 O          -4.2242  -18.2250  -49.7861 O.2       15 UNK        -0.5000 
     89 N          -5.2588  -19.9570  -48.7402 N.am      16 UNK        -0.5000 
     90 CA         -6.6509  -19.6758  -49.0935 C.3       16 UNK         0.1400 
     91 CB         -7.5478  -20.6998  -48.3816 C.3       16 UNK        -0.1800 
     92 C          -6.9401  -19.6674  -50.6109 C.2       16 UNK         0.5000 
     93 O          -7.9398  -19.0793  -51.0237 O.2       16 UNK        -0.5000 
     94 N          -6.0613  -20.2822  -51.4181 N.am      17 UNK        -0.5000 
     95 CA         -6.0977  -20.2498  -52.8818 C.3       17 UNK         0.1400 
     96 CB         -5.2018  -21.3673  -53.4321 C.3       17 UNK        -0.1800 
     97 C          -5.6877  -18.8916  -53.4893 C.2       17 UNK         0.5000 
     98 O          -5.7927  -18.7346  -54.7055 O.2       17 UNK        -0.5000 
     99 N          -5.2199  -17.9451  -52.6595 N.am      18 UNK        -0.5000 
    100 CA        -4.9188  -16.5509  -53.0023 C.3       18 UNK         0.1400 
    101 CB        -6.2141  -15.7826  -53.3339 C.3       18 UNK        -0.1800 
    102 C         -3.8281  -16.4036  -54.0807 C.2       18 UNK         0.5000 
    103 O         -3.9479  -15.5688  -54.9782 O.2       18 UNK        -0.5000 
    104 N         -2.7851  -17.2371  -53.9608 N.am      19 UNK        -0.5000 
    105 CA        -1.6047  -17.3207  -54.8290 C.3       19 UNK         0.1400 
    106 CB        -0.8406  -15.9804  -54.8749 C.3       19 UNK        -0.1800 
    107 C         -1.8767  -17.9019  -56.2349 C.2       19 UNK         0.5000 
    108 O         -0.9757  -17.8697  -57.0746 O.2       19 UNK        -0.5000 
    109 N         -3.0846  -18.4345  -56.4732 N.am      20 UNK        -0.5000 
    110 CA        -3.4802  -19.0610  -57.7320 C.3       20 UNK         0.1400 
    111 CB        -4.9370  -18.6809  -58.0605 C.3       20 UNK        -0.1800 
    112 C         -3.2459  -20.5807  -57.6631 C.2       20 UNK         0.5000 
    113 O         -2.1510  -21.0418  -57.9900 O.2       20 UNK        -0.5000 
    114 N         -4.2721  -21.3372  -57.2456 N.am      21 UNK        -0.5000 
    115 CA        -4.3229  -22.8051  -57.2900 C.3       21 UNK         0.1400 
    116 CB        -5.7461  -23.2738  -56.9461 C.3       21 UNK        -0.1800 
    117 C         -3.2777  -23.5348  -56.4201 C.2       21 UNK         0.5000 
    118 O         -3.0162  -24.7138  -56.6635 O.2       21 UNK        -0.5000 
    119 N         -2.6844  -22.8327  -55.4472 N.am      22 UNK        -0.5000 
    120 CA        -1.5214  -23.2957  -54.6734 C.3       22 UNK         0.1400 
    121 C         -0.1835  -23.3291  -55.4735 C.2       22 UNK         0.5000 
    122 N         -0.0866  -22.7174  -56.6493 N.am      22 UNK        -0.7600 
    123 O          0.7849  -23.9314  -55.0188 O.2       22 UNK        -0.5000 
    124 C124       -1.3731  -22.5253  -53.3347 C.3       23 UNK        -0.0398 
    125 S125       -1.2883  -20.7127  -53.5392 S.3       23 UNK        -0.2404 
    126 C126        0.5030  -20.4065  -53.4204 C.3       23 UNK        -0.0205 
    127 H127       -5.7072  -16.4977  -48.2528 H         1 UNK         0.0600 
    128 H128       -6.9212  -15.2455  -48.5090 H         1 UNK         0.0600 
    129 H129       -6.5008  -16.3440  -49.8285 H         1 UNK         0.0600 
    130 H130       -3.6879  -16.3600  -49.6065 H         1 UNK         0.3000 
    131 H131       -2.9311  -14.0035  -50.9893 H         1 UNK         0.0600 
    132 H132       -0.6298  -14.9034  -50.9358 H         1 UNK         0.0800 
    133 H133       -1.7855  -16.0919  -51.4573 H         1 UNK         0.0800 
    134 H134        1.4780  -16.7392  -48.8820 H         1 UNK         0.0800 
    135 H135        1.1856  -16.2306  -50.5227 H         1 UNK         0.0800 
    136 H136        0.2012  -18.0117  -52.1701 H         1 UNK         0.1150 
    137 H137        1.7407  -21.9613  -51.5485 H         1 UNK         0.1150 
    138 H138        2.1104  -18.9862  -48.4737 H         1 UNK         0.1150 
    139 H139        2.1448  -22.5940  -49.0927 H         1 UNK         0.0800 
    140 H140        3.6758  -21.8928  -49.5526 H         1 UNK         0.0800 
    141 H141        0.7030  -20.9859  -47.4935 H         1 UNK         0.0800 
    142 H142        1.3124  -20.2412  -46.0513 H         1 UNK         0.0800 
    143 H143        1.1425  -23.2633  -46.3985 H         1 UNK         0.0600 
    144 H144        2.0913  -21.5963  -44.2007 H         1 UNK         0.3000 
    145 H145        1.9751  -23.3212  -41.7682 H         1 UNK         0.0600 
    146 H146        3.9856  -24.7482  -41.3014 H         1 UNK         0.0600 
    147 H147        2.6879  -25.6440  -42.0718 H         1 UNK         0.0600 
    148 H148        4.0864  -25.1534  -43.0148 H         1 UNK         0.0600 
    149 H149        3.4144  -21.6773  -41.8495 H         1 UNK         0.3000 
    150 H150        6.4726  -21.0941  -42.8199 H         1 UNK         0.0600 
    151 H151        6.0822  -20.6608  -45.2266 H         1 UNK         0.0600 
    152 H152        6.1070  -19.1423  -44.3457 H         1 UNK         0.0600 
    153 H153        4.5734  -19.8336  -44.8722 H         1 UNK         0.0600 
    154 H154        3.9934  -19.4883  -42.4738 H         1 UNK         0.3000 
    155 H155        4.1641  -19.5519  -38.9795 H         1 UNK         0.0600 
    156 H156        4.9587  -17.1302  -40.6814 H         1 UNK         0.0600 
    157 H157        5.8147  -17.7324  -39.2686 H         1 UNK         0.0600 
    158 H158        4.2046  -17.0514  -39.0890 H         1 UNK         0.0600 
    159 H159        2.6170  -18.0107  -40.8563 H         1 UNK         0.3000 
    160 H160        0.3207  -20.5844  -41.7338 H         1 UNK         0.0600 
    161 H161       -1.4113  -19.1365  -40.6915 H         1 UNK         0.0600 
    162 H162       -0.1819  -18.2953  -39.7515 H         1 UNK         0.0600 
    163 H163       -0.5250  -19.9944  -39.4431 H         1 UNK         0.0600 
    164 H164        0.1376  -17.8084  -42.1646 H         1 UNK         0.3000 
    165 H165        2.7320  -17.1999  -44.3676 H         1 UNK         0.0600 
    166 H166        0.8561  -16.4664  -46.0077 H         1 UNK         0.0600 
    167 H167        1.5145  -18.0655  -46.2238 H         1 UNK         0.0600 
    168 H168       -0.0489  -17.8672  -45.4360 H         1 UNK         0.0600 
    169 H169        0.4215  -15.6544  -43.9030 H         1 UNK         0.3000 
    170 H170        1.3674  -14.2743  -40.7379 H         1 UNK         0.0600 
    171 H171        2.5825  -13.0213  -42.5006 H         1 UNK         0.0600 
    172 H172        1.2244  -13.1947  -43.6048 H         1 UNK         0.0600 
    173 H173        1.0525  -12.2388  -42.1342 H         1 UNK         0.0600 
    174 H174       -0.8300  -14.2956  -42.7388 H         1 UNK         0.3000 
    175 H175       -3.0635  -15.9770  -40.5785 H         1 UNK         0.0600 
    176 H176       -4.5025  -13.9723  -40.8340 H         1 UNK         0.0600 
    177 H177       -3.2425  -13.6651  -39.6498 H         1 UNK         0.0600 
    178 H178       -3.1034  -12.9891  -41.2684 H         1 UNK         0.0600 
    179 H179       -3.4075  -14.6295  -43.0921 H         1 UNK         0.3000 
    180 H180       -2.2536  -17.2396  -45.1649 H         1 UNK         0.0600 
    181 H181       -5.1747  -16.5228  -44.6165 H         1 UNK         0.0600 
    182 H182       -4.4849  -18.1383  -44.5022 H         1 UNK         0.0600 
    183 H183       -4.5477  -17.3268  -46.0563 H         1 UNK         0.0600 
    184 H184       -3.6507  -15.0423  -46.0354 H         1 UNK         0.3000 
    185 H185       -2.5139  -12.6758  -46.3220 H         1 UNK         0.0600 
    186 H186        0.4178  -13.4233  -46.9151 H         1 UNK         0.0600 
    187 H187       -0.3636  -11.9051  -47.3538 H         1 UNK         0.0600 
    188 H188       -0.0926  -12.2885  -45.6703 H         1 UNK         0.0600 
    189 H189       -2.2512  -15.0771  -47.7135 H         1 UNK         0.3000 
    190 H190       -0.4156  -22.0403  -43.6343 H         1 UNK         0.3000 
    191 H191       -2.5216  -20.6028  -44.3177 H         1 UNK         0.0600 
    192 H192       -1.9772  -21.1349  -41.9988 H         1 UNK         0.0600 
    193 H193       -2.5082  -22.8045  -42.1973 H         1 UNK         0.0600 
    194 H194       -3.6727  -21.4862  -42.2611 H         1 UNK         0.0600 
    195 H195       -2.6476  -24.1527  -44.6838 H         1 UNK         0.3000 
    196 H196       -5.4539  -24.2420  -45.3900 H         1 UNK         0.0600 
    197 H197       -4.9348  -26.6244  -45.9154 H         1 UNK         0.0600 
    198 H198       -4.3000  -26.1696  -44.3424 H         1 UNK         0.0600 
    199 H199       -3.2144  -26.3072  -45.7262 H         1 UNK         0.0600 
    200 H200       -2.4816  -23.7442  -47.2090 H         1 UNK         0.3000 
    201 H201       -3.7622  -24.2539  -49.8417 H         1 UNK         0.0600 
    202 H202       -1.5067  -25.2392  -49.4088 H         1 UNK         0.0600 
    203 H203       -0.8536  -23.6337  -49.0866 H         1 UNK         0.0600 
    204 H204       -1.4440  -24.0427  -50.6917 H         1 UNK         0.0600 
    205 H205       -2.3574  -21.7089  -47.8176 H         1 UNK         0.3000 
    206 H206       -2.1018  -19.5736  -49.5158 H         1 UNK         0.0600 
    207 H207       -1.3062  -19.5359  -47.1985 H         1 UNK         0.0600 
    208 H208       -2.4227  -18.1962  -47.3876 H         1 UNK         0.0600 
    209 H209       -2.9506  -19.6557  -46.5689 H         1 UNK         0.0600 
    210 H210       -5.0983  -20.7965  -48.2023 H         1 UNK         0.3000 
    211 H211       -6.8939  -18.6832  -48.7113 H         1 UNK         0.0600 
    212 H212       -7.3257  -21.7186  -48.7026 H         1 UNK         0.0600 
    213 H213       -8.6018  -20.5111  -48.5901 H         1 UNK         0.0600 
    214 H214       -7.4184  -20.6536  -47.3000 H         1 UNK         0.0600 
    215 H215       -5.2630  -20.7589  -51.0071 H         1 UNK         0.3000 
    216 H216       -7.1220  -20.4486  -53.2030 H         1 UNK         0.0600 
    217 H217       -5.2415  -21.3967  -54.5193 H         1 UNK         0.0600 
    218 H218       -5.5098  -22.3460  -53.0643 H         1 UNK         0.0600 
    219 H219       -4.1615  -21.2134  -53.1516 H         1 UNK         0.0600 
    220 H220       -5.1003  -18.1881  -51.6819 H         1 UNK         0.3000 
    221 H221       -4.4993  -16.1042  -52.1050 H         1 UNK         0.0600 
    222 H222       -6.6733  -16.1419  -54.2554 H         1 UNK         0.0600 
    223 H223       -6.9463  -15.8830  -52.5325 H         1 UNK         0.0600 
    224 H224       -6.0165  -14.7174  -53.4590 H         1 UNK         0.0600 
    225 H225       -2.8156  -17.9139  -53.2107 H         1 UNK         0.3000 
    226 H226       -0.9383  -18.0289  -54.3447 H         1 UNK         0.0600 
    227 H227       -0.6544  -15.5965  -53.8719 H         1 UNK         0.0600 
    228 H228       -1.3847  -15.2184  -55.4329 H         1 UNK         0.0600 
    229 H229        0.1298  -16.1016  -55.3576 H         1 UNK         0.0600 
    230 H230       -3.7792  -18.4232  -55.7369 H         1 UNK         0.3000 
    231 H231       -2.8627  -18.6808  -58.5486 H         1 UNK         0.0600 
    232 H232       -5.0354  -17.6029  -58.1896 H         1 UNK         0.0600 
    233 H233       -5.6362  -18.9804  -57.2808 H         1 UNK         0.0600 
    234 H234       -5.2612  -19.1474  -58.9917 H         1 UNK         0.0600 
    235 H235       -5.1265  -20.8699  -56.9784 H         1 UNK         0.3000 
    236 H236       -4.1208  -23.0966  -58.3227 H         1 UNK         0.0600 
    237 H237       -5.8356  -24.3556  -57.0537 H         1 UNK         0.0600 
    238 H238       -6.0224  -23.0276  -55.9216 H         1 UNK         0.0600 
    239 H239       -6.4828  -22.8233  -57.6113 H         1 UNK         0.0600 
    240 H240       -2.9368  -21.8636  -55.3259 H         1 UNK         0.3000 
    241 H241       -1.7157  -24.3361  -54.4060 H         1 UNK         0.0600 
    242 H242        0.7843  -22.7559  -57.1538 H         1 UNK         0.3800 
    243 H243       -0.8658  -22.1970  -57.0406 H         1 UNK         0.3800 
    244 H244       -2.2380  -22.7415  -52.7082 H         1 UNK         0.0800 
    245 H245       -0.5103  -22.8784  -52.7676 H         1 UNK         0.0800 
    246 H246        0.7713  -19.5975  -54.1005 H         1 UNK         0.0800 
    247 H247        1.0619  -21.2757  -53.7688 H         1 UNK         0.0800 
@<TRIPOS>BOND
     1    1    2 1    
     2    1  127 1    
     3    1  128 1    
     4    1  129 1    
     5    2    3 2    
     6    2    4 am   BACKBONE|DICT|INTERRES
     7    4    5 1    
     8    4  130 1    
     9    5    6 1    
    10    5   65 1    
    11    5  131 1    
    12    6    7 1    
    13    6  132 1    
    14    6  133 1    
    15    7    8 1    
    16    8    9 1    
    17    8  134 1    
    18    8  135 1    
    19    9   10 ar   
    20    9   14 ar   
    21   10   11 ar   
    22   10  136 1    
    23   11   12 ar   
    24   11  126 1    
    25   12   13 ar   
    26   12  137 1    
    27   13   14 ar   
    28   13   15 1    
    29   14  138 1    
    30   15   16 1    
    31   15  139 1    
    32   15  140 1    
    33   16   17 1    
    34   17   18 1    
    35   17  141 1    
    36   17  142 1    
    37   18   19 1    
    38   18   67 1    
    39   18  143 1    
    40   19   20 am   BACKBONE|DICT|INTERRES
    41   19  144 1    
    42   20   21 2    
    43   20   22 1    
    44   22   23 1    
    45   22   24 1    
    46   22  145 1    
    47   23  146 1    
    48   23  147 1    
    49   23  148 1    
    50   24   25 am   BACKBONE|DICT|INTERRES
    51   24  149 1    
    52   25   26 2    
    53   25   27 1    
    54   27   28 1    
    55   27   29 1    
    56   27  150 1    
    57   28  151 1    
    58   28  152 1    
    59   28  153 1    
    60   29   30 am   BACKBONE|DICT|INTERRES
    61   29  154 1    
    62   30   31 2    
    63   30   32 1    
    64   32   33 1    
    65   32   34 1    
    66   32  155 1    
    67   33  156 1    
    68   33  157 1    
    69   33  158 1    
    70   34   35 am   BACKBONE|DICT|INTERRES
    71   34  159 1    
    72   35   36 2    
    73   35   37 1    
    74   37   38 1    
    75   37   39 1    
    76   37  160 1    
    77   38  161 1    
    78   38  162 1    
    79   38  163 1    
    80   39   40 am   BACKBONE|DICT|INTERRES
    81   39  164 1    
    82   40   41 2    
    83   40   42 1    
    84   42   43 1    
    85   42   44 1    
    86   42  165 1    
    87   43  166 1    
    88   43  167 1    
    89   43  168 1    
    90   44   45 am   BACKBONE|DICT|INTERRES
    91   44  169 1    
    92   45   46 2    
    93   45   47 1    
    94   47   48 1    
    95   47   49 1    
    96   47  170 1    
    97   48  171 1    
    98   48  172 1    
    99   48  173 1    
   100   49   50 am   BACKBONE|DICT|INTERRES
   101   49  174 1    
   102   50   51 2    
   103   50   52 1    
   104   52   53 1    
   105   52   54 1    
   106   52  175 1    
   107   53  176 1    
   108   53  177 1    
   109   53  178 1    
   110   54   55 am   BACKBONE|DICT|INTERRES
   111   54  179 1    
   112   55   56 2    
   113   55   57 1    
   114   57   58 1    
   115   57   59 1    
   116   57  180 1    
   117   58  181 1    
   118   58  182 1    
   119   58  183 1    
   120   59   60 am   BACKBONE|DICT|INTERRES
   121   59  184 1    
   122   60   61 2    
   123   60   62 1    
   124   62   63 1    
   125   62   64 1    
   126   62  185 1    
   127   63  186 1    
   128   63  187 1    
   129   63  188 1    
   130   64   65 am   BACKBONE|DICT|INTERRES
   131   64  189 1    
   132   65   66 2    
   133   67   68 2    
   134   67   69 am   BACKBONE|DICT|INTERRES
   135   69   70 1    
   136   69  190 1    
   137   70   71 1    
   138   70   72 1    
   139   70  191 1    
   140   71  192 1    
   141   71  193 1    
   142   71  194 1    
   143   72   73 2    
   144   72   74 am   BACKBONE|DICT|INTERRES
   145   74   75 1    
   146   74  195 1    
   147   75   76 1    
   148   75   77 1    
   149   75  196 1    
   150   76  197 1    
   151   76  198 1    
   152   76  199 1    
   153   77   78 2    
   154   77   79 am   BACKBONE|DICT|INTERRES
   155   79   80 1    
   156   79  200 1    
   157   80   81 1    
   158   80   82 1    
   159   80  201 1    
   160   81  202 1    
   161   81  203 1    
   162   81  204 1    
   163   82   83 2    
   164   82   84 am   BACKBONE|DICT|INTERRES
   165   84   85 1    
   166   84  205 1    
   167   85   86 1    
   168   85   87 1    
   169   85  206 1    
   170   86  207 1    
   171   86  208 1    
   172   86  209 1    
   173   87   88 2    
   174   87   89 am   BACKBONE|DICT|INTERRES
   175   89   90 1    
   176   89  210 1    
   177   90   91 1    
   178   90   92 1    
   179   90  211 1    
   180   91  212 1    
   181   91  213 1    
   182   91  214 1    
   183   92   93 2    
   184   92   94 am   BACKBONE|DICT|INTERRES
   185   94   95 1    
   186   94  215 1    
   187   95   96 1    
   188   95   97 1    
   189   95  216 1    
   190   96  217 1    
   191   96  218 1    
   192   96  219 1    
   193   97   98 2    
   194   97   99 am   BACKBONE|DICT|INTERRES
   195   99  100 1    
   196   99  220 1    
   197  100  101 1    
   198  100  102 1    
   199  100  221 1    
   200  101  222 1    
   201  101  223 1    
   202  101  224 1    
   203  102  103 2    
   204  102  104 am   BACKBONE|DICT|INTERRES
   205  104  105 1    
   206  104  225 1    
   207  105  106 1    
   208  105  107 1    
   209  105  226 1    
   210  106  227 1    
   211  106  228 1    
   212  106  229 1    
   213  107  108 2    
   214  107  109 am   BACKBONE|DICT|INTERRES
   215  109  110 1    
   216  109  230 1    
   217  110  111 1    
   218  110  112 1    
   219  110  231 1    
   220  111  232 1    
   221  111  233 1    
   222  111  234 1    
   223  112  113 2    
   224  112  114 am   BACKBONE|DICT|INTERRES
   225  114  115 1    
   226  114  235 1    
   227  115  116 1    
   228  115  117 1    
   229  115  236 1    
   230  116  237 1    
   231  116  238 1    
   232  116  239 1    
   233  117  118 2    
   234  117  119 am   BACKBONE|DICT|INTERRES
   235  119  120 1    
   236  119  240 1    
   237  120  121 1    
   238  120  124 1    
   239  120  241 1    
   240  121  122 am   BACKBONE|DICT|INTERRES
   241  121  123 2    
   242  122  242 1    
   243  122  243 1    
   244  124  125 1    
   245  124  244 1    
   246  124  245 1    
   247  125  126 1    
   248  126  246 1    
   249  126  247 1    
@<TRIPOS>SUBSTRUCTURE
     1 UNK         1 GROUP             0       ****    0 ROOT    
