@<TRIPOS>MOLECULE
3R540
247   249    1
SMALL
USER_CHARGES


@<TRIPOS>ATOM
      1 CA          0.7671  -18.1203  -46.5710 C.3       0 UNK        -0.1800 
      2 C          -0.5765  -18.1100  -47.2806 C.2       0 UNK         0.5000 
      3 O          -1.5967  -17.8155  -46.6548 O.2       0 UNK        -0.5000 
      4 N          -0.5851  -18.4152  -48.5828 N.am      1 UNK        -0.5000 
      5 CA         -1.7842  -18.5139  -49.4221 C.3       1 UNK         0.1400 
      6 C6         -1.5826  -19.4592  -50.6340 C.3       23 UNK        -0.0398 
      7 S7         -0.9998  -21.1155  -50.1344 S.3       23 UNK        -0.2404 
      8 C8          0.5635  -21.2643  -51.0555 C.3       23 UNK        -0.0205 
      9 C9          1.5958  -20.2167  -50.6574 C.ar      23 UNK        -0.0193 
     10 C10         1.9032  -19.1608  -51.5202 C.ar      23 UNK        -0.1150 
     11 C11         2.8895  -18.2312  -51.1794 C.ar      23 UNK        -0.0193 
     12 C12         3.5799  -18.3751  -49.9741 C.ar      23 UNK        -0.1150 
     13 C13         3.2903  -19.4249  -49.0974 C.ar      23 UNK        -0.0193 
     14 C14         2.2785  -20.3320  -49.4440 C.ar      23 UNK        -0.1150 
     15 C15         4.1298  -19.5405  -47.8217 C.3       23 UNK        -0.0205 
     16 S16         3.4639  -20.6024  -46.4967 S.3       23 UNK        -0.2404 
     17 C17         3.8872  -22.2771  -47.0994 C.3       23 UNK        -0.0398 
     18 CA          3.0127  -23.4035  -46.4934 C.3       11 UNK         0.1400 
     19 N           3.2180  -23.5314  -45.0469 N.am      11 UNK        -0.5000 
     20 C           3.9765  -24.4707  -44.4653 C.2       10 UNK         0.5000 
     21 O           4.5735  -25.3487  -45.0900 O.2       10 UNK        -0.5000 
     22 CA          4.1071  -24.4362  -42.9274 C.3       10 UNK         0.1400 
     23 CB          5.4202  -23.7500  -42.5202 C.3       10 UNK        -0.1800 
     24 N           2.9982  -23.7663  -42.2478 N.am      10 UNK        -0.5000 
     25 C           1.7270  -24.1871  -42.2418 C.2       9 UNK         0.5000 
     26 O           1.3539  -25.2402  -42.7592 O.2       9 UNK        -0.5000 
     27 CA          0.6857  -23.2668  -41.5732 C.3       9 UNK         0.1400 
     28 CB          0.3652  -23.7693  -40.1573 C.3       9 UNK        -0.1800 
     29 N           1.0255  -21.8380  -41.5000 N.am      9 UNK        -0.5000 
     30 C           1.3970  -21.0480  -42.5167 C.2       8 UNK         0.5000 
     31 O           1.6651  -21.4644  -43.6446 O.2       8 UNK        -0.5000 
     32 CA          1.4120  -19.5332  -42.2439 C.3       8 UNK         0.1400 
     33 CB          2.6107  -18.8486  -42.9211 C.3       8 UNK        -0.1800 
     34 N           0.1775  -18.9271  -42.7404 N.am      8 UNK        -0.5000 
     35 C          -1.0411  -19.1034  -42.2093 C.2       7 UNK         0.5000 
     36 O          -1.2386  -19.7114  -41.1559 O.2       7 UNK        -0.5000 
     37 CA         -2.2361  -18.5322  -43.0046 C.3       7 UNK         0.1400 
     38 CB         -3.4719  -18.2518  -42.1237 C.3       7 UNK        -0.1800 
     39 N          -1.8952  -17.3682  -43.8297 N.am      7 UNK        -0.5000 
     40 C          -1.5081  -16.1603  -43.3990 C.2       6 UNK         0.5000 
     41 O          -1.3869  -15.8480  -42.2119 O.2       6 UNK        -0.5000 
     42 CA         -1.2568  -15.1138  -44.5008 C.3       6 UNK         0.1400 
     43 CB         -2.5739  -14.4082  -44.8616 C.3       6 UNK        -0.1800 
     44 N          -0.2531  -14.1155  -44.1295 N.am      6 UNK        -0.5000 
     45 C           1.0298  -14.3821  -43.8490 C.2       5 UNK         0.5000 
     46 O           1.5253  -15.5078  -43.9195 O.2       5 UNK        -0.5000 
     47 CA          1.9110  -13.1649  -43.5236 C.3       5 UNK         0.1400 
     48 CB          3.3116  -13.5556  -43.0175 C.3       5 UNK        -0.1800 
     49 N           2.0463  -12.3908  -44.7518 N.am      5 UNK        -0.5000 
     50 C           1.6156  -11.1389  -44.9473 C.2       4 UNK         0.5000 
     51 O           1.1814  -10.4111  -44.0540 O.2       4 UNK        -0.5000 
     52 CA          1.6326  -10.6353  -46.4071 C.3       4 UNK         0.1400 
     53 CB          2.9490   -9.9042  -46.7114 C.3       4 UNK        -0.1800 
     54 N           1.4415  -11.7148  -47.3850 N.am      4 UNK        -0.5000 
     55 C           0.3270  -12.4537  -47.4852 C.2       3 UNK         0.5000 
     56 O          -0.6908  -12.2290  -46.8275 O.2       3 UNK        -0.5000 
     57 CA          0.3971  -13.6688  -48.4324 C.3       3 UNK         0.1400 
     58 CB          1.4828  -14.6611  -47.9743 C.3       3 UNK        -0.1800 
     59 N          -0.8679  -14.3995  -48.4986 N.am      3 UNK        -0.5000 
     60 C          -1.9714  -14.0112  -49.1512 C.2       2 UNK         0.5000 
     61 O          -2.0383  -12.9902  -49.8370 O.2       2 UNK        -0.5000 
     62 CA         -3.1974  -14.9399  -48.9988 C.3       2 UNK         0.1400 
     63 CB         -4.2699  -14.7218  -50.0886 C.3       2 UNK        -0.1800 
     64 N          -2.8130  -16.3548  -48.8903 N.am      2 UNK        -0.5000 
     65 C          -2.2647  -17.1145  -49.8489 C.2       1 UNK         0.5000 
     66 O          -2.0954  -16.7431  -51.0090 O.2       1 UNK        -0.5000 
     67 C           1.5166  -23.2698  -46.8525 C.2       11 UNK         0.5000 
     68 O           1.1129  -23.7189  -47.9261 O.2       11 UNK        -0.5000 
     69 N           0.7060  -22.6999  -45.9465 N.am      12 UNK        -0.5000 
     70 CA         -0.7344  -22.4745  -46.1069 C.3       12 UNK         0.1400 
     71 CB         -1.2245  -21.5567  -44.9781 C.3       12 UNK        -0.1800 
     72 C          -1.5866  -23.7575  -46.1557 C.2       12 UNK         0.5000 
     73 O          -2.7605  -23.6908  -46.5268 O.2       12 UNK        -0.5000 
     74 N          -0.9772  -24.9029  -45.8152 N.am      13 UNK        -0.5000 
     75 CA         -1.5366  -26.2524  -45.9219 C.3       13 UNK         0.1400 
     76 CB         -0.5020  -27.2570  -45.3933 C.3       13 UNK        -0.1800 
     77 C          -1.9850  -26.6381  -47.3481 C.2       13 UNK         0.5000 
     78 O          -2.8296  -27.5211  -47.4954 O.2       13 UNK        -0.5000 
     79 N          -1.4726  -25.9339  -48.3677 N.am      14 UNK        -0.5000 
     80 CA         -1.8844  -25.9980  -49.7726 C.3       14 UNK         0.1400 
     81 CB         -0.7487  -25.4093  -50.6296 C.3       14 UNK        -0.1800 
     82 C          -3.2470  -25.3131  -50.0584 C.2       14 UNK         0.5000 
     83 O          -3.4251  -24.7450  -51.1363 O.2       14 UNK        -0.5000 
     84 N          -4.1830  -25.3865  -49.0990 N.am      15 UNK        -0.5000 
     85 CA         -5.5479  -24.8496  -49.1158 C.3       15 UNK         0.1400 
     86 CB         -6.4179  -25.6237  -50.1281 C.3       15 UNK        -0.1800 
     87 C          -5.5897  -23.3237  -49.3327 C.2       15 UNK         0.5000 
     88 O          -6.3016  -22.8503  -50.2195 O.2       15 UNK        -0.5000 
     89 N          -4.8169  -22.5905  -48.5168 N.am      16 UNK        -0.5000 
     90 CA         -4.5358  -21.1521  -48.6063 C.3       16 UNK         0.1400 
     91 CB         -3.9356  -20.6692  -47.2765 C.3       16 UNK        -0.1800 
     92 C          -5.6963  -20.2305  -49.0144 C.2       16 UNK         0.5000 
     93 O          -5.5380  -19.4420  -49.9478 O.2       16 UNK        -0.5000 
     94 N          -6.8270  -20.3507  -48.3081 N.am      17 UNK        -0.5000 
     95 CA         -8.0159  -19.5189  -48.5019 C.3       17 UNK         0.1400 
     96 CB         -8.9576  -19.7085  -47.3030 C.3       17 UNK        -0.1800 
     97 C          -8.7608  -19.7969  -49.8210 C.2       17 UNK         0.5000 
     98 O          -9.4077  -18.8910  -50.3480 O.2       17 UNK        -0.5000 
     99 N          -8.6637  -21.0331  -50.3265 N.am      18 UNK        -0.5000 
    100 CA        -9.2425  -21.4447  -51.6037 C.3       18 UNK         0.1400 
    101 CB        -9.5846  -22.9421  -51.5491 C.3       18 UNK        -0.1800 
    102 C         -8.2826  -21.1482  -52.7669 C.2       18 UNK         0.5000 
    103 O         -8.7314  -20.7227  -53.8318 O.2       18 UNK        -0.5000 
    104 N         -6.9837  -21.3854  -52.5404 N.am      19 UNK        -0.5000 
    105 CA        -5.9113  -21.1925  -53.5096 C.3       19 UNK         0.1400 
    106 CB        -4.6280  -21.8633  -52.9896 C.3       19 UNK        -0.1800 
    107 C         -5.6644  -19.7103  -53.8316 C.2       19 UNK         0.5000 
    108 O         -5.7025  -19.3340  -55.0034 O.2       19 UNK        -0.5000 
    109 N         -5.3842  -18.9114  -52.7876 N.am      20 UNK        -0.5000 
    110 CA        -5.0124  -17.4885  -52.8318 C.3       20 UNK         0.1400 
    111 CB        -6.2399  -16.6269  -53.1865 C.3       20 UNK        -0.1800 
    112 C         -3.7891  -17.1851  -53.7327 C.2       20 UNK         0.5000 
    113 O         -3.6667  -16.0803  -54.2657 O.2       20 UNK        -0.5000 
    114 N         -2.9081  -18.1844  -53.8916 N.am      21 UNK        -0.5000 
    115 CA        -1.7991  -18.2226  -54.8479 C.3       21 UNK         0.1400 
    116 CB        -1.1643  -19.6212  -54.7977 C.3       21 UNK        -0.1800 
    117 C         -0.7224  -17.1392  -54.6521 C.2       21 UNK         0.5000 
    118 O         -0.0094  -16.8232  -55.6054 O.2       21 UNK        -0.5000 
    119 N         -0.6218  -16.5968  -53.4353 N.am      22 UNK        -0.5000 
    120 CA         0.2758  -15.4955  -53.0714 C.3       22 UNK         0.1400 
    121 C         -0.3591  -14.0850  -53.2602 C.2       22 UNK         0.5000 
    122 N         -1.6168  -13.9629  -53.6721 N.am      22 UNK        -0.7600 
    123 O          0.3095  -13.0773  -53.0487 O.2       22 UNK        -0.5000 
    124 C124        0.8350  -15.7078  -51.6380 C.3       23 UNK        -0.0398 
    125 S125        2.6382  -15.4751  -51.5287 S.3       23 UNK        -0.2404 
    126 C126        3.2376  -17.0902  -52.1256 C.3       23 UNK        -0.0205 
    127 H127        0.8260  -17.3100  -45.8462 H         1 UNK         0.0600 
    128 H128        1.5894  -17.9980  -47.2748 H         1 UNK         0.0600 
    129 H129        0.9022  -19.0626  -46.0412 H         1 UNK         0.0600 
    130 H130        0.2834  -18.6573  -49.0400 H         1 UNK         0.3000 
    131 H131       -2.5846  -18.9390  -48.8220 H         1 UNK         0.0600 
    132 H132       -0.8879  -19.0274  -51.3542 H         1 UNK         0.0800 
    133 H133       -2.5256  -19.5882  -51.1670 H         1 UNK         0.0800 
    134 H134        0.3566  -21.2188  -52.1252 H         1 UNK         0.0800 
    135 H135        0.9775  -22.2570  -50.8717 H         1 UNK         0.0800 
    136 H136        1.3833  -19.0671  -52.4634 H         1 UNK         0.1150 
    137 H137        4.3561  -17.6655  -49.7227 H         1 UNK         0.1150 
    138 H138        2.0173  -21.1490  -48.7911 H         1 UNK         0.1150 
    139 H139        5.1289  -19.8887  -48.0868 H         1 UNK         0.0800 
    140 H140        4.2571  -18.5432  -47.3980 H         1 UNK         0.0800 
    141 H141        4.9343  -22.4628  -46.8571 H         1 UNK         0.0800 
    142 H142        3.8373  -22.3095  -48.1879 H         1 UNK         0.0800 
    143 H143        3.3251  -24.3323  -46.9753 H         1 UNK         0.0600 
    144 H144        2.7796  -22.8244  -44.4646 H         1 UNK         0.3000 
    145 H145        4.1375  -25.4706  -42.5788 H         1 UNK         0.0600 
    146 H146        6.2780  -24.2408  -42.9820 H         1 UNK         0.0600 
    147 H147        5.5684  -23.7884  -41.4409 H         1 UNK         0.0600 
    148 H148        5.4372  -22.7030  -42.8261 H         1 UNK         0.0600 
    149 H149        3.2046  -22.8815  -41.8087 H         1 UNK         0.3000 
    150 H150       -0.2251  -23.3446  -42.1693 H         1 UNK         0.0600 
    151 H151        1.2253  -23.6722  -39.4937 H         1 UNK         0.0600 
    152 H152        0.0761  -24.8212  -40.1691 H         1 UNK         0.0600 
    153 H153       -0.4632  -23.2127  -39.7186 H         1 UNK         0.0600 
    154 H154        0.7937  -21.3871  -40.6261 H         1 UNK         0.3000 
    155 H155        1.4847  -19.3637  -41.1677 H         1 UNK         0.0600 
    156 H156        2.6536  -17.7895  -42.6663 H         1 UNK         0.0600 
    157 H157        2.5628  -18.9264  -44.0079 H         1 UNK         0.0600 
    158 H158        3.5509  -19.2994  -42.6015 H         1 UNK         0.0600 
    159 H159        0.2534  -18.4002  -43.5973 H         1 UNK         0.3000 
    160 H160       -2.5231  -19.3128  -43.7087 H         1 UNK         0.0600 
    161 H161       -3.2528  -17.5375  -41.3299 H         1 UNK         0.0600 
    162 H162       -3.8280  -19.1663  -41.6481 H         1 UNK         0.0600 
    163 H163       -4.2963  -17.8544  -42.7158 H         1 UNK         0.0600 
    164 H164       -1.9452  -17.5235  -44.8348 H         1 UNK         0.3000 
    165 H165       -0.8860  -15.6234  -45.3900 H         1 UNK         0.0600 
    166 H166       -2.4493  -13.7335  -45.7066 H         1 UNK         0.0600 
    167 H167       -3.3414  -15.1306  -45.1428 H         1 UNK         0.0600 
    168 H168       -2.9610  -13.8286  -44.0227 H         1 UNK         0.0600 
    169 H169       -0.5705  -13.1581  -44.0840 H         1 UNK         0.3000 
    170 H170        1.4093  -12.5884  -42.7437 H         1 UNK         0.0600 
    171 H171        3.8657  -14.1315  -43.7599 H         1 UNK         0.0600 
    172 H172        3.2439  -14.1614  -42.1130 H         1 UNK         0.0600 
    173 H173        3.9005  -12.6712  -42.7742 H         1 UNK         0.0600 
    174 H174        2.3638  -12.9087  -45.5579 H         1 UNK         0.3000 
    175 H175        0.8109   -9.9252  -46.5218 H         1 UNK         0.0600 
    176 H176        3.1073   -9.0800  -46.0145 H         1 UNK         0.0600 
    177 H177        3.8086  -10.5709  -46.6318 H         1 UNK         0.0600 
    178 H178        2.9426   -9.4813  -47.7162 H         1 UNK         0.0600 
    179 H179        2.2361  -11.9394  -47.9665 H         1 UNK         0.3000 
    180 H180        0.6460  -13.2996  -49.4291 H         1 UNK         0.0600 
    181 H181        1.3214  -14.9891  -46.9467 H         1 UNK         0.0600 
    182 H182        2.4776  -14.2181  -48.0265 H         1 UNK         0.0600 
    183 H183        1.5006  -15.5500  -48.6054 H         1 UNK         0.0600 
    184 H184       -0.9245  -15.2407  -47.9475 H         1 UNK         0.3000 
    185 H185       -3.6519  -14.6791  -48.0419 H         1 UNK         0.0600 
    186 H186       -5.0990  -15.4200  -49.9738 H         1 UNK         0.0600 
    187 H187       -4.6835  -13.7147  -50.0280 H         1 UNK         0.0600 
    188 H188       -3.8637  -14.8414  -51.0934 H         1 UNK         0.0600 
    189 H189       -2.8571  -16.7539  -47.9589 H         1 UNK         0.3000 
    190 H190        1.1157  -22.3026  -45.1036 H         1 UNK         0.3000 
    191 H191       -0.8744  -21.9613  -47.0596 H         1 UNK         0.0600 
    192 H192       -0.7288  -20.5879  -45.0210 H         1 UNK         0.0600 
    193 H193       -2.2971  -21.3777  -45.0408 H         1 UNK         0.0600 
    194 H194       -1.0359  -21.9934  -43.9982 H         1 UNK         0.0600 
    195 H195       -0.0172  -24.8428  -45.5087 H         1 UNK         0.3000 
    196 H196       -2.4193  -26.2942  -45.2811 H         1 UNK         0.0600 
    197 H197       -0.8898  -28.2759  -45.4308 H         1 UNK         0.0600 
    198 H198       -0.2431  -27.0477  -44.3551 H         1 UNK         0.0600 
    199 H199        0.4174  -27.2327  -45.9798 H         1 UNK         0.0600 
    200 H200       -0.7941  -25.2169  -48.1456 H         1 UNK         0.3000 
    201 H201       -1.9986  -27.0487  -50.0458 H         1 UNK         0.0600 
    202 H202       -0.9593  -25.5141  -51.6946 H         1 UNK         0.0600 
    203 H203        0.1963  -25.9176  -50.4373 H         1 UNK         0.0600 
    204 H204       -0.6045  -24.3476  -50.4240 H         1 UNK         0.0600 
    205 H205       -3.9303  -25.9027  -48.2657 H         1 UNK         0.3000 
    206 H206       -5.9615  -25.0288  -48.1225 H         1 UNK         0.0600 
    207 H207       -6.3852  -26.6963  -49.9373 H         1 UNK         0.0600 
    208 H208       -7.4616  -25.3150  -50.0614 H         1 UNK         0.0600 
    209 H209       -6.0921  -25.4555  -51.1552 H         1 UNK         0.0600 
    210 H210       -4.2561  -23.0914  -47.8343 H         1 UNK         0.3000 
    211 H211       -3.7806  -21.0423  -49.3831 H         1 UNK         0.0600 
    212 H212       -4.4320  -21.1213  -46.4173 H         1 UNK         0.0600 
    213 H213       -4.0066  -19.5873  -47.1538 H         1 UNK         0.0600 
    214 H214       -2.8796  -20.9198  -47.2328 H         1 UNK         0.0600 
    215 H215       -6.8659  -21.0385  -47.5702 H         1 UNK         0.3000 
    216 H216       -7.6970  -18.4744  -48.5217 H         1 UNK         0.0600 
    217 H217       -9.8446  -19.0809  -47.3995 H         1 UNK         0.0600 
    218 H218       -8.4676  -19.4341  -46.3686 H         1 UNK         0.0600 
    219 H219       -9.2948  -20.7422  -47.2158 H         1 UNK         0.0600 
    220 H220       -8.0488  -21.6985  -49.8740 H         1 UNK         0.3000 
    221 H221      -10.1700  -20.8954  -51.7800 H         1 UNK         0.0600 
    222 H222       -8.6969  -23.5555  -51.3922 H         1 UNK         0.0600 
    223 H223      -10.2868  -23.1566  -50.7435 H         1 UNK         0.0600 
    224 H224      -10.0478  -23.2692  -52.4807 H         1 UNK         0.0600 
    225 H225       -6.7161  -21.7895  -51.6455 H         1 UNK         0.3000 
    226 H226       -6.2002  -21.6926  -54.4364 H         1 UNK         0.0600 
    227 H227       -3.8013  -21.7291  -53.6882 H         1 UNK         0.0600 
    228 H228       -4.3162  -21.4591  -52.0257 H         1 UNK         0.0600 
    229 H229       -4.7729  -22.9364  -52.8621 H         1 UNK         0.0600 
    230 H230       -5.4320  -19.3061  -51.8510 H         1 UNK         0.3000 
    231 H231       -4.7117  -17.2271  -51.8171 H         1 UNK         0.0600 
    232 H232       -6.5703  -16.7986  -54.2114 H         1 UNK         0.0600 
    233 H233       -6.0156  -15.5642  -53.0863 H         1 UNK         0.0600 
    234 H234       -7.0769  -16.8443  -52.5228 H         1 UNK         0.0600 
    235 H235       -3.1041  -19.0476  -53.4107 H         1 UNK         0.3000 
    236 H236       -2.2237  -18.0753  -55.8429 H         1 UNK         0.0600 
    237 H237       -0.7624  -19.8434  -53.8093 H         1 UNK         0.0600 
    238 H238       -1.8907  -20.3947  -55.0475 H         1 UNK         0.0600 
    239 H239       -0.3442  -19.7064  -55.5121 H         1 UNK         0.0600 
    240 H240       -1.2900  -16.8590  -52.7156 H         1 UNK         0.3000 
    241 H241        1.1150  -15.5159  -53.7685 H         1 UNK         0.0600 
    242 H242       -2.0073  -13.0421  -53.7901 H         1 UNK         0.3800 
    243 H243       -2.1934  -14.7768  -53.8582 H         1 UNK         0.3800 
    244 H244        0.6047  -16.7051  -51.2655 H         1 UNK         0.0800 
    245 H245        0.3528  -15.0399  -50.9275 H         1 UNK         0.0800 
    246 H246        2.8357  -17.2790  -53.1224 H         1 UNK         0.0800 
    247 H247        4.3212  -17.0407  -52.2411 H         1 UNK         0.0800 
@<TRIPOS>BOND
     1    1    2 1    
     2    1  127 1    
     3    1  128 1    
     4    1  129 1    
     5    2    3 2    
     6    2    4 am   BACKBONE|DICT|INTERRES
     7    4    5 1    
     8    4  130 1    
     9    5    6 1    
    10    5   65 1    
    11    5  131 1    
    12    6    7 1    
    13    6  132 1    
    14    6  133 1    
    15    7    8 1    
    16    8    9 1    
    17    8  134 1    
    18    8  135 1    
    19    9   10 ar   
    20    9   14 ar   
    21   10   11 ar   
    22   10  136 1    
    23   11   12 ar   
    24   11  126 1    
    25   12   13 ar   
    26   12  137 1    
    27   13   14 ar   
    28   13   15 1    
    29   14  138 1    
    30   15   16 1    
    31   15  139 1    
    32   15  140 1    
    33   16   17 1    
    34   17   18 1    
    35   17  141 1    
    36   17  142 1    
    37   18   19 1    
    38   18   67 1    
    39   18  143 1    
    40   19   20 am   BACKBONE|DICT|INTERRES
    41   19  144 1    
    42   20   21 2    
    43   20   22 1    
    44   22   23 1    
    45   22   24 1    
    46   22  145 1    
    47   23  146 1    
    48   23  147 1    
    49   23  148 1    
    50   24   25 am   BACKBONE|DICT|INTERRES
    51   24  149 1    
    52   25   26 2    
    53   25   27 1    
    54   27   28 1    
    55   27   29 1    
    56   27  150 1    
    57   28  151 1    
    58   28  152 1    
    59   28  153 1    
    60   29   30 am   BACKBONE|DICT|INTERRES
    61   29  154 1    
    62   30   31 2    
    63   30   32 1    
    64   32   33 1    
    65   32   34 1    
    66   32  155 1    
    67   33  156 1    
    68   33  157 1    
    69   33  158 1    
    70   34   35 am   BACKBONE|DICT|INTERRES
    71   34  159 1    
    72   35   36 2    
    73   35   37 1    
    74   37   38 1    
    75   37   39 1    
    76   37  160 1    
    77   38  161 1    
    78   38  162 1    
    79   38  163 1    
    80   39   40 am   BACKBONE|DICT|INTERRES
    81   39  164 1    
    82   40   41 2    
    83   40   42 1    
    84   42   43 1    
    85   42   44 1    
    86   42  165 1    
    87   43  166 1    
    88   43  167 1    
    89   43  168 1    
    90   44   45 am   BACKBONE|DICT|INTERRES
    91   44  169 1    
    92   45   46 2    
    93   45   47 1    
    94   47   48 1    
    95   47   49 1    
    96   47  170 1    
    97   48  171 1    
    98   48  172 1    
    99   48  173 1    
   100   49   50 am   BACKBONE|DICT|INTERRES
   101   49  174 1    
   102   50   51 2    
   103   50   52 1    
   104   52   53 1    
   105   52   54 1    
   106   52  175 1    
   107   53  176 1    
   108   53  177 1    
   109   53  178 1    
   110   54   55 am   BACKBONE|DICT|INTERRES
   111   54  179 1    
   112   55   56 2    
   113   55   57 1    
   114   57   58 1    
   115   57   59 1    
   116   57  180 1    
   117   58  181 1    
   118   58  182 1    
   119   58  183 1    
   120   59   60 am   BACKBONE|DICT|INTERRES
   121   59  184 1    
   122   60   61 2    
   123   60   62 1    
   124   62   63 1    
   125   62   64 1    
   126   62  185 1    
   127   63  186 1    
   128   63  187 1    
   129   63  188 1    
   130   64   65 am   BACKBONE|DICT|INTERRES
   131   64  189 1    
   132   65   66 2    
   133   67   68 2    
   134   67   69 am   BACKBONE|DICT|INTERRES
   135   69   70 1    
   136   69  190 1    
   137   70   71 1    
   138   70   72 1    
   139   70  191 1    
   140   71  192 1    
   141   71  193 1    
   142   71  194 1    
   143   72   73 2    
   144   72   74 am   BACKBONE|DICT|INTERRES
   145   74   75 1    
   146   74  195 1    
   147   75   76 1    
   148   75   77 1    
   149   75  196 1    
   150   76  197 1    
   151   76  198 1    
   152   76  199 1    
   153   77   78 2    
   154   77   79 am   BACKBONE|DICT|INTERRES
   155   79   80 1    
   156   79  200 1    
   157   80   81 1    
   158   80   82 1    
   159   80  201 1    
   160   81  202 1    
   161   81  203 1    
   162   81  204 1    
   163   82   83 2    
   164   82   84 am   BACKBONE|DICT|INTERRES
   165   84   85 1    
   166   84  205 1    
   167   85   86 1    
   168   85   87 1    
   169   85  206 1    
   170   86  207 1    
   171   86  208 1    
   172   86  209 1    
   173   87   88 2    
   174   87   89 am   BACKBONE|DICT|INTERRES
   175   89   90 1    
   176   89  210 1    
   177   90   91 1    
   178   90   92 1    
   179   90  211 1    
   180   91  212 1    
   181   91  213 1    
   182   91  214 1    
   183   92   93 2    
   184   92   94 am   BACKBONE|DICT|INTERRES
   185   94   95 1    
   186   94  215 1    
   187   95   96 1    
   188   95   97 1    
   189   95  216 1    
   190   96  217 1    
   191   96  218 1    
   192   96  219 1    
   193   97   98 2    
   194   97   99 am   BACKBONE|DICT|INTERRES
   195   99  100 1    
   196   99  220 1    
   197  100  101 1    
   198  100  102 1    
   199  100  221 1    
   200  101  222 1    
   201  101  223 1    
   202  101  224 1    
   203  102  103 2    
   204  102  104 am   BACKBONE|DICT|INTERRES
   205  104  105 1    
   206  104  225 1    
   207  105  106 1    
   208  105  107 1    
   209  105  226 1    
   210  106  227 1    
   211  106  228 1    
   212  106  229 1    
   213  107  108 2    
   214  107  109 am   BACKBONE|DICT|INTERRES
   215  109  110 1    
   216  109  230 1    
   217  110  111 1    
   218  110  112 1    
   219  110  231 1    
   220  111  232 1    
   221  111  233 1    
   222  111  234 1    
   223  112  113 2    
   224  112  114 am   BACKBONE|DICT|INTERRES
   225  114  115 1    
   226  114  235 1    
   227  115  116 1    
   228  115  117 1    
   229  115  236 1    
   230  116  237 1    
   231  116  238 1    
   232  116  239 1    
   233  117  118 2    
   234  117  119 am   BACKBONE|DICT|INTERRES
   235  119  120 1    
   236  119  240 1    
   237  120  121 1    
   238  120  124 1    
   239  120  241 1    
   240  121  122 am   BACKBONE|DICT|INTERRES
   241  121  123 2    
   242  122  242 1    
   243  122  243 1    
   244  124  125 1    
   245  124  244 1    
   246  124  245 1    
   247  125  126 1    
   248  126  246 1    
   249  126  247 1    
@<TRIPOS>SUBSTRUCTURE
     1 UNK         1 GROUP             0       ****    0 ROOT    
