@<TRIPOS>MOLECULE
3R540
247   249    1
SMALL
USER_CHARGES


@<TRIPOS>ATOM
      1 CA         -2.0803  -15.6369  -48.2235 C.3       0 UNK        -0.1800 
      2 C          -1.1692  -14.4195  -48.1525 C.2       0 UNK         0.5000 
      3 O          -1.3330  -13.5888  -47.2592 O.2       0 UNK        -0.5000 
      4 N          -0.2025  -14.3117  -49.0762 N.am      1 UNK        -0.5000 
      5 CA          0.7017  -13.1581  -49.2341 C.3       1 UNK         0.1400 
      6 C6          1.5575  -13.2488  -50.5201 C.3       23 UNK        -0.0398 
      7 S7          0.5435  -13.3527  -52.0335 S.3       23 UNK        -0.2404 
      8 C8          1.1162  -14.9201  -52.7597 C.3       23 UNK        -0.0205 
      9 C9          0.6399  -16.1298  -51.9706 C.ar      23 UNK        -0.0193 
     10 C10        -0.6885  -16.5516  -52.0777 C.ar      23 UNK        -0.1150 
     11 C11        -1.1284  -17.6878  -51.3951 C.ar      23 UNK        -0.0193 
     12 C12        -0.2289  -18.3994  -50.5990 C.ar      23 UNK        -0.1150 
     13 C13         1.0981  -17.9811  -50.4682 C.ar      23 UNK        -0.0193 
     14 C14         1.5274  -16.8435  -51.1578 C.ar      23 UNK        -0.1150 
     15 C15         2.0716  -18.7825  -49.6126 C.3       23 UNK        -0.0205 
     16 S16         2.2241  -18.1558  -47.9034 S.3       23 UNK        -0.2404 
     17 C17         0.5106  -18.2271  -47.2872 C.3       23 UNK        -0.0398 
     18 CA         -0.0404  -19.6612  -47.1068 C.3       11 UNK         0.1400 
     19 N           0.6755  -20.4290  -46.0883 N.am      11 UNK        -0.5000 
     20 C           0.5135  -21.7398  -45.8604 C.2       10 UNK         0.5000 
     21 O          -0.2336  -22.4517  -46.5339 O.2       10 UNK        -0.5000 
     22 CA          1.2408  -22.3359  -44.6382 C.3       10 UNK         0.1400 
     23 CB          1.7982  -23.7477  -44.9098 C.3       10 UNK        -0.1800 
     24 N           2.2565  -21.4444  -44.0652 N.am      10 UNK        -0.5000 
     25 C           3.4407  -21.0882  -44.5864 C.2       9 UNK         0.5000 
     26 O           3.8830  -21.5171  -45.6518 O.2       9 UNK        -0.5000 
     27 CA          4.2588  -20.0450  -43.7982 C.3       9 UNK         0.1400 
     28 CB          4.2252  -18.6876  -44.5201 C.3       9 UNK        -0.1800 
     29 N           3.7890  -19.8517  -42.4244 N.am      9 UNK        -0.5000 
     30 C           3.9652  -20.7168  -41.4161 C.2       8 UNK         0.5000 
     31 O           4.5702  -21.7834  -41.5252 O.2       8 UNK        -0.5000 
     32 CA          3.3332  -20.3321  -40.0685 C.3       8 UNK         0.1400 
     33 CB          4.2317  -19.3417  -39.3108 C.3       8 UNK        -0.1800 
     34 N           2.0065  -19.7406  -40.2491 N.am      8 UNK        -0.5000 
     35 C           0.8641  -20.4372  -40.3302 C.2       7 UNK         0.5000 
     36 O           0.8061  -21.6644  -40.2541 O.2       7 UNK        -0.5000 
     37 CA         -0.4342  -19.6310  -40.5385 C.3       7 UNK         0.1400 
     38 CB         -1.0552  -19.2499  -39.1865 C.3       7 UNK        -0.1800 
     39 N          -0.2237  -18.4168  -41.3270 N.am      7 UNK        -0.5000 
     40 C          -0.0023  -18.4118  -42.6465 C.2       6 UNK         0.5000 
     41 O          -0.0470  -19.4211  -43.3506 O.2       6 UNK        -0.5000 
     42 CA          0.3613  -17.0685  -43.3014 C.3       6 UNK         0.1400 
     43 CB         -0.8562  -16.4606  -44.0118 C.3       6 UNK        -0.1800 
     44 N           0.9632  -16.0762  -42.4017 N.am      6 UNK        -0.5000 
     45 C           2.1317  -16.2433  -41.7603 C.2       5 UNK         0.5000 
     46 O           2.7659  -17.2971  -41.8034 O.2       5 UNK        -0.5000 
     47 CA          2.7016  -15.0750  -40.9333 C.3       5 UNK         0.1400 
     48 CB          4.1193  -14.7097  -41.4031 C.3       5 UNK        -0.1800 
     49 N           1.8632  -13.8787  -40.9849 N.am      5 UNK        -0.5000 
     50 C           0.9105  -13.5762  -40.0922 C.2       4 UNK         0.5000 
     51 O           0.6523  -14.2717  -39.1093 O.2       4 UNK        -0.5000 
     52 CA          0.0908  -12.2932  -40.3437 C.3       4 UNK         0.1400 
     53 CB          0.6494  -11.1279  -39.5130 C.3       4 UNK        -0.1800 
     54 N           0.0347  -11.8890  -41.7511 N.am      4 UNK        -0.5000 
     55 C          -0.5145  -12.6124  -42.7355 C.2       3 UNK         0.5000 
     56 O          -1.0484  -13.7051  -42.5495 O.2       3 UNK        -0.5000 
     57 CA         -0.4264  -12.0535  -44.1694 C.3       3 UNK         0.1400 
     58 CB         -0.0463  -10.5577  -44.2395 C.3       3 UNK        -0.1800 
     59 N           0.4742  -12.8412  -45.0162 N.am      3 UNK        -0.5000 
     60 C           1.7720  -13.1137  -44.7981 C.2       2 UNK         0.5000 
     61 O           2.3691  -12.7959  -43.7683 O.2       2 UNK        -0.5000 
     62 CA          2.5504  -13.8511  -45.9126 C.3       2 UNK         0.1400 
     63 CB          2.9309  -15.2747  -45.4846 C.3       2 UNK        -0.1800 
     64 N           1.8337  -13.9297  -47.1866 N.am      2 UNK        -0.5000 
     65 C           1.6129  -12.8988  -48.0132 C.2       1 UNK         0.5000 
     66 O           2.0766  -11.7722  -47.8332 O.2       1 UNK        -0.5000 
     67 C          -1.5569  -19.6166  -46.8387 C.2       11 UNK         0.5000 
     68 O          -2.3253  -19.5773  -47.7962 O.2       11 UNK        -0.5000 
     69 N          -1.9646  -19.6596  -45.5610 N.am      12 UNK        -0.5000 
     70 CA         -3.3679  -19.7238  -45.1487 C.3       12 UNK         0.1400 
     71 CB         -3.4684  -19.4928  -43.6332 C.3       12 UNK        -0.1800 
     72 C          -4.0280  -21.0573  -45.5428 C.2       12 UNK         0.5000 
     73 O          -5.1651  -21.0611  -46.0146 O.2       12 UNK        -0.5000 
     74 N          -3.2831  -22.1606  -45.3846 N.am      13 UNK        -0.5000 
     75 CA         -3.6968  -23.4987  -45.8047 C.3       13 UNK         0.1400 
     76 CB         -2.7580  -24.5504  -45.1942 C.3       13 UNK        -0.1800 
     77 C          -3.7466  -23.6202  -47.3363 C.2       13 UNK         0.5000 
     78 O          -4.7110  -24.1675  -47.8701 O.2       13 UNK        -0.5000 
     79 N          -2.7355  -23.0612  -48.0168 N.am      14 UNK        -0.5000 
     80 CA         -2.6672  -22.9905  -49.4763 C.3       14 UNK         0.1400 
     81 CB         -1.2853  -22.4811  -49.9055 C.3       14 UNK        -0.1800 
     82 C          -3.7909  -22.1313  -50.0864 C.2       14 UNK         0.5000 
     83 O          -4.3297  -22.5077  -51.1239 O.2       14 UNK        -0.5000 
     84 N          -4.1542  -21.0243  -49.4212 N.am      15 UNK        -0.5000 
     85 CA         -5.2877  -20.1709  -49.7819 C.3       15 UNK         0.1400 
     86 CB         -5.2706  -18.8825  -48.9420 C.3       15 UNK        -0.1800 
     87 C          -6.6360  -20.8929  -49.6222 C.2       15 UNK         0.5000 
     88 O          -7.4769  -20.8031  -50.5164 O.2       15 UNK        -0.5000 
     89 N          -6.8071  -21.6182  -48.5068 N.am      16 UNK        -0.5000 
     90 CA         -7.9976  -22.4198  -48.2114 C.3       16 UNK         0.1400 
     91 CB         -7.9313  -22.9236  -46.7618 C.3       16 UNK        -0.1800 
     92 C          -8.1884  -23.5926  -49.1922 C.2       16 UNK         0.5000 
     93 O          -9.3154  -23.8616  -49.6094 O.2       16 UNK        -0.5000 
     94 N          -7.0804  -24.2447  -49.5674 N.am      17 UNK        -0.5000 
     95 CA         -7.0335  -25.3110  -50.5699 C.3       17 UNK         0.1400 
     96 CB         -5.7360  -26.1103  -50.3699 C.3       17 UNK        -0.1800 
     97 C          -7.1158  -24.7959  -52.0220 C.2       17 UNK         0.5000 
     98 O          -7.2895  -25.6039  -52.9355 O.2       17 UNK        -0.5000 
     99 N          -6.9338  -23.4824  -52.2182 N.am      18 UNK        -0.5000 
    100 CA        -6.7966  -22.7241  -53.4689 C.3       18 UNK         0.1400 
    101 CB        -8.0390  -22.8669  -54.3677 C.3       18 UNK        -0.1800 
    102 C         -5.5003  -23.0306  -54.2452 C.2       18 UNK         0.5000 
    103 O         -4.8450  -22.0990  -54.7135 O.2       18 UNK        -0.5000 
    104 N         -5.1576  -24.3227  -54.3631 N.am      19 UNK        -0.5000 
    105 CA        -3.9291  -24.8885  -54.9341 C.3       19 UNK         0.1400 
    106 CB        -2.7252  -24.5391  -54.0340 C.3       19 UNK        -0.1800 
    107 C         -3.6873  -24.5115  -56.4123 C.2       19 UNK         0.5000 
    108 O         -2.5369  -24.4751  -56.8530 O.2       19 UNK        -0.5000 
    109 N         -4.7725  -24.2060  -57.1412 N.am      20 UNK        -0.5000 
    110 CA        -4.8556  -23.6497  -58.5003 C.3       20 UNK         0.1400 
    111 CB        -4.2200  -24.5874  -59.5449 C.3       20 UNK        -0.1800 
    112 C         -4.3002  -22.2141  -58.6138 C.2       20 UNK         0.5000 
    113 O         -4.9889  -21.3340  -59.1314 O.2       20 UNK        -0.5000 
    114 N         -3.0851  -22.0011  -58.1055 N.am      21 UNK        -0.5000 
    115 CA        -2.4018  -20.7242  -57.9794 C.3       21 UNK         0.1400 
    116 CB        -1.6960  -20.3661  -59.3009 C.3       21 UNK        -0.1800 
    117 C         -1.4284  -20.8614  -56.8015 C.2       21 UNK         0.5000 
    118 O         -0.3074  -21.3390  -56.9860 O.2       21 UNK        -0.5000 
    119 N         -1.8985  -20.5006  -55.6023 N.am      22 UNK        -0.5000 
    120 CA        -1.1522  -20.5946  -54.3355 C.3       22 UNK         0.1400 
    121 C          0.1258  -19.7099  -54.2303 C.2       22 UNK         0.5000 
    122 N          0.2578  -18.6402  -55.0058 N.am      22 UNK        -0.7600 
    123 O          1.0222  -20.0208  -53.4517 O.2       22 UNK        -0.5000 
    124 C124       -2.0851  -20.4071  -53.1106 C.3       23 UNK        -0.0398 
    125 S125       -3.0084  -18.8284  -53.1141 S.3       23 UNK        -0.2404 
    126 C126       -2.5799  -18.1312  -51.4884 C.3       23 UNK        -0.0205 
    127 H127       -1.8092  -16.3000  -49.0432 H         1 UNK         0.0600 
    128 H128       -2.0302  -16.2022  -47.2930 H         1 UNK         0.0600 
    129 H129       -3.1128  -15.3220  -48.3734 H         1 UNK         0.0600 
    130 H130       -0.1220  -15.0193  -49.7939 H         1 UNK         0.3000 
    131 H131        0.0643  -12.2759  -49.3259 H         1 UNK         0.0600 
    132 H132        2.1887  -12.3636  -50.6202 H         1 UNK         0.0800 
    133 H133        2.2402  -14.0978  -50.4657 H         1 UNK         0.0800 
    134 H134        2.2043  -14.9107  -52.8410 H         1 UNK         0.0800 
    135 H135        0.7384  -14.9910  -53.7808 H         1 UNK         0.0800 
    136 H136       -1.3789  -16.0010  -52.7013 H         1 UNK         0.1150 
    137 H137       -0.5677  -19.2796  -50.0760 H         1 UNK         0.1150 
    138 H138        2.5573  -16.5263  -51.0733 H         1 UNK         0.1150 
    139 H139        1.7814  -19.8336  -49.5938 H         1 UNK         0.0800 
    140 H140        3.0591  -18.7614  -50.0757 H         1 UNK         0.0800 
    141 H141       -0.1108  -17.6533  -47.9725 H         1 UNK         0.0800 
    142 H142        0.4755  -17.6880  -46.3418 H         1 UNK         0.0800 
    143 H143        0.0877  -20.1977  -48.0461 H         1 UNK         0.0600 
    144 H144        1.2793  -19.9142  -45.4660 H         1 UNK         0.3000 
    145 H145        0.4765  -22.4348  -43.8661 H         1 UNK         0.0600 
    146 H146        2.3107  -24.1449  -44.0336 H         1 UNK         0.0600 
    147 H147        0.9947  -24.4423  -45.1574 H         1 UNK         0.0600 
    148 H148        2.4997  -23.7560  -45.7441 H         1 UNK         0.0600 
    149 H149        1.9881  -20.9972  -43.1996 H         1 UNK         0.3000 
    150 H150        5.2933  -20.3927  -43.7647 H         1 UNK         0.0600 
    151 H151        4.6191  -18.7710  -45.5339 H         1 UNK         0.0600 
    152 H152        4.8288  -17.9455  -43.9970 H         1 UNK         0.0600 
    153 H153        3.2105  -18.2978  -44.5960 H         1 UNK         0.0600 
    154 H154        3.3324  -18.9638  -42.2247 H         1 UNK         0.3000 
    155 H155        3.2476  -21.2380  -39.4643 H         1 UNK         0.0600 
    156 H156        4.3633  -18.4086  -39.8600 H         1 UNK         0.0600 
    157 H157        5.2226  -19.7653  -39.1425 H         1 UNK         0.0600 
    158 H158        3.8124  -19.0985  -38.3344 H         1 UNK         0.0600 
    159 H159        1.9797  -18.7406  -40.3969 H         1 UNK         0.3000 
    160 H160       -1.1421  -20.2719  -41.0688 H         1 UNK         0.0600 
    161 H161       -2.0089  -18.7393  -39.3214 H         1 UNK         0.0600 
    162 H162       -0.4003  -18.5932  -38.6124 H         1 UNK         0.0600 
    163 H163       -1.2451  -20.1366  -38.5803 H         1 UNK         0.0600 
    164 H164       -0.1853  -17.5411  -40.8261 H         1 UNK         0.3000 
    165 H165        1.1069  -17.3099  -44.0566 H         1 UNK         0.0600 
    166 H166       -0.5833  -15.5641  -44.5683 H         1 UNK         0.0600 
    167 H167       -1.2934  -17.1568  -44.7255 H         1 UNK         0.0600 
    168 H168       -1.6395  -16.1926  -43.3023 H         1 UNK         0.0600 
    169 H169        0.4661  -15.1983  -42.3030 H         1 UNK         0.3000 
    170 H170        2.7792  -15.4283  -39.9031 H         1 UNK         0.0600 
    171 H171        4.7874  -15.5703  -41.3496 H         1 UNK         0.0600 
    172 H172        4.1271  -14.3522  -42.4323 H         1 UNK         0.0600 
    173 H173        4.5500  -13.9285  -40.7768 H         1 UNK         0.0600 
    174 H174        1.9941  -13.2760  -41.7918 H         1 UNK         0.3000 
    175 H175       -0.9311  -12.4903  -40.0133 H         1 UNK         0.0600 
    176 H176        0.0289  -10.2373  -39.6142 H         1 UNK         0.0600 
    177 H177        0.6792  -11.3824  -38.4526 H         1 UNK         0.0600 
    178 H178        1.6642  -10.8681  -39.8170 H         1 UNK         0.0600 
    179 H179        0.4830  -11.0164  -41.9898 H         1 UNK         0.3000 
    180 H180       -1.4237  -12.1605  -44.5985 H         1 UNK         0.0600 
    181 H181        0.9650  -10.3687  -43.8777 H         1 UNK         0.0600 
    182 H182       -0.7331   -9.9477  -43.6513 H         1 UNK         0.0600 
    183 H183       -0.0975  -10.1954  -45.2665 H         1 UNK         0.0600 
    184 H184        0.0518  -13.1751  -45.8769 H         1 UNK         0.3000 
    185 H185        3.4738  -13.2905  -46.0716 H         1 UNK         0.0600 
    186 H186        2.0570  -15.9204  -45.4593 H         1 UNK         0.0600 
    187 H187        3.6451  -15.7153  -46.1805 H         1 UNK         0.0600 
    188 H188        3.3909  -15.2924  -44.4968 H         1 UNK         0.0600 
    189 H189        1.4226  -14.8205  -47.4221 H         1 UNK         0.3000 
    190 H190       -1.2675  -19.6946  -44.8226 H         1 UNK         0.3000 
    191 H191       -3.9098  -18.9212  -45.6537 H         1 UNK         0.0600 
    192 H192       -2.8984  -20.2346  -43.0725 H         1 UNK         0.0600 
    193 H193       -4.5045  -19.5507  -43.2971 H         1 UNK         0.0600 
    194 H194       -3.0951  -18.5066  -43.3588 H         1 UNK         0.0600 
    195 H195       -2.3429  -22.0645  -45.0325 H         1 UNK         0.3000 
    196 H196       -4.7033  -23.6806  -45.4217 H         1 UNK         0.0600 
    197 H197       -3.0751  -25.5577  -45.4670 H         1 UNK         0.0600 
    198 H198       -2.7578  -24.4940  -44.1056 H         1 UNK         0.0600 
    199 H199       -1.7303  -24.4283  -45.5364 H         1 UNK         0.0600 
    200 H200       -1.9510  -22.6770  -47.4991 H         1 UNK         0.3000 
    201 H201       -2.7836  -24.0065  -49.8593 H         1 UNK         0.0600 
    202 H202       -0.4873  -23.0740  -49.4581 H         1 UNK         0.0600 
    203 H203       -1.1357  -21.4436  -49.6138 H         1 UNK         0.0600 
    204 H204       -1.1678  -22.5440  -50.9875 H         1 UNK         0.0600 
    205 H205       -3.6053  -20.7290  -48.6192 H         1 UNK         0.3000 
    206 H206       -5.1785  -19.8950  -50.8330 H         1 UNK         0.0600 
    207 H207       -4.3536  -18.3142  -49.0894 H         1 UNK         0.0600 
    208 H208       -6.1005  -18.2295  -49.2149 H         1 UNK         0.0600 
    209 H209       -5.3582  -19.0939  -47.8764 H         1 UNK         0.0600 
    210 H210       -6.0811  -21.6051  -47.7982 H         1 UNK         0.3000 
    211 H211       -8.8685  -21.7675  -48.3030 H         1 UNK         0.0600 
    212 H212       -7.0645  -23.5636  -46.5957 H         1 UNK         0.0600 
    213 H213       -8.8205  -23.5021  -46.5081 H         1 UNK         0.0600 
    214 H214       -7.8720  -22.0927  -46.0585 H         1 UNK         0.0600 
    215 H215       -6.2002  -24.0078  -49.1173 H         1 UNK         0.3000 
    216 H216       -7.8794  -25.9824  -50.4092 H         1 UNK         0.0600 
    217 H217       -5.6771  -26.9475  -51.0664 H         1 UNK         0.0600 
    218 H218       -5.6771  -26.5217  -49.3620 H         1 UNK         0.0600 
    219 H219       -4.8546  -25.4872  -50.5288 H         1 UNK         0.0600 
    220 H220       -6.7403  -22.9345  -51.3903 H         1 UNK         0.3000 
    221 H221       -6.7327  -21.6784  -53.1640 H         1 UNK         0.0600 
    222 H222       -8.1610  -23.8827  -54.7440 H         1 UNK         0.0600 
    223 H223       -8.9468  -22.5973  -53.8279 H         1 UNK         0.0600 
    224 H224       -7.9672  -22.2073  -55.2333 H         1 UNK         0.0600 
    225 H225       -5.8066  -24.9941  -53.9609 H         1 UNK         0.3000 
    226 H226       -4.0549  -25.9717  -54.9147 H         1 UNK         0.0600 
    227 H227       -2.4955  -23.4743  -54.0689 H         1 UNK         0.0600 
    228 H228       -1.8297  -25.0780  -54.3453 H         1 UNK         0.0600 
    229 H229       -2.9187  -24.8042  -52.9943 H         1 UNK         0.0600 
    230 H230       -5.6562  -24.2539  -56.6543 H         1 UNK         0.3000 
    231 H231       -5.9214  -23.5902  -58.7264 H         1 UNK         0.0600 
    232 H232       -3.1418  -24.6803  -59.4143 H         1 UNK         0.0600 
    233 H233       -4.3915  -24.2127  -60.5547 H         1 UNK         0.0600 
    234 H234       -4.6518  -25.5867  -59.4913 H         1 UNK         0.0600 
    235 H235       -2.6160  -22.7947  -57.6728 H         1 UNK         0.3000 
    236 H236       -3.1261  -19.9413  -57.7440 H         1 UNK         0.0600 
    237 H237       -2.4165  -20.2206  -60.1058 H         1 UNK         0.0600 
    238 H238       -1.1290  -19.4400  -59.2001 H         1 UNK         0.0600 
    239 H239       -1.0014  -21.1469  -59.6128 H         1 UNK         0.0600 
    240 H240       -2.8462  -20.1594  -55.5224 H         1 UNK         0.3000 
    241 H241       -0.7851  -21.6215  -54.2852 H         1 UNK         0.0600 
    242 H242        1.0911  -18.0798  -54.9335 H         1 UNK         0.3800 
    243 H243       -0.4755  -18.3754  -55.6426 H         1 UNK         0.3800 
    244 H244       -2.8192  -21.2130  -53.0876 H         1 UNK         0.0800 
    245 H245       -1.5197  -20.5048  -52.1839 H         1 UNK         0.0800 
    246 H246       -2.7982  -18.8708  -50.7185 H         1 UNK         0.0800 
    247 H247       -3.2281  -17.2772  -51.2876 H         1 UNK         0.0800 
@<TRIPOS>BOND
     1    1    2 1    
     2    1  127 1    
     3    1  128 1    
     4    1  129 1    
     5    2    3 2    
     6    2    4 am   BACKBONE|DICT|INTERRES
     7    4    5 1    
     8    4  130 1    
     9    5    6 1    
    10    5   65 1    
    11    5  131 1    
    12    6    7 1    
    13    6  132 1    
    14    6  133 1    
    15    7    8 1    
    16    8    9 1    
    17    8  134 1    
    18    8  135 1    
    19    9   10 ar   
    20    9   14 ar   
    21   10   11 ar   
    22   10  136 1    
    23   11   12 ar   
    24   11  126 1    
    25   12   13 ar   
    26   12  137 1    
    27   13   14 ar   
    28   13   15 1    
    29   14  138 1    
    30   15   16 1    
    31   15  139 1    
    32   15  140 1    
    33   16   17 1    
    34   17   18 1    
    35   17  141 1    
    36   17  142 1    
    37   18   19 1    
    38   18   67 1    
    39   18  143 1    
    40   19   20 am   BACKBONE|DICT|INTERRES
    41   19  144 1    
    42   20   21 2    
    43   20   22 1    
    44   22   23 1    
    45   22   24 1    
    46   22  145 1    
    47   23  146 1    
    48   23  147 1    
    49   23  148 1    
    50   24   25 am   BACKBONE|DICT|INTERRES
    51   24  149 1    
    52   25   26 2    
    53   25   27 1    
    54   27   28 1    
    55   27   29 1    
    56   27  150 1    
    57   28  151 1    
    58   28  152 1    
    59   28  153 1    
    60   29   30 am   BACKBONE|DICT|INTERRES
    61   29  154 1    
    62   30   31 2    
    63   30   32 1    
    64   32   33 1    
    65   32   34 1    
    66   32  155 1    
    67   33  156 1    
    68   33  157 1    
    69   33  158 1    
    70   34   35 am   BACKBONE|DICT|INTERRES
    71   34  159 1    
    72   35   36 2    
    73   35   37 1    
    74   37   38 1    
    75   37   39 1    
    76   37  160 1    
    77   38  161 1    
    78   38  162 1    
    79   38  163 1    
    80   39   40 am   BACKBONE|DICT|INTERRES
    81   39  164 1    
    82   40   41 2    
    83   40   42 1    
    84   42   43 1    
    85   42   44 1    
    86   42  165 1    
    87   43  166 1    
    88   43  167 1    
    89   43  168 1    
    90   44   45 am   BACKBONE|DICT|INTERRES
    91   44  169 1    
    92   45   46 2    
    93   45   47 1    
    94   47   48 1    
    95   47   49 1    
    96   47  170 1    
    97   48  171 1    
    98   48  172 1    
    99   48  173 1    
   100   49   50 am   BACKBONE|DICT|INTERRES
   101   49  174 1    
   102   50   51 2    
   103   50   52 1    
   104   52   53 1    
   105   52   54 1    
   106   52  175 1    
   107   53  176 1    
   108   53  177 1    
   109   53  178 1    
   110   54   55 am   BACKBONE|DICT|INTERRES
   111   54  179 1    
   112   55   56 2    
   113   55   57 1    
   114   57   58 1    
   115   57   59 1    
   116   57  180 1    
   117   58  181 1    
   118   58  182 1    
   119   58  183 1    
   120   59   60 am   BACKBONE|DICT|INTERRES
   121   59  184 1    
   122   60   61 2    
   123   60   62 1    
   124   62   63 1    
   125   62   64 1    
   126   62  185 1    
   127   63  186 1    
   128   63  187 1    
   129   63  188 1    
   130   64   65 am   BACKBONE|DICT|INTERRES
   131   64  189 1    
   132   65   66 2    
   133   67   68 2    
   134   67   69 am   BACKBONE|DICT|INTERRES
   135   69   70 1    
   136   69  190 1    
   137   70   71 1    
   138   70   72 1    
   139   70  191 1    
   140   71  192 1    
   141   71  193 1    
   142   71  194 1    
   143   72   73 2    
   144   72   74 am   BACKBONE|DICT|INTERRES
   145   74   75 1    
   146   74  195 1    
   147   75   76 1    
   148   75   77 1    
   149   75  196 1    
   150   76  197 1    
   151   76  198 1    
   152   76  199 1    
   153   77   78 2    
   154   77   79 am   BACKBONE|DICT|INTERRES
   155   79   80 1    
   156   79  200 1    
   157   80   81 1    
   158   80   82 1    
   159   80  201 1    
   160   81  202 1    
   161   81  203 1    
   162   81  204 1    
   163   82   83 2    
   164   82   84 am   BACKBONE|DICT|INTERRES
   165   84   85 1    
   166   84  205 1    
   167   85   86 1    
   168   85   87 1    
   169   85  206 1    
   170   86  207 1    
   171   86  208 1    
   172   86  209 1    
   173   87   88 2    
   174   87   89 am   BACKBONE|DICT|INTERRES
   175   89   90 1    
   176   89  210 1    
   177   90   91 1    
   178   90   92 1    
   179   90  211 1    
   180   91  212 1    
   181   91  213 1    
   182   91  214 1    
   183   92   93 2    
   184   92   94 am   BACKBONE|DICT|INTERRES
   185   94   95 1    
   186   94  215 1    
   187   95   96 1    
   188   95   97 1    
   189   95  216 1    
   190   96  217 1    
   191   96  218 1    
   192   96  219 1    
   193   97   98 2    
   194   97   99 am   BACKBONE|DICT|INTERRES
   195   99  100 1    
   196   99  220 1    
   197  100  101 1    
   198  100  102 1    
   199  100  221 1    
   200  101  222 1    
   201  101  223 1    
   202  101  224 1    
   203  102  103 2    
   204  102  104 am   BACKBONE|DICT|INTERRES
   205  104  105 1    
   206  104  225 1    
   207  105  106 1    
   208  105  107 1    
   209  105  226 1    
   210  106  227 1    
   211  106  228 1    
   212  106  229 1    
   213  107  108 2    
   214  107  109 am   BACKBONE|DICT|INTERRES
   215  109  110 1    
   216  109  230 1    
   217  110  111 1    
   218  110  112 1    
   219  110  231 1    
   220  111  232 1    
   221  111  233 1    
   222  111  234 1    
   223  112  113 2    
   224  112  114 am   BACKBONE|DICT|INTERRES
   225  114  115 1    
   226  114  235 1    
   227  115  116 1    
   228  115  117 1    
   229  115  236 1    
   230  116  237 1    
   231  116  238 1    
   232  116  239 1    
   233  117  118 2    
   234  117  119 am   BACKBONE|DICT|INTERRES
   235  119  120 1    
   236  119  240 1    
   237  120  121 1    
   238  120  124 1    
   239  120  241 1    
   240  121  122 am   BACKBONE|DICT|INTERRES
   241  121  123 2    
   242  122  242 1    
   243  122  243 1    
   244  124  125 1    
   245  124  244 1    
   246  124  245 1    
   247  125  126 1    
   248  126  246 1    
   249  126  247 1    
@<TRIPOS>SUBSTRUCTURE
     1 UNK         1 GROUP             0       ****    0 ROOT    
