@<TRIPOS>MOLECULE
3R540
247   249    1
SMALL
USER_CHARGES


@<TRIPOS>ATOM
      1 CA         -3.1069  -17.3521  -44.0880 C.3       0 UNK        -0.1800 
      2 C          -2.9622  -15.9457  -44.6540 C.2       0 UNK         0.5000 
      3 O          -1.8626  -15.5639  -45.0443 O.2       0 UNK        -0.5000 
      4 N          -4.0705  -15.1918  -44.7020 N.am      1 UNK        -0.5000 
      5 CA         -4.2044  -13.8159  -45.2065 C.3       1 UNK         0.1400 
      6 C6         -4.4427  -13.7404  -46.7472 C.3       23 UNK        -0.0398 
      7 S7         -2.9945  -14.0400  -47.8220 S.3       23 UNK        -0.2404 
      8 C8         -3.2670  -15.7566  -48.3470 C.3       23 UNK        -0.0205 
      9 C9         -2.0117  -16.3246  -48.9866 C.ar      23 UNK        -0.0193 
     10 C10        -1.8348  -16.2676  -50.3712 C.ar      23 UNK        -0.1150 
     11 C11        -0.6764  -16.7840  -50.9592 C.ar      23 UNK        -0.0193 
     12 C12         0.3150  -17.3473  -50.1506 C.ar      23 UNK        -0.1150 
     13 C13         0.1365  -17.4344  -48.7684 C.ar      23 UNK        -0.0193 
     14 C14        -1.0252  -16.9141  -48.1914 C.ar      23 UNK        -0.1150 
     15 C15         1.1796  -18.1251  -47.9013 C.3       23 UNK        -0.0205 
     16 S16         1.2149  -19.9314  -48.1712 S.3       23 UNK        -0.2404 
     17 C17        -0.5540  -20.3483  -48.0127 C.3       23 UNK        -0.0398 
     18 CA         -0.8309  -21.7814  -47.5065 C.3       11 UNK         0.1400 
     19 N          -0.1887  -22.0656  -46.2194 N.am      11 UNK        -0.5000 
     20 C          -0.1011  -23.2856  -45.6680 C.2       10 UNK         0.5000 
     21 O          -0.5457  -24.3038  -46.1960 O.2       10 UNK        -0.5000 
     22 CA          0.5383  -23.3835  -44.2698 C.3       10 UNK         0.1400 
     23 CB          2.0559  -23.5815  -44.3881 C.3       10 UNK        -0.1800 
     24 N           0.2567  -22.2174  -43.4313 N.am      10 UNK        -0.5000 
     25 C          -0.9733  -21.8416  -43.0452 C.2       9 UNK         0.5000 
     26 O          -1.9882  -22.4890  -43.3015 O.2       9 UNK        -0.5000 
     27 CA         -1.1143  -20.4969  -42.3028 C.3       9 UNK         0.1400 
     28 CB         -1.2205  -20.7281  -40.7889 C.3       9 UNK        -0.1800 
     29 N          -0.0249  -19.5555  -42.5677 N.am      9 UNK        -0.5000 
     30 C           0.3161  -19.0828  -43.7749 C.2       8 UNK         0.5000 
     31 O          -0.3023  -19.3441  -44.8067 O.2       8 UNK        -0.5000 
     32 CA          1.5967  -18.2314  -43.8518 C.3       8 UNK         0.1400 
     33 CB          1.2455  -16.7422  -43.8777 C.3       8 UNK        -0.1800 
     34 N           2.5639  -18.4752  -42.7760 N.am      8 UNK        -0.5000 
     35 C           3.1801  -19.6441  -42.5416 C.2       7 UNK         0.5000 
     36 O           2.9017  -20.6841  -43.1401 O.2       7 UNK        -0.5000 
     37 CA          4.2678  -19.6537  -41.4445 C.3       7 UNK         0.1400 
     38 CB          5.2991  -20.7846  -41.6415 C.3       7 UNK        -0.1800 
     39 N           4.9415  -18.3600  -41.2685 N.am      7 UNK        -0.5000 
     40 C           5.6561  -17.6842  -42.1806 C.2       6 UNK         0.5000 
     41 O           5.8567  -18.0690  -43.3342 O.2       6 UNK        -0.5000 
     42 CA          6.2106  -16.3218  -41.7264 C.3       6 UNK         0.1400 
     43 CB          7.6919  -16.1602  -42.1048 C.3       6 UNK        -0.1800 
     44 N           5.4494  -15.2193  -42.3086 N.am      6 UNK        -0.5000 
     45 C           4.1691  -14.9259  -42.0548 C.2       5 UNK         0.5000 
     46 O           3.4627  -15.5692  -41.2771 O.2       5 UNK        -0.5000 
     47 CA          3.5688  -13.7215  -42.8051 C.3       5 UNK         0.1400 
     48 CB          4.1986  -12.3908  -42.3510 C.3       5 UNK        -0.1800 
     49 N           3.5985  -13.8648  -44.2639 N.am      5 UNK        -0.5000 
     50 C           4.6398  -13.9273  -45.1024 C.2       4 UNK         0.5000 
     51 O           5.8139  -13.8092  -44.7484 O.2       4 UNK        -0.5000 
     52 CA          4.3262  -14.1695  -46.5944 C.3       4 UNK         0.1400 
     53 CB          4.1651  -15.6762  -46.8779 C.3       4 UNK        -0.1800 
     54 N           3.1933  -13.4016  -47.1390 N.am      4 UNK        -0.5000 
     55 C           1.8921  -13.4831  -46.8268 C.2       3 UNK         0.5000 
     56 O           1.4376  -14.2390  -45.9674 O.2       3 UNK        -0.5000 
     57 CA          0.9406  -12.5749  -47.6234 C.3       3 UNK         0.1400 
     58 CB          0.4699  -13.2872  -48.9003 C.3       3 UNK        -0.1800 
     59 N          -0.2271  -12.2023  -46.8240 N.am      3 UNK        -0.5000 
     60 C          -0.2215  -11.2609  -45.8689 C.2       2 UNK         0.5000 
     61 O           0.7719  -10.5836  -45.5994 O.2       2 UNK        -0.5000 
     62 CA         -1.5305  -11.0049  -45.0926 C.3       2 UNK         0.1400 
     63 CB         -2.0480   -9.5809  -45.3583 C.3       2 UNK        -0.1800 
     64 N          -2.5867  -11.9546  -45.4489 N.am      2 UNK        -0.5000 
     65 C          -3.1538  -12.8361  -44.6159 C.2       1 UNK         0.5000 
     66 O          -2.9071  -12.8821  -43.4076 O.2       1 UNK        -0.5000 
     67 C          -2.3543  -22.0063  -47.4406 C.2       11 UNK         0.5000 
     68 O          -2.9459  -22.4607  -48.4208 O.2       11 UNK        -0.5000 
     69 N          -2.9579  -21.6822  -46.2888 N.am      12 UNK        -0.5000 
     70 CA         -4.3736  -21.9039  -46.0093 C.3       12 UNK         0.1400 
     71 CB         -4.8174  -21.0070  -44.8438 C.3       12 UNK        -0.1800 
     72 C          -4.6646  -23.3856  -45.7202 C.2       12 UNK         0.5000 
     73 O          -5.6414  -23.9191  -46.2442 O.2       12 UNK        -0.5000 
     74 N          -3.7932  -24.0344  -44.9333 N.am      13 UNK        -0.5000 
     75 CA         -3.8753  -25.4547  -44.5805 C.3       13 UNK         0.1400 
     76 CB         -2.8111  -25.7825  -43.5231 C.3       13 UNK        -0.1800 
     77 C          -3.7384  -26.3906  -45.7962 C.2       13 UNK         0.5000 
     78 O          -4.4695  -27.3770  -45.8893 O.2       13 UNK        -0.5000 
     79 N          -2.8341  -26.0449  -46.7231 N.am      14 UNK        -0.5000 
     80 CA         -2.6471  -26.7337  -48.0029 C.3       14 UNK         0.1400 
     81 CB         -1.2630  -26.3661  -48.5622 C.3       14 UNK        -0.1800 
     82 C          -3.7387  -26.4029  -49.0416 C.2       14 UNK         0.5000 
     83 O          -3.7986  -27.0657  -50.0772 O.2       14 UNK        -0.5000 
     84 N          -4.5456  -25.3655  -48.7688 N.am      15 UNK        -0.5000 
     85 CA         -5.5762  -24.7650  -49.6242 C.3       15 UNK         0.1400 
     86 CB         -6.6935  -25.7739  -49.9571 C.3       15 UNK        -0.1800 
     87 C          -5.0155  -24.0709  -50.8830 C.2       15 UNK         0.5000 
     88 O          -5.7860  -23.7118  -51.7735 O.2       15 UNK        -0.5000 
     89 N          -3.6965  -23.8393  -50.9216 N.am      16 UNK        -0.5000 
     90 CA         -2.9913  -23.1444  -51.9962 C.3       16 UNK         0.1400 
     91 CB         -1.4765  -23.2843  -51.7876 C.3       16 UNK        -0.1800 
     92 C          -3.3908  -21.6643  -52.0933 C.2       16 UNK         0.5000 
     93 O          -3.4912  -21.1403  -53.2021 O.2       16 UNK        -0.5000 
     94 N          -3.6508  -21.0388  -50.9363 N.am      17 UNK        -0.5000 
     95 CA         -4.1742  -19.6768  -50.8271 C.3       17 UNK         0.1400 
     96 CB         -4.1209  -19.2287  -49.3585 C.3       17 UNK        -0.1800 
     97 C          -5.6103  -19.5492  -51.3684 C.2       17 UNK         0.5000 
     98 O          -5.9375  -18.5432  -51.9971 O.2       17 UNK        -0.5000 
     99 N          -6.4358  -20.5752  -51.1175 N.am      18 UNK        -0.5000 
    100 CA        -7.8318  -20.6441  -51.5499 C.3       18 UNK         0.1400 
    101 CB        -8.5741  -21.6970  -50.7116 C.3       18 UNK        -0.1800 
    102 C         -7.9572  -20.9489  -53.0522 C.2       18 UNK         0.5000 
    103 O         -8.7699  -20.3260  -53.7360 O.2       18 UNK        -0.5000 
    104 N         -7.1359  -21.8883  -53.5396 N.am      19 UNK        -0.5000 
    105 CA        -7.0692  -22.2931  -54.9447 C.3       19 UNK         0.1400 
    106 CB        -6.3511  -23.6500  -55.0271 C.3       19 UNK        -0.1800 
    107 C         -6.3590  -21.2671  -55.8496 C.2       19 UNK         0.5000 
    108 O         -6.5037  -21.3462  -57.0699 O.2       19 UNK        -0.5000 
    109 N         -5.5773  -20.3608  -55.2420 N.am      20 UNK        -0.5000 
    110 CA        -4.6461  -19.4163  -55.8721 C.3       20 UNK         0.1400 
    111 CB        -5.3857  -18.4006  -56.7669 C.3       20 UNK        -0.1800 
    112 C         -3.4803  -20.1305  -56.5927 C.2       20 UNK         0.5000 
    113 O         -2.9126  -19.5980  -57.5476 O.2       20 UNK        -0.5000 
    114 N         -3.1313  -21.3247  -56.0963 N.am      21 UNK        -0.5000 
    115 CA        -2.0107  -22.1493  -56.5485 C.3       21 UNK         0.1400 
    116 CB        -2.3244  -23.6183  -56.2239 C.3       21 UNK        -0.1800 
    117 C         -0.6772  -21.7216  -55.9042 C.2       21 UNK         0.5000 
    118 O          0.3800  -22.1880  -56.3291 O.2       21 UNK        -0.5000 
    119 N         -0.7531  -20.8483  -54.8927 N.am      22 UNK        -0.5000 
    120 CA         0.3718  -20.2480  -54.1639 C.3       22 UNK         0.1400 
    121 C          1.3172  -19.3310  -54.9996 C.2       22 UNK         0.5000 
    122 N          0.9449  -18.9017  -56.1997 N.am      22 UNK        -0.7600 
    123 O          2.4134  -19.0100  -54.5492 O.2       22 UNK        -0.5000 
    124 C124       -0.1341  -19.5299  -52.8878 C.3       23 UNK        -0.0398 
    125 S125       -1.3292  -18.1867  -53.2402 S.3       23 UNK        -0.2404 
    126 C126       -0.5135  -16.7541  -52.4698 C.3       23 UNK        -0.0205 
    127 H127       -4.1305  -17.5660  -43.7801 H         1 UNK         0.0600 
    128 H128       -2.4568  -17.4751  -43.2219 H         1 UNK         0.0600 
    129 H129       -2.8162  -18.0874  -44.8386 H         1 UNK         0.0600 
    130 H130       -4.9236  -15.5810  -44.3269 H         1 UNK         0.3000 
    131 H131       -5.1392  -13.4744  -44.7594 H         1 UNK         0.0600 
    132 H132       -5.2349  -14.4370  -47.0246 H         1 UNK         0.0800 
    133 H133       -4.8390  -12.7567  -47.0038 H         1 UNK         0.0800 
    134 H134       -4.1029  -15.7911  -49.0471 H         1 UNK         0.0800 
    135 H135       -3.5522  -16.3694  -47.4915 H         1 UNK         0.0800 
    136 H136       -2.6016  -15.8274  -50.9929 H         1 UNK         0.1150 
    137 H137        1.2147  -17.7483  -50.5940 H         1 UNK         0.1150 
    138 H138       -1.1642  -16.9718  -47.1211 H         1 UNK         0.1150 
    139 H139        0.9867  -17.9241  -46.8475 H         1 UNK         0.0800 
    140 H140        2.1648  -17.7113  -48.1185 H         1 UNK         0.0800 
    141 H141       -1.0027  -20.2038  -48.9973 H         1 UNK         0.0800 
    142 H142       -1.0263  -19.6229  -47.3482 H         1 UNK         0.0800 
    143 H143       -0.4290  -22.4836  -48.2401 H         1 UNK         0.0600 
    144 H144        0.1554  -21.2618  -45.7078 H         1 UNK         0.3000 
    145 H145        0.1209  -24.2592  -43.7704 H         1 UNK         0.0600 
    146 H146        2.2880  -24.4851  -44.9532 H         1 UNK         0.0600 
    147 H147        2.5199  -23.6823  -43.4068 H         1 UNK         0.0600 
    148 H148        2.5319  -22.7439  -44.8995 H         1 UNK         0.0600 
    149 H149        1.0487  -21.6238  -43.2078 H         1 UNK         0.3000 
    150 H150       -2.0416  -20.0342  -42.6464 H         1 UNK         0.0600 
    151 H151       -0.3069  -21.1652  -40.3840 H         1 UNK         0.0600 
    152 H152       -2.0417  -21.4067  -40.5540 H         1 UNK         0.0600 
    153 H153       -1.4112  -19.7945  -40.2592 H         1 UNK         0.0600 
    154 H154        0.5492  -19.2944  -41.7799 H         1 UNK         0.3000 
    155 H155        2.0923  -18.4817  -44.7917 H         1 UNK         0.0600 
    156 H156        2.1369  -16.1390  -44.0324 H         1 UNK         0.0600 
    157 H157        0.7705  -16.4174  -42.9514 H         1 UNK         0.0600 
    158 H158        0.5624  -16.5190  -44.6975 H         1 UNK         0.0600 
    159 H159        2.8431  -17.6711  -42.2289 H         1 UNK         0.3000 
    160 H160        3.7427  -19.8509  -40.5090 H         1 UNK         0.0600 
    161 H161        5.8202  -20.6957  -42.5951 H         1 UNK         0.0600 
    162 H162        4.8170  -21.7627  -41.6239 H         1 UNK         0.0600 
    163 H163        6.0467  -20.7796  -40.8484 H         1 UNK         0.0600 
    164 H164        4.7997  -17.9230  -40.3678 H         1 UNK         0.3000 
    165 H165        6.1333  -16.2520  -40.6394 H         1 UNK         0.0600 
    166 H166        8.2907  -16.9744  -41.6946 H         1 UNK         0.0600 
    167 H167        7.8348  -16.1583  -43.1863 H         1 UNK         0.0600 
    168 H168        8.0987  -15.2277  -41.7130 H         1 UNK         0.0600 
    169 H169        5.9082  -14.6819  -43.0386 H         1 UNK         0.3000 
    170 H170        2.5111  -13.6848  -42.5392 H         1 UNK         0.0600 
    171 H171        3.7095  -11.5427  -42.8303 H         1 UNK         0.0600 
    172 H172        5.2627  -12.3366  -42.5818 H         1 UNK         0.0600 
    173 H173        4.0933  -12.2603  -41.2734 H         1 UNK         0.0600 
    174 H174        2.6875  -14.0079  -44.6983 H         1 UNK         0.3000 
    175 H175        5.2013  -13.8286  -47.1500 H         1 UNK         0.0600 
    176 H176        5.0494  -16.2290  -46.5581 H         1 UNK         0.0600 
    177 H177        3.3107  -16.1035  -46.3525 H         1 UNK         0.0600 
    178 H178        4.0316  -15.8642  -47.9432 H         1 UNK         0.0600 
    179 H179        3.4559  -12.7244  -47.8416 H         1 UNK         0.3000 
    180 H180        1.4736  -11.6662  -47.9113 H         1 UNK         0.0600 
    181 H181       -0.0304  -14.2276  -48.6704 H         1 UNK         0.0600 
    182 H182        1.3114  -13.5195  -49.5540 H         1 UNK         0.0600 
    183 H183       -0.2246  -12.6687  -49.4690 H         1 UNK         0.0600 
    184 H184       -1.0391  -12.7951  -46.9242 H         1 UNK         0.3000 
    185 H185       -1.2828  -11.0846  -44.0323 H         1 UNK         0.0600 
    186 H186       -1.3043   -8.8331  -45.0801 H         1 UNK         0.0600 
    187 H187       -2.2883   -9.4303  -46.4115 H         1 UNK         0.0600 
    188 H188       -2.9465   -9.3744  -44.7765 H         1 UNK         0.0600 
    189 H189       -2.8429  -11.9880  -46.4261 H         1 UNK         0.3000 
    190 H190       -2.3913  -21.3368  -45.5274 H         1 UNK         0.3000 
    191 H191       -4.9515  -21.6174  -46.8905 H         1 UNK         0.0600 
    192 H192       -4.6641  -19.9539  -45.0793 H         1 UNK         0.0600 
    193 H193       -5.8791  -21.1410  -44.6331 H         1 UNK         0.0600 
    194 H194       -4.2716  -21.2283  -43.9266 H         1 UNK         0.0600 
    195 H195       -3.0441  -23.5035  -44.4964 H         1 UNK         0.3000 
    196 H196       -4.8583  -25.6276  -44.1377 H         1 UNK         0.0600 
    197 H197       -2.8913  -26.8203  -43.1976 H         1 UNK         0.0600 
    198 H198       -2.9239  -25.1540  -42.6394 H         1 UNK         0.0600 
    199 H199       -1.8032  -25.6380  -43.9115 H         1 UNK         0.0600 
    200 H200       -2.2140  -25.2609  -46.5385 H         1 UNK         0.3000 
    201 H201       -2.6720  -27.8114  -47.8291 H         1 UNK         0.0600 
    202 H202       -1.0637  -26.8902  -49.4978 H         1 UNK         0.0600 
    203 H203       -0.4710  -26.6381  -47.8641 H         1 UNK         0.0600 
    204 H204       -1.1811  -25.2965  -48.7606 H         1 UNK         0.0600 
    205 H205       -4.4215  -24.9060  -47.8760 H         1 UNK         0.3000 
    206 H206       -6.0252  -23.9695  -49.0282 H         1 UNK         0.0600 
    207 H207       -7.0789  -26.2466  -49.0537 H         1 UNK         0.0600 
    208 H208       -7.5334  -25.2794  -50.4465 H         1 UNK         0.0600 
    209 H209       -6.3462  -26.5602  -50.6275 H         1 UNK         0.0600 
    210 H210       -3.1553  -24.0801  -50.1034 H         1 UNK         0.3000 
    211 H211       -3.2594  -23.6264  -52.9377 H         1 UNK         0.0600 
    212 H212       -1.1788  -24.3326  -51.7557 H         1 UNK         0.0600 
    213 H213       -0.9253  -22.8163  -52.6041 H         1 UNK         0.0600 
    214 H214       -1.1518  -22.8151  -50.8579 H         1 UNK         0.0600 
    215 H215       -3.5209  -21.5560  -50.0721 H         1 UNK         0.3000 
    216 H216       -3.5362  -19.0126  -51.4125 H         1 UNK         0.0600 
    217 H217       -4.6538  -19.9191  -48.7044 H         1 UNK         0.0600 
    218 H218       -4.5753  -18.2457  -49.2343 H         1 UNK         0.0600 
    219 H219       -3.0942  -19.1538  -49.0052 H         1 UNK         0.0600 
    220 H220       -6.0711  -21.3785  -50.6294 H         1 UNK         0.3000 
    221 H221       -8.2997  -19.6747  -51.3644 H         1 UNK         0.0600 
    222 H222       -8.1539  -22.6941  -50.8451 H         1 UNK         0.0600 
    223 H223       -8.5332  -21.4556  -49.6493 H         1 UNK         0.0600 
    224 H224       -9.6268  -21.7458  -50.9928 H         1 UNK         0.0600 
    225 H225       -6.5446  -22.4058  -52.8935 H         1 UNK         0.3000 
    226 H226       -8.0868  -22.4183  -55.3203 H         1 UNK         0.0600 
    227 H227       -6.8718  -24.4077  -54.4412 H         1 UNK         0.0600 
    228 H228       -6.3048  -24.0095  -56.0559 H         1 UNK         0.0600 
    229 H229       -5.3278  -23.5857  -54.6548 H         1 UNK         0.0600 
    230 H230       -5.5098  -20.4151  -54.2343 H         1 UNK         0.3000 
    231 H231       -4.1913  -18.8581  -55.0521 H         1 UNK         0.0600 
    232 H232       -5.7921  -18.8670  -57.6645 H         1 UNK         0.0600 
    233 H233       -4.7129  -17.6058  -57.0907 H         1 UNK         0.0600 
    234 H234       -6.2087  -17.9292  -56.2299 H         1 UNK         0.0600 
    235 H235       -3.6024  -21.6264  -55.2522 H         1 UNK         0.3000 
    236 H236       -1.9058  -22.0494  -57.6307 H         1 UNK         0.0600 
    237 H237       -2.4040  -23.7854  -55.1499 H         1 UNK         0.0600 
    238 H238       -3.2617  -23.9328  -56.6834 H         1 UNK         0.0600 
    239 H239       -1.5412  -24.2773  -56.6005 H         1 UNK         0.0600 
    240 H240       -1.6706  -20.5359  -54.6043 H         1 UNK         0.3000 
    241 H241        0.9972  -21.0799  -53.8348 H         1 UNK         0.0600 
    242 H242        0.0440  -19.1506  -56.5760 H         1 UNK         0.3800 
    243 H243        1.5664  -18.3132  -56.7316 H         1 UNK         0.3800 
    244 H244       -0.6255  -20.2466  -52.2294 H         1 UNK         0.0800 
    245 H245        0.7125  -19.1496  -52.3172 H         1 UNK         0.0800 
    246 H246        0.5411  -16.7286  -52.7488 H         1 UNK         0.0800 
    247 H247       -0.9563  -15.8399  -52.8676 H         1 UNK         0.0800 
@<TRIPOS>BOND
     1    1    2 1    
     2    1  127 1    
     3    1  128 1    
     4    1  129 1    
     5    2    3 2    
     6    2    4 am   BACKBONE|DICT|INTERRES
     7    4    5 1    
     8    4  130 1    
     9    5    6 1    
    10    5   65 1    
    11    5  131 1    
    12    6    7 1    
    13    6  132 1    
    14    6  133 1    
    15    7    8 1    
    16    8    9 1    
    17    8  134 1    
    18    8  135 1    
    19    9   10 ar   
    20    9   14 ar   
    21   10   11 ar   
    22   10  136 1    
    23   11   12 ar   
    24   11  126 1    
    25   12   13 ar   
    26   12  137 1    
    27   13   14 ar   
    28   13   15 1    
    29   14  138 1    
    30   15   16 1    
    31   15  139 1    
    32   15  140 1    
    33   16   17 1    
    34   17   18 1    
    35   17  141 1    
    36   17  142 1    
    37   18   19 1    
    38   18   67 1    
    39   18  143 1    
    40   19   20 am   BACKBONE|DICT|INTERRES
    41   19  144 1    
    42   20   21 2    
    43   20   22 1    
    44   22   23 1    
    45   22   24 1    
    46   22  145 1    
    47   23  146 1    
    48   23  147 1    
    49   23  148 1    
    50   24   25 am   BACKBONE|DICT|INTERRES
    51   24  149 1    
    52   25   26 2    
    53   25   27 1    
    54   27   28 1    
    55   27   29 1    
    56   27  150 1    
    57   28  151 1    
    58   28  152 1    
    59   28  153 1    
    60   29   30 am   BACKBONE|DICT|INTERRES
    61   29  154 1    
    62   30   31 2    
    63   30   32 1    
    64   32   33 1    
    65   32   34 1    
    66   32  155 1    
    67   33  156 1    
    68   33  157 1    
    69   33  158 1    
    70   34   35 am   BACKBONE|DICT|INTERRES
    71   34  159 1    
    72   35   36 2    
    73   35   37 1    
    74   37   38 1    
    75   37   39 1    
    76   37  160 1    
    77   38  161 1    
    78   38  162 1    
    79   38  163 1    
    80   39   40 am   BACKBONE|DICT|INTERRES
    81   39  164 1    
    82   40   41 2    
    83   40   42 1    
    84   42   43 1    
    85   42   44 1    
    86   42  165 1    
    87   43  166 1    
    88   43  167 1    
    89   43  168 1    
    90   44   45 am   BACKBONE|DICT|INTERRES
    91   44  169 1    
    92   45   46 2    
    93   45   47 1    
    94   47   48 1    
    95   47   49 1    
    96   47  170 1    
    97   48  171 1    
    98   48  172 1    
    99   48  173 1    
   100   49   50 am   BACKBONE|DICT|INTERRES
   101   49  174 1    
   102   50   51 2    
   103   50   52 1    
   104   52   53 1    
   105   52   54 1    
   106   52  175 1    
   107   53  176 1    
   108   53  177 1    
   109   53  178 1    
   110   54   55 am   BACKBONE|DICT|INTERRES
   111   54  179 1    
   112   55   56 2    
   113   55   57 1    
   114   57   58 1    
   115   57   59 1    
   116   57  180 1    
   117   58  181 1    
   118   58  182 1    
   119   58  183 1    
   120   59   60 am   BACKBONE|DICT|INTERRES
   121   59  184 1    
   122   60   61 2    
   123   60   62 1    
   124   62   63 1    
   125   62   64 1    
   126   62  185 1    
   127   63  186 1    
   128   63  187 1    
   129   63  188 1    
   130   64   65 am   BACKBONE|DICT|INTERRES
   131   64  189 1    
   132   65   66 2    
   133   67   68 2    
   134   67   69 am   BACKBONE|DICT|INTERRES
   135   69   70 1    
   136   69  190 1    
   137   70   71 1    
   138   70   72 1    
   139   70  191 1    
   140   71  192 1    
   141   71  193 1    
   142   71  194 1    
   143   72   73 2    
   144   72   74 am   BACKBONE|DICT|INTERRES
   145   74   75 1    
   146   74  195 1    
   147   75   76 1    
   148   75   77 1    
   149   75  196 1    
   150   76  197 1    
   151   76  198 1    
   152   76  199 1    
   153   77   78 2    
   154   77   79 am   BACKBONE|DICT|INTERRES
   155   79   80 1    
   156   79  200 1    
   157   80   81 1    
   158   80   82 1    
   159   80  201 1    
   160   81  202 1    
   161   81  203 1    
   162   81  204 1    
   163   82   83 2    
   164   82   84 am   BACKBONE|DICT|INTERRES
   165   84   85 1    
   166   84  205 1    
   167   85   86 1    
   168   85   87 1    
   169   85  206 1    
   170   86  207 1    
   171   86  208 1    
   172   86  209 1    
   173   87   88 2    
   174   87   89 am   BACKBONE|DICT|INTERRES
   175   89   90 1    
   176   89  210 1    
   177   90   91 1    
   178   90   92 1    
   179   90  211 1    
   180   91  212 1    
   181   91  213 1    
   182   91  214 1    
   183   92   93 2    
   184   92   94 am   BACKBONE|DICT|INTERRES
   185   94   95 1    
   186   94  215 1    
   187   95   96 1    
   188   95   97 1    
   189   95  216 1    
   190   96  217 1    
   191   96  218 1    
   192   96  219 1    
   193   97   98 2    
   194   97   99 am   BACKBONE|DICT|INTERRES
   195   99  100 1    
   196   99  220 1    
   197  100  101 1    
   198  100  102 1    
   199  100  221 1    
   200  101  222 1    
   201  101  223 1    
   202  101  224 1    
   203  102  103 2    
   204  102  104 am   BACKBONE|DICT|INTERRES
   205  104  105 1    
   206  104  225 1    
   207  105  106 1    
   208  105  107 1    
   209  105  226 1    
   210  106  227 1    
   211  106  228 1    
   212  106  229 1    
   213  107  108 2    
   214  107  109 am   BACKBONE|DICT|INTERRES
   215  109  110 1    
   216  109  230 1    
   217  110  111 1    
   218  110  112 1    
   219  110  231 1    
   220  111  232 1    
   221  111  233 1    
   222  111  234 1    
   223  112  113 2    
   224  112  114 am   BACKBONE|DICT|INTERRES
   225  114  115 1    
   226  114  235 1    
   227  115  116 1    
   228  115  117 1    
   229  115  236 1    
   230  116  237 1    
   231  116  238 1    
   232  116  239 1    
   233  117  118 2    
   234  117  119 am   BACKBONE|DICT|INTERRES
   235  119  120 1    
   236  119  240 1    
   237  120  121 1    
   238  120  124 1    
   239  120  241 1    
   240  121  122 am   BACKBONE|DICT|INTERRES
   241  121  123 2    
   242  122  242 1    
   243  122  243 1    
   244  124  125 1    
   245  124  244 1    
   246  124  245 1    
   247  125  126 1    
   248  126  246 1    
   249  126  247 1    
@<TRIPOS>SUBSTRUCTURE
     1 UNK         1 GROUP             0       ****    0 ROOT    
