@<TRIPOS>MOLECULE
3R540
247   249    1
SMALL
USER_CHARGES


@<TRIPOS>ATOM
      1 CA          4.2162  -15.1092  -47.7282 C.3       0 UNK        -0.1800 
      2 C           2.8602  -14.6433  -47.2203 C.2       0 UNK         0.5000 
      3 O           2.7553  -14.1801  -46.0863 O.2       0 UNK        -0.5000 
      4 N           1.8227  -14.7454  -48.0609 N.am      1 UNK        -0.5000 
      5 CA          0.4191  -14.4595  -47.7253 C.3       1 UNK         0.1400 
      6 C6         -0.5523  -14.8558  -48.8673 C.3       23 UNK        -0.0398 
      7 S7         -0.3774  -16.5954  -49.3892 S.3       23 UNK        -0.2404 
      8 C8          0.5908  -16.4031  -50.9149 C.3       23 UNK        -0.0205 
      9 C9          1.2791  -17.7017  -51.2978 C.ar      23 UNK        -0.0193 
     10 C10         0.8364  -18.4441  -52.3950 C.ar      23 UNK        -0.1150 
     11 C11         1.5015  -19.6137  -52.7748 C.ar      23 UNK        -0.0193 
     12 C12         2.6055  -20.0481  -52.0377 C.ar      23 UNK        -0.1150 
     13 C13         3.0463  -19.3226  -50.9276 C.ar      23 UNK        -0.0193 
     14 C14         2.3837  -18.1466  -50.5666 C.ar      23 UNK        -0.1150 
     15 C15         4.2446  -19.8036  -50.1253 C.3       23 UNK        -0.0205 
     16 S16         3.8953  -21.3532  -49.2393 S.3       23 UNK        -0.2404 
     17 C17         2.6314  -20.8198  -48.0360 C.3       23 UNK        -0.0398 
     18 CA          1.7342  -21.9994  -47.5864 C.3       11 UNK         0.1400 
     19 N           1.2449  -21.8211  -46.2196 N.am      11 UNK        -0.5000 
     20 C           1.8020  -22.4048  -45.1469 C.2       10 UNK         0.5000 
     21 O           2.7547  -23.1824  -45.2201 O.2       10 UNK        -0.5000 
     22 CA          1.2361  -22.0846  -43.7457 C.3       10 UNK         0.1400 
     23 CB          2.2917  -21.3659  -42.8897 C.3       10 UNK        -0.1800 
     24 N           0.0055  -21.2945  -43.7361 N.am      10 UNK        -0.5000 
     25 C          -1.1798  -21.7110  -44.1954 C.2       9 UNK         0.5000 
     26 O          -1.3610  -22.8179  -44.7000 O.2       9 UNK        -0.5000 
     27 CA         -2.3324  -20.6903  -44.1535 C.3       9 UNK         0.1400 
     28 CB         -3.0097  -20.6862  -42.7759 C.3       9 UNK        -0.1800 
     29 N          -1.9096  -19.3323  -44.5006 N.am      9 UNK        -0.5000 
     30 C          -1.3611  -18.9825  -45.6728 C.2       8 UNK         0.5000 
     31 O          -1.1524  -19.7744  -46.5908 O.2       8 UNK        -0.5000 
     32 CA         -0.9215  -17.5191  -45.8248 C.3       8 UNK         0.1400 
     33 CB         -2.1395  -16.5952  -46.0014 C.3       8 UNK        -0.1800 
     34 N          -0.1023  -17.0804  -44.6972 N.am      8 UNK        -0.5000 
     35 C           1.1057  -17.5835  -44.3987 C.2       7 UNK         0.5000 
     36 O           1.7049  -18.3956  -45.1040 O.2       7 UNK        -0.5000 
     37 CA          1.7248  -17.1496  -43.0576 C.3       7 UNK         0.1400 
     38 CB          2.5545  -15.8675  -43.2153 C.3       7 UNK        -0.1800 
     39 N           0.7117  -16.9575  -42.0186 N.am      7 UNK        -0.5000 
     40 C           0.0070  -17.9504  -41.4564 C.2       6 UNK         0.5000 
     41 O           0.1665  -19.1396  -41.7269 O.2       6 UNK        -0.5000 
     42 CA         -1.0931  -17.5389  -40.4610 C.3       6 UNK         0.1400 
     43 CB         -0.4967  -17.2778  -39.0700 C.3       6 UNK        -0.1800 
     44 N          -1.8266  -16.3533  -40.9057 N.am      6 UNK        -0.5000 
     45 C          -2.6182  -16.3132  -41.9874 C.2       5 UNK         0.5000 
     46 O          -2.8728  -17.2976  -42.6799 O.2       5 UNK        -0.5000 
     47 CA         -3.1695  -14.9319  -42.3934 C.3       5 UNK         0.1400 
     48 CB         -4.5221  -14.6696  -41.7156 C.3       5 UNK        -0.1800 
     49 N          -2.2444  -13.8386  -42.0770 N.am      5 UNK        -0.5000 
     50 C          -1.0378  -13.6881  -42.6383 C.2       4 UNK         0.5000 
     51 O          -0.6013  -14.4226  -43.5276 O.2       4 UNK        -0.5000 
     52 CA         -0.1405  -12.5980  -42.0408 C.3       4 UNK         0.1400 
     53 CB          0.4816  -13.1086  -40.7229 C.3       4 UNK        -0.1800 
     54 N           0.9036  -12.2593  -43.0036 N.am      4 UNK        -0.5000 
     55 C           1.7829  -11.2572  -42.8864 C.2       3 UNK         0.5000 
     56 O           1.7958  -10.4595  -41.9478 O.2       3 UNK        -0.5000 
     57 CA          2.8205  -11.1113  -44.0121 C.3       3 UNK         0.1400 
     58 CB          3.9818  -12.0978  -43.8136 C.3       3 UNK        -0.1800 
     59 N           2.2369  -11.2904  -45.3426 N.am      3 UNK        -0.5000 
     60 C           1.4743  -10.3671  -45.9499 C.2       2 UNK         0.5000 
     61 O           1.1708   -9.2921  -45.4304 O.2       2 UNK        -0.5000 
     62 CA          0.9847  -10.6594  -47.3828 C.3       2 UNK         0.1400 
     63 CB          1.8223   -9.8745  -48.4048 C.3       2 UNK        -0.1800 
     64 N           1.0252  -12.0763  -47.7371 N.am      2 UNK        -0.5000 
     65 C           0.1596  -12.9985  -47.2972 C.2       1 UNK         0.5000 
     66 O          -0.8062  -12.7374  -46.5803 O.2       1 UNK        -0.5000 
     67 C           0.5851  -22.3051  -48.5658 C.2       11 UNK         0.5000 
     68 O           0.5887  -23.3727  -49.1775 O.2       11 UNK        -0.5000 
     69 N          -0.3989  -21.4045  -48.6884 N.am      12 UNK        -0.5000 
     70 CA         -1.4948  -21.5283  -49.6526 C.3       12 UNK         0.1400 
     71 CB         -2.1547  -20.1589  -49.8769 C.3       12 UNK        -0.1800 
     72 C          -2.5397  -22.5762  -49.2364 C.2       12 UNK         0.5000 
     73 O          -3.0604  -23.2867  -50.0986 O.2       12 UNK        -0.5000 
     74 N          -2.8366  -22.6728  -47.9315 N.am      13 UNK        -0.5000 
     75 CA         -3.7243  -23.7128  -47.3969 C.3       13 UNK         0.1400 
     76 CB         -4.4235  -23.2413  -46.1140 C.3       13 UNK        -0.1800 
     77 C          -2.9854  -25.0465  -47.1938 C.2       13 UNK         0.5000 
     78 O          -3.6132  -26.0979  -47.3058 O.2       13 UNK        -0.5000 
     79 N          -1.6615  -24.9982  -46.9827 N.am      14 UNK        -0.5000 
     80 CA         -0.7787  -26.1693  -46.9904 C.3       14 UNK         0.1400 
     81 CB          0.6103  -25.7734  -46.4703 C.3       14 UNK        -0.1800 
     82 C          -0.6886  -26.8227  -48.3859 C.2       14 UNK         0.5000 
     83 O          -0.6249  -28.0480  -48.4826 O.2       14 UNK        -0.5000 
     84 N          -0.7582  -25.9960  -49.4398 N.am      15 UNK        -0.5000 
     85 CA         -0.9064  -26.4018  -50.8405 C.3       15 UNK         0.1400 
     86 CB         -0.4642  -25.2355  -51.7412 C.3       15 UNK        -0.1800 
     87 C          -2.3377  -26.8607  -51.2052 C.2       15 UNK         0.5000 
     88 O          -2.5633  -27.2587  -52.3482 O.2       15 UNK        -0.5000 
     89 N          -3.2735  -26.7918  -50.2449 N.am      16 UNK        -0.5000 
     90 CA         -4.6869  -27.1804  -50.3184 C.3       16 UNK         0.1400 
     91 CB         -4.8380  -28.6769  -50.6641 C.3       16 UNK        -0.1800 
     92 C          -5.5545  -26.2714  -51.2130 C.2       16 UNK         0.5000 
     93 O          -6.6787  -26.6511  -51.5456 O.2       16 UNK        -0.5000 
     94 N          -5.0463  -25.0842  -51.5679 N.am      17 UNK        -0.5000 
     95 CA         -5.7742  -24.0797  -52.3405 C.3       17 UNK         0.1400 
     96 CB         -4.7864  -23.3109  -53.2267 C.3       17 UNK        -0.1800 
     97 C          -6.5453  -23.1310  -51.4093 C.2       17 UNK         0.5000 
     98 O          -7.7344  -22.8991  -51.6263 O.2       17 UNK        -0.5000 
     99 N          -5.8490  -22.6217  -50.3800 N.am      18 UNK        -0.5000 
    100 CA        -6.3430  -21.7656  -49.2901 C.3       18 UNK         0.1400 
    101 CB        -7.3287  -22.5507  -48.4001 C.3       18 UNK        -0.1800 
    102 C         -6.9214  -20.4030  -49.7373 C.2       18 UNK         0.5000 
    103 O         -7.6437  -19.7660  -48.9697 O.2       18 UNK        -0.5000 
    104 N         -6.5879  -19.9679  -50.9584 N.am      19 UNK        -0.5000 
    105 CA        -7.1423  -18.7761  -51.6061 C.3       19 UNK         0.1400 
    106 CB        -7.4058  -19.1269  -53.0815 C.3       19 UNK        -0.1800 
    107 C         -6.2220  -17.5438  -51.4981 C.2       19 UNK         0.5000 
    108 O         -6.5072  -16.5304  -52.1371 O.2       19 UNK        -0.5000 
    109 N         -5.1120  -17.6660  -50.7498 N.am      20 UNK        -0.5000 
    110 CA        -3.9520  -16.7571  -50.7394 C.3       20 UNK         0.1400 
    111 CB        -4.3199  -15.3659  -50.1834 C.3       20 UNK        -0.1800 
    112 C         -3.2517  -16.7016  -52.1184 C.2       20 UNK         0.5000 
    113 O         -2.6865  -15.6787  -52.5068 O.2       20 UNK        -0.5000 
    114 N         -3.3292  -17.8296  -52.8275 N.am      21 UNK        -0.5000 
    115 CA        -2.8745  -18.1170  -54.1763 C.3       21 UNK         0.1400 
    116 CB        -3.7553  -17.3874  -55.2061 C.3       21 UNK        -0.1800 
    117 C         -2.9929  -19.6408  -54.3281 C.2       21 UNK         0.5000 
    118 O         -3.7649  -20.2595  -53.5871 O.2       21 UNK        -0.5000 
    119 N         -2.2318  -20.2131  -55.2651 N.am      22 UNK        -0.5000 
    120 CA        -2.1283  -21.6705  -55.4779 C.3       22 UNK         0.1400 
    121 C         -2.6736  -22.1342  -56.8598 C.2       22 UNK         0.5000 
    122 N         -3.2952  -21.2705  -57.6537 N.am      22 UNK        -0.7600 
    123 O         -2.5467  -23.3021  -57.2169 O.2       22 UNK        -0.5000 
    124 C124       -0.6901  -22.1960  -55.2191 C.3       23 UNK        -0.0398 
    125 S125       -0.0614  -21.7581  -53.5602 S.3       23 UNK        -0.2404 
    126 C126        1.0496  -20.3882  -54.0000 C.3       23 UNK        -0.0205 
    127 H127        4.9354  -14.2917  -47.6798 H         1 UNK         0.0600 
    128 H128        4.1657  -15.4594  -48.7595 H         1 UNK         0.0600 
    129 H129        4.5846  -15.9265  -47.1084 H         1 UNK         0.0600 
    130 H130        1.9750  -15.1313  -48.9799 H         1 UNK         0.3000 
    131 H131        0.1923  -15.0714  -46.8530 H         1 UNK         0.0600 
    132 H132       -1.5838  -14.7216  -48.5378 H         1 UNK         0.0800 
    133 H133       -0.4262  -14.2024  -49.7326 H         1 UNK         0.0800 
    134 H134       -0.0664  -16.0600  -51.7152 H         1 UNK         0.0800 
    135 H135        1.3476  -15.6286  -50.7888 H         1 UNK         0.0800 
    136 H136       -0.0147  -18.1012  -52.9628 H         1 UNK         0.1150 
    137 H137        3.1202  -20.9546  -52.3245 H         1 UNK         0.1150 
    138 H138        2.7237  -17.5769  -49.7134 H         1 UNK         0.1150 
    139 H139        5.0845  -19.9652  -50.8024 H         1 UNK         0.0800 
    140 H140        4.5683  -19.0459  -49.4099 H         1 UNK         0.0800 
    141 H141        2.0347  -19.9958  -48.4288 H         1 UNK         0.0800 
    142 H142        3.1696  -20.4089  -47.1803 H         1 UNK         0.0800 
    143 H143        2.3523  -22.8997  -47.6061 H         1 UNK         0.0600 
    144 H144        0.4625  -21.1918  -46.0896 H         1 UNK         0.3000 
    145 H145        1.0146  -23.0428  -43.2714 H         1 UNK         0.0600 
    146 H146        1.9411  -21.2234  -41.8675 H         1 UNK         0.0600 
    147 H147        3.2160  -21.9422  -42.8340 H         1 UNK         0.0600 
    148 H148        2.5395  -20.3872  -43.3006 H         1 UNK         0.0600 
    149 H149        0.0607  -20.3817  -43.2951 H         1 UNK         0.3000 
    150 H150       -3.0728  -20.9926  -44.8946 H         1 UNK         0.0600 
    151 H151       -3.3616  -21.6840  -42.5106 H         1 UNK         0.0600 
    152 H152       -3.8743  -20.0223  -42.7643 H         1 UNK         0.0600 
    153 H153       -2.3265  -20.3582  -41.9922 H         1 UNK         0.0600 
    154 H154       -2.0824  -18.6107  -43.8051 H         1 UNK         0.3000 
    155 H155       -0.2986  -17.4532  -46.7161 H         1 UNK         0.0600 
    156 H156       -2.8882  -16.7497  -45.2257 H         1 UNK         0.0600 
    157 H157       -2.6262  -16.7832  -46.9591 H         1 UNK         0.0600 
    158 H158       -1.8612  -15.5424  -45.9772 H         1 UNK         0.0600 
    159 H159       -0.4842  -16.3533  -44.1022 H         1 UNK         0.3000 
    160 H160        2.3972  -17.9452  -42.7301 H         1 UNK         0.0600 
    161 H161        1.9464  -15.0306  -43.5563 H         1 UNK         0.0600 
    162 H162        3.3500  -16.0081  -43.9481 H         1 UNK         0.0600 
    163 H163        3.0250  -15.5799  -42.2752 H         1 UNK         0.0600 
    164 H164        0.4851  -16.0050  -41.7791 H         1 UNK         0.3000 
    165 H165       -1.7997  -18.3679  -40.3812 H         1 UNK         0.0600 
    166 H166       -1.2774  -17.0572  -38.3418 H         1 UNK         0.0600 
    167 H167        0.0457  -18.1524  -38.7084 H         1 UNK         0.0600 
    168 H168        0.2008  -16.4393  -39.0791 H         1 UNK         0.0600 
    169 H169       -1.6840  -15.5036  -40.3812 H         1 UNK         0.3000 
    170 H170       -3.3240  -14.9416  -43.4744 H         1 UNK         0.0600 
    171 H171       -5.2364  -15.4592  -41.9529 H         1 UNK         0.0600 
    172 H172       -4.4285  -14.6267  -40.6298 H         1 UNK         0.0600 
    173 H173       -4.9564  -13.7284  -42.0534 H         1 UNK         0.0600 
    174 H174       -2.5339  -13.1994  -41.3504 H         1 UNK         0.3000 
    175 H175       -0.7469  -11.7106  -41.8497 H         1 UNK         0.0600 
    176 H176        1.1488  -13.9539  -40.8955 H         1 UNK         0.0600 
    177 H177        1.0564  -12.3313  -40.2202 H         1 UNK         0.0600 
    178 H178       -0.2859  -13.4329  -40.0194 H         1 UNK         0.0600 
    179 H179        0.9278  -12.8588  -43.8199 H         1 UNK         0.3000 
    180 H180        3.2340  -10.1019  -43.9545 H         1 UNK         0.0600 
    181 H181        4.7308  -11.9909  -44.5983 H         1 UNK         0.0600 
    182 H182        3.6401  -13.1326  -43.8155 H         1 UNK         0.0600 
    183 H183        4.4811  -11.9225  -42.8600 H         1 UNK         0.0600 
    184 H184        2.4178  -12.1763  -45.8030 H         1 UNK         0.3000 
    185 H185       -0.0488  -10.3135  -47.4528 H         1 UNK         0.0600 
    186 H186        1.7915   -8.8041  -48.1969 H         1 UNK         0.0600 
    187 H187        2.8688  -10.1819  -48.3882 H         1 UNK         0.0600 
    188 H188        1.4453  -10.0176  -49.4176 H         1 UNK         0.0600 
    189 H189        1.7959  -12.3795  -48.3144 H         1 UNK         0.3000 
    190 H190       -0.4325  -20.5951  -48.0738 H         1 UNK         0.3000 
    191 H191       -1.0738  -21.8504  -50.6077 H         1 UNK         0.0600 
    192 H192       -1.4312  -19.4348  -50.2529 H         1 UNK         0.0600 
    193 H193       -2.9538  -20.2293  -50.6160 H         1 UNK         0.0600 
    194 H194       -2.5847  -19.7585  -48.9583 H         1 UNK         0.0600 
    195 H195       -2.3774  -22.0584  -47.2734 H         1 UNK         0.3000 
    196 H196       -4.5126  -23.9037  -48.1269 H         1 UNK         0.0600 
    197 H197       -5.2495  -23.9089  -45.8664 H         1 UNK         0.0600 
    198 H198       -4.8412  -22.2412  -46.2290 H         1 UNK         0.0600 
    199 H199       -3.7569  -23.2387  -45.2553 H         1 UNK         0.0600 
    200 H200       -1.2271  -24.0977  -46.8436 H         1 UNK         0.3000 
    201 H201       -1.1975  -26.9087  -46.3044 H         1 UNK         0.0600 
    202 H202        0.5485  -25.3380  -45.4726 H         1 UNK         0.0600 
    203 H203        1.0975  -25.0495  -47.1224 H         1 UNK         0.0600 
    204 H204        1.2636  -26.6442  -46.4052 H         1 UNK         0.0600 
    205 H205       -0.7036  -24.9976  -49.2725 H         1 UNK         0.3000 
    206 H206       -0.2401  -27.2462  -51.0273 H         1 UNK         0.0600 
    207 H207        0.5632  -24.9393  -51.5286 H         1 UNK         0.0600 
    208 H208       -0.5078  -25.5107  -52.7956 H         1 UNK         0.0600 
    209 H209       -1.0973  -24.3583  -51.6071 H         1 UNK         0.0600 
    210 H210       -2.9832  -26.4557  -49.3358 H         1 UNK         0.3000 
    211 H211       -5.0805  -27.0477  -49.3104 H         1 UNK         0.0600 
    212 H212       -4.5566  -28.8870  -51.6961 H         1 UNK         0.0600 
    213 H213       -5.8699  -29.0059  -50.5365 H         1 UNK         0.0600 
    214 H214       -4.2202  -29.2960  -50.0136 H         1 UNK         0.0600 
    215 H215       -4.1327  -24.8195  -51.2204 H         1 UNK         0.3000 
    216 H216       -6.4963  -24.5673  -52.9990 H         1 UNK         0.0600 
    217 H217       -4.2910  -23.9806  -53.9298 H         1 UNK         0.0600 
    218 H218       -4.0129  -22.8143  -52.6396 H         1 UNK         0.0600 
    219 H219       -5.2996  -22.5466  -53.8117 H         1 UNK         0.0600 
    220 H220       -4.8661  -22.8755  -50.3208 H         1 UNK         0.3000 
    221 H221       -5.4723  -21.5242  -48.6800 H         1 UNK         0.0600 
    222 H222       -8.2693  -22.7452  -48.9163 H         1 UNK         0.0600 
    223 H223       -6.9132  -23.5105  -48.0944 H         1 UNK         0.0600 
    224 H224       -7.5635  -21.9975  -47.4901 H         1 UNK         0.0600 
    225 H225       -5.9888  -20.5497  -51.5268 H         1 UNK         0.3000 
    226 H226       -8.0965  -18.5085  -51.1479 H         1 UNK         0.0600 
    227 H227       -8.0651  -19.9909  -53.1686 H         1 UNK         0.0600 
    228 H228       -7.8877  -18.3006  -53.6055 H         1 UNK         0.0600 
    229 H229       -6.4807  -19.3575  -53.6118 H         1 UNK         0.0600 
    230 H230       -4.9982  -18.5303  -50.2416 H         1 UNK         0.3000 
    231 H231       -3.2296  -17.2001  -50.0534 H         1 UNK         0.0600 
    232 H232       -3.4320  -14.7437  -50.0735 H         1 UNK         0.0600 
    233 H233       -4.7849  -15.4450  -49.2009 H         1 UNK         0.0600 
    234 H234       -5.0060  -14.8306  -50.8395 H         1 UNK         0.0600 
    235 H235       -3.7952  -18.6300  -52.4177 H         1 UNK         0.3000 
    236 H236       -1.8335  -17.8126  -54.2872 H         1 UNK         0.0600 
    237 H237       -3.6900  -16.3057  -55.0892 H         1 UNK         0.0600 
    238 H238       -3.4439  -17.6212  -56.2245 H         1 UNK         0.0600 
    239 H239       -4.8044  -17.6701  -55.1076 H         1 UNK         0.0600 
    240 H240       -1.6476  -19.6389  -55.8551 H         1 UNK         0.3000 
    241 H241       -2.7690  -22.1820  -54.7608 H         1 UNK         0.0600 
    242 H242       -3.6496  -21.5832  -58.5443 H         1 UNK         0.3800 
    243 H243       -3.4381  -20.3160  -57.3659 H         1 UNK         0.3800 
    244 H244       -0.6674  -23.2845  -55.2935 H         1 UNK         0.0800 
    245 H245       -0.0041  -21.8290  -55.9841 H         1 UNK         0.0800 
    246 H246        0.5471  -19.7146  -54.6950 H         1 UNK         0.0800 
    247 H247        1.9168  -20.7843  -54.5307 H         1 UNK         0.0800 
@<TRIPOS>BOND
     1    1    2 1    
     2    1  127 1    
     3    1  128 1    
     4    1  129 1    
     5    2    3 2    
     6    2    4 am   BACKBONE|DICT|INTERRES
     7    4    5 1    
     8    4  130 1    
     9    5    6 1    
    10    5   65 1    
    11    5  131 1    
    12    6    7 1    
    13    6  132 1    
    14    6  133 1    
    15    7    8 1    
    16    8    9 1    
    17    8  134 1    
    18    8  135 1    
    19    9   10 ar   
    20    9   14 ar   
    21   10   11 ar   
    22   10  136 1    
    23   11   12 ar   
    24   11  126 1    
    25   12   13 ar   
    26   12  137 1    
    27   13   14 ar   
    28   13   15 1    
    29   14  138 1    
    30   15   16 1    
    31   15  139 1    
    32   15  140 1    
    33   16   17 1    
    34   17   18 1    
    35   17  141 1    
    36   17  142 1    
    37   18   19 1    
    38   18   67 1    
    39   18  143 1    
    40   19   20 am   BACKBONE|DICT|INTERRES
    41   19  144 1    
    42   20   21 2    
    43   20   22 1    
    44   22   23 1    
    45   22   24 1    
    46   22  145 1    
    47   23  146 1    
    48   23  147 1    
    49   23  148 1    
    50   24   25 am   BACKBONE|DICT|INTERRES
    51   24  149 1    
    52   25   26 2    
    53   25   27 1    
    54   27   28 1    
    55   27   29 1    
    56   27  150 1    
    57   28  151 1    
    58   28  152 1    
    59   28  153 1    
    60   29   30 am   BACKBONE|DICT|INTERRES
    61   29  154 1    
    62   30   31 2    
    63   30   32 1    
    64   32   33 1    
    65   32   34 1    
    66   32  155 1    
    67   33  156 1    
    68   33  157 1    
    69   33  158 1    
    70   34   35 am   BACKBONE|DICT|INTERRES
    71   34  159 1    
    72   35   36 2    
    73   35   37 1    
    74   37   38 1    
    75   37   39 1    
    76   37  160 1    
    77   38  161 1    
    78   38  162 1    
    79   38  163 1    
    80   39   40 am   BACKBONE|DICT|INTERRES
    81   39  164 1    
    82   40   41 2    
    83   40   42 1    
    84   42   43 1    
    85   42   44 1    
    86   42  165 1    
    87   43  166 1    
    88   43  167 1    
    89   43  168 1    
    90   44   45 am   BACKBONE|DICT|INTERRES
    91   44  169 1    
    92   45   46 2    
    93   45   47 1    
    94   47   48 1    
    95   47   49 1    
    96   47  170 1    
    97   48  171 1    
    98   48  172 1    
    99   48  173 1    
   100   49   50 am   BACKBONE|DICT|INTERRES
   101   49  174 1    
   102   50   51 2    
   103   50   52 1    
   104   52   53 1    
   105   52   54 1    
   106   52  175 1    
   107   53  176 1    
   108   53  177 1    
   109   53  178 1    
   110   54   55 am   BACKBONE|DICT|INTERRES
   111   54  179 1    
   112   55   56 2    
   113   55   57 1    
   114   57   58 1    
   115   57   59 1    
   116   57  180 1    
   117   58  181 1    
   118   58  182 1    
   119   58  183 1    
   120   59   60 am   BACKBONE|DICT|INTERRES
   121   59  184 1    
   122   60   61 2    
   123   60   62 1    
   124   62   63 1    
   125   62   64 1    
   126   62  185 1    
   127   63  186 1    
   128   63  187 1    
   129   63  188 1    
   130   64   65 am   BACKBONE|DICT|INTERRES
   131   64  189 1    
   132   65   66 2    
   133   67   68 2    
   134   67   69 am   BACKBONE|DICT|INTERRES
   135   69   70 1    
   136   69  190 1    
   137   70   71 1    
   138   70   72 1    
   139   70  191 1    
   140   71  192 1    
   141   71  193 1    
   142   71  194 1    
   143   72   73 2    
   144   72   74 am   BACKBONE|DICT|INTERRES
   145   74   75 1    
   146   74  195 1    
   147   75   76 1    
   148   75   77 1    
   149   75  196 1    
   150   76  197 1    
   151   76  198 1    
   152   76  199 1    
   153   77   78 2    
   154   77   79 am   BACKBONE|DICT|INTERRES
   155   79   80 1    
   156   79  200 1    
   157   80   81 1    
   158   80   82 1    
   159   80  201 1    
   160   81  202 1    
   161   81  203 1    
   162   81  204 1    
   163   82   83 2    
   164   82   84 am   BACKBONE|DICT|INTERRES
   165   84   85 1    
   166   84  205 1    
   167   85   86 1    
   168   85   87 1    
   169   85  206 1    
   170   86  207 1    
   171   86  208 1    
   172   86  209 1    
   173   87   88 2    
   174   87   89 am   BACKBONE|DICT|INTERRES
   175   89   90 1    
   176   89  210 1    
   177   90   91 1    
   178   90   92 1    
   179   90  211 1    
   180   91  212 1    
   181   91  213 1    
   182   91  214 1    
   183   92   93 2    
   184   92   94 am   BACKBONE|DICT|INTERRES
   185   94   95 1    
   186   94  215 1    
   187   95   96 1    
   188   95   97 1    
   189   95  216 1    
   190   96  217 1    
   191   96  218 1    
   192   96  219 1    
   193   97   98 2    
   194   97   99 am   BACKBONE|DICT|INTERRES
   195   99  100 1    
   196   99  220 1    
   197  100  101 1    
   198  100  102 1    
   199  100  221 1    
   200  101  222 1    
   201  101  223 1    
   202  101  224 1    
   203  102  103 2    
   204  102  104 am   BACKBONE|DICT|INTERRES
   205  104  105 1    
   206  104  225 1    
   207  105  106 1    
   208  105  107 1    
   209  105  226 1    
   210  106  227 1    
   211  106  228 1    
   212  106  229 1    
   213  107  108 2    
   214  107  109 am   BACKBONE|DICT|INTERRES
   215  109  110 1    
   216  109  230 1    
   217  110  111 1    
   218  110  112 1    
   219  110  231 1    
   220  111  232 1    
   221  111  233 1    
   222  111  234 1    
   223  112  113 2    
   224  112  114 am   BACKBONE|DICT|INTERRES
   225  114  115 1    
   226  114  235 1    
   227  115  116 1    
   228  115  117 1    
   229  115  236 1    
   230  116  237 1    
   231  116  238 1    
   232  116  239 1    
   233  117  118 2    
   234  117  119 am   BACKBONE|DICT|INTERRES
   235  119  120 1    
   236  119  240 1    
   237  120  121 1    
   238  120  124 1    
   239  120  241 1    
   240  121  122 am   BACKBONE|DICT|INTERRES
   241  121  123 2    
   242  122  242 1    
   243  122  243 1    
   244  124  125 1    
   245  124  244 1    
   246  124  245 1    
   247  125  126 1    
   248  126  246 1    
   249  126  247 1    
@<TRIPOS>SUBSTRUCTURE
     1 UNK         1 GROUP             0       ****    0 ROOT    
