@<TRIPOS>MOLECULE
3R540
247   249    1
SMALL
USER_CHARGES


@<TRIPOS>ATOM
      1 CA          0.8670  -12.2222  -48.4207 C.3       0 UNK        -0.1800 
      2 C           2.1910  -12.1833  -49.1721 C.2       0 UNK         0.5000 
      3 O           2.5258  -11.1617  -49.7715 O.2       0 UNK        -0.5000 
      4 N           2.9415  -13.2928  -49.1476 N.am      1 UNK        -0.5000 
      5 CA          4.2473  -13.4466  -49.8053 C.3       1 UNK         0.1400 
      6 C6          4.6363  -14.9429  -49.9591 C.3       23 UNK        -0.0398 
      7 S7          5.0460  -15.8249  -48.4033 S.3       23 UNK        -0.2404 
      8 C8          3.4414  -16.4699  -47.8377 C.3       23 UNK        -0.0205 
      9 C9          2.9380  -17.6360  -48.6738 C.ar      23 UNK        -0.0193 
     10 C10         2.0255  -17.4221  -49.7099 C.ar      23 UNK        -0.1150 
     11 C11         1.4926  -18.4993  -50.4226 C.ar      23 UNK        -0.0193 
     12 C12         1.8801  -19.8006  -50.0899 C.ar      23 UNK        -0.1150 
     13 C13         2.8021  -20.0312  -49.0638 C.ar      23 UNK        -0.0193 
     14 C14         3.3390  -18.9398  -48.3708 C.ar      23 UNK        -0.1150 
     15 C15         3.1982  -21.4651  -48.7172 C.3       23 UNK        -0.0205 
     16 S16         3.2959  -21.8197  -46.9249 S.3       23 UNK        -0.2404 
     17 C17         1.6980  -21.1968  -46.2959 C.3       23 UNK        -0.0398 
     18 CA          0.6058  -22.2778  -46.1324 C.3       11 UNK         0.1400 
     19 N          -0.5116  -21.7728  -45.3350 N.am      11 UNK        -0.5000 
     20 C          -1.5479  -22.5004  -44.9006 C.2       10 UNK         0.5000 
     21 O          -1.6495  -23.7164  -45.0683 O.2       10 UNK        -0.5000 
     22 CA         -2.6783  -21.7269  -44.1949 C.3       10 UNK         0.1400 
     23 CB         -2.3206  -21.4531  -42.7266 C.3       10 UNK        -0.1800 
     24 N          -3.0062  -20.4635  -44.8610 N.am      10 UNK        -0.5000 
     25 C          -3.5070  -20.3726  -46.1020 C.2       9 UNK         0.5000 
     26 O          -3.7641  -21.3460  -46.8078 O.2       9 UNK        -0.5000 
     27 CA         -3.7211  -18.9579  -46.6674 C.3       9 UNK         0.1400 
     28 CB         -4.9706  -18.3141  -46.0461 C.3       9 UNK        -0.1800 
     29 N          -2.5653  -18.0823  -46.4699 N.am      9 UNK        -0.5000 
     30 C          -1.3294  -18.3235  -46.9328 C.2       8 UNK         0.5000 
     31 O          -1.0309  -19.3049  -47.6081 O.2       8 UNK        -0.5000 
     32 CA         -0.2221  -17.3451  -46.5057 C.3       8 UNK         0.1400 
     33 CB         -0.3096  -16.0310  -47.2942 C.3       8 UNK        -0.1800 
     34 N          -0.2602  -17.0560  -45.0736 N.am      8 UNK        -0.5000 
     35 C          -0.1362  -17.9657  -44.0971 C.2       7 UNK         0.5000 
     36 O           0.0863  -19.1596  -44.2922 O.2       7 UNK        -0.5000 
     37 CA         -0.3601  -17.4639  -42.6620 C.3       7 UNK         0.1400 
     38 CB          0.9005  -16.7835  -42.1075 C.3       7 UNK        -0.1800 
     39 N          -1.4929  -16.5420  -42.5898 N.am      7 UNK        -0.5000 
     40 C          -2.7732  -16.9088  -42.7403 C.2       6 UNK         0.5000 
     41 O          -3.1358  -18.0748  -42.9017 O.2       6 UNK        -0.5000 
     42 CA         -3.8163  -15.7755  -42.7462 C.3       6 UNK         0.1400 
     43 CB         -4.1948  -15.3799  -41.3112 C.3       6 UNK        -0.1800 
     44 N          -3.3546  -14.5890  -43.4711 N.am      6 UNK        -0.5000 
     45 C          -3.1739  -14.5420  -44.7985 C.2       5 UNK         0.5000 
     46 O          -3.4127  -15.4847  -45.5511 O.2       5 UNK        -0.5000 
     47 CA         -2.5905  -13.2404  -45.3826 C.3       5 UNK         0.1400 
     48 CB         -3.7155  -12.2490  -45.7138 C.3       5 UNK        -0.1800 
     49 N          -1.5996  -12.5833  -44.5235 N.am      5 UNK        -0.5000 
     50 C          -0.4616  -13.1455  -44.0949 C.2       4 UNK         0.5000 
     51 O          -0.1593  -14.3208  -44.3099 O.2       4 UNK        -0.5000 
     52 CA          0.4606  -12.2569  -43.2378 C.3       4 UNK         0.1400 
     53 CB         -0.0479  -12.2174  -41.7878 C.3       4 UNK        -0.1800 
     54 N           1.8521  -12.7152  -43.2285 N.am      4 UNK        -0.5000 
     55 C           2.6514  -12.7858  -44.3004 C.2       3 UNK         0.5000 
     56 O           2.3158  -12.4346  -45.4354 O.2       3 UNK        -0.5000 
     57 CA          4.0582  -13.3693  -44.0558 C.3       3 UNK         0.1400 
     58 CB          3.9840  -14.8938  -43.8688 C.3       3 UNK        -0.1800 
     59 N           4.9513  -13.0860  -45.1771 N.am      3 UNK        -0.5000 
     60 C           5.4699  -11.8838  -45.4703 C.2       2 UNK         0.5000 
     61 O           5.4093  -10.9033  -44.7277 O.2       2 UNK        -0.5000 
     62 CA          6.1046  -11.7568  -46.8622 C.3       2 UNK         0.1400 
     63 CB          7.5147  -12.3829  -46.8619 C.3       2 UNK        -0.1800 
     64 N           5.2055  -12.4158  -47.8080 N.am      2 UNK        -0.5000 
     65 C           5.3649  -12.6262  -49.1189 C.2       1 UNK         0.5000 
     66 O           6.3211  -12.2185  -49.7794 O.2       1 UNK        -0.5000 
     67 C           0.1203  -22.8186  -47.4917 C.2       11 UNK         0.5000 
     68 O           0.4376  -23.9536  -47.8421 O.2       11 UNK        -0.5000 
     69 N          -0.6713  -22.0172  -48.2148 N.am      12 UNK        -0.5000 
     70 CA         -1.2389  -22.3558  -49.5172 C.3       12 UNK         0.1400 
     71 CB         -1.8963  -21.1078  -50.1080 C.3       12 UNK        -0.1800 
     72 C          -2.2281  -23.5326  -49.4679 C.2       12 UNK         0.5000 
     73 O          -2.2469  -24.3396  -50.3998 O.2       12 UNK        -0.5000 
     74 N          -2.9969  -23.6397  -48.3740 N.am      13 UNK        -0.5000 
     75 CA         -3.8727  -24.7728  -48.0753 C.3       13 UNK         0.1400 
     76 CB         -4.6866  -24.4937  -46.8021 C.3       13 UNK        -0.1800 
     77 C          -3.0925  -26.0901  -47.9234 C.2       13 UNK         0.5000 
     78 O          -3.5143  -27.1108  -48.4653 O.2       13 UNK        -0.5000 
     79 N          -1.9581  -26.0401  -47.2142 N.am      14 UNK        -0.5000 
     80 CA         -1.0597  -27.1789  -47.0363 C.3       14 UNK         0.1400 
     81 CB         -0.0911  -26.8873  -45.8795 C.3       14 UNK        -0.1800 
     82 C          -0.2904  -27.5288  -48.3240 C.2       14 UNK         0.5000 
     83 O          -0.1514  -28.7092  -48.6468 O.2       14 UNK        -0.5000 
     84 N           0.2057  -26.5003  -49.0235 N.am      15 UNK        -0.5000 
     85 CA          1.0677  -26.6335  -50.1947 C.3       15 UNK         0.1400 
     86 CB          1.7944  -25.3024  -50.4471 C.3       15 UNK        -0.1800 
     87 C           0.3326  -27.0886  -51.4664 C.2       15 UNK         0.5000 
     88 O           0.8599  -27.9408  -52.1834 O.2       15 UNK        -0.5000 
     89 N          -0.8337  -26.4931  -51.7529 N.am      16 UNK        -0.5000 
     90 CA         -1.4961  -26.6124  -53.0566 C.3       16 UNK         0.1400 
     91 CB         -1.0429  -25.4341  -53.9403 C.3       16 UNK        -0.1800 
     92 C          -3.0311  -26.6822  -52.9752 C.2       16 UNK         0.5000 
     93 O          -3.6783  -26.6714  -54.0231 O.2       16 UNK        -0.5000 
     94 N          -3.5959  -26.7226  -51.7584 N.am      17 UNK        -0.5000 
     95 CA         -5.0339  -26.6470  -51.4550 C.3       17 UNK         0.1400 
     96 CB         -5.7993  -27.8523  -52.0406 C.3       17 UNK        -0.1800 
     97 C          -5.6775  -25.2930  -51.8325 C.2       17 UNK         0.5000 
     98 O          -6.9033  -25.1950  -51.9044 O.2       17 UNK        -0.5000 
     99 N          -4.8533  -24.2548  -52.0266 N.am      18 UNK        -0.5000 
    100 CA        -5.2571  -22.9021  -52.4102 C.3       18 UNK         0.1400 
    101 CB        -4.1733  -22.3024  -53.3226 C.3       18 UNK        -0.1800 
    102 C         -5.5553  -22.0491  -51.1625 C.2       18 UNK         0.5000 
    103 O         -4.9901  -20.9687  -50.9853 O.2       18 UNK        -0.5000 
    104 N         -6.4424  -22.5745  -50.3072 N.am      19 UNK        -0.5000 
    105 CA        -6.8070  -22.0298  -48.9976 C.3       19 UNK         0.1400 
    106 CB        -7.7307  -23.0326  -48.2896 C.3       19 UNK        -0.1800 
    107 C         -7.4645  -20.6383  -49.0404 C.2       19 UNK         0.5000 
    108 O         -7.4199  -19.9177  -48.0434 O.2       19 UNK        -0.5000 
    109 N         -8.0390  -20.2650  -50.1907 N.am      20 UNK        -0.5000 
    110 CA        -8.6192  -18.9519  -50.4714 C.3       20 UNK         0.1400 
    111 CB        -9.5945  -19.0908  -51.6543 C.3       20 UNK        -0.1800 
    112 C         -7.5298  -17.8842  -50.7181 C.2       20 UNK         0.5000 
    113 O         -7.4831  -17.2879  -51.7957 O.2       20 UNK        -0.5000 
    114 N         -6.6562  -17.6896  -49.7189 N.am      21 UNK        -0.5000 
    115 CA        -5.5616  -16.7139  -49.6518 C.3       21 UNK         0.1400 
    116 CB        -6.1292  -15.3110  -49.3572 C.3       21 UNK        -0.1800 
    117 C         -4.6312  -16.7438  -50.8823 C.2       21 UNK         0.5000 
    118 O         -4.3464  -15.6963  -51.4657 O.2       21 UNK        -0.5000 
    119 N         -4.2057  -17.9559  -51.2635 N.am      22 UNK        -0.5000 
    120 CA        -3.3667  -18.2575  -52.4377 C.3       22 UNK         0.1400 
    121 C         -4.1240  -18.2109  -53.8000 C.2       22 UNK         0.5000 
    122 N         -5.4312  -17.9796  -53.8446 N.am      22 UNK        -0.7600 
    123 O         -3.5178  -18.4228  -54.8467 O.2       22 UNK        -0.5000 
    124 C124       -2.0295  -17.4579  -52.4953 C.3       23 UNK        -0.0398 
    125 S125       -1.0544  -17.5414  -50.9529 S.3       23 UNK        -0.2404 
    126 C126        0.5074  -18.2537  -51.5563 C.3       23 UNK        -0.0205 
    127 H127        0.7573  -13.1370  -47.8395 H         1 UNK         0.0600 
    128 H128        0.0337  -12.1584  -49.1202 H         1 UNK         0.0600 
    129 H129        0.8022  -11.3802  -47.7314 H         1 UNK         0.0600 
    130 H130        2.6092  -14.0978  -48.6408 H         1 UNK         0.3000 
    131 H131        4.1443  -13.0406  -50.8141 H         1 UNK         0.0600 
    132 H132        3.8509  -15.4793  -50.4899 H         1 UNK         0.0800 
    133 H133        5.5110  -15.0184  -50.6072 H         1 UNK         0.0800 
    134 H134        3.5514  -16.7981  -46.8030 H         1 UNK         0.0800 
    135 H135        2.7024  -15.6713  -47.8123 H         1 UNK         0.0800 
    136 H136        1.7085  -16.4179  -49.9528 H         1 UNK         0.1150 
    137 H137        1.4618  -20.6369  -50.6319 H         1 UNK         0.1150 
    138 H138        4.0480  -19.1059  -47.5721 H         1 UNK         0.1150 
    139 H139        2.4997  -22.1718  -49.1678 H         1 UNK         0.0800 
    140 H140        4.1705  -21.6725  -49.1653 H         1 UNK         0.0800 
    141 H141        1.3346  -20.3664  -46.9003 H         1 UNK         0.0800 
    142 H142        1.9168  -20.7632  -45.3197 H         1 UNK         0.0800 
    143 H143        1.0372  -23.1155  -45.5804 H         1 UNK         0.0600 
    144 H144       -0.4890  -20.7811  -45.1118 H         1 UNK         0.3000 
    145 H145       -3.5710  -22.3554  -44.2158 H         1 UNK         0.0600 
    146 H146       -3.1486  -20.9754  -42.2024 H         1 UNK         0.0600 
    147 H147       -2.0929  -22.3808  -42.2002 H         1 UNK         0.0600 
    148 H148       -1.4505  -20.8018  -42.6380 H         1 UNK         0.0600 
    149 H149       -2.8438  -19.6125  -44.3339 H         1 UNK         0.3000 
    150 H150       -3.8827  -19.0546  -47.7430 H         1 UNK         0.0600 
    151 H151       -5.8435  -18.9552  -46.1670 H         1 UNK         0.0600 
    152 H152       -5.2025  -17.3566  -46.5107 H         1 UNK         0.0600 
    153 H153       -4.8449  -18.1389  -44.9780 H         1 UNK         0.0600 
    154 H154       -2.7354  -17.2225  -45.9553 H         1 UNK         0.3000 
    155 H155        0.7404  -17.8124  -46.7212 H         1 UNK         0.0600 
    156 H156       -0.1795  -16.2065  -48.3612 H         1 UNK         0.0600 
    157 H157        0.4615  -15.3308  -46.9757 H         1 UNK         0.0600 
    158 H158       -1.2753  -15.5456  -47.1648 H         1 UNK         0.0600 
    159 H159       -0.3900  -16.0819  -44.8091 H         1 UNK         0.3000 
    160 H160       -0.5808  -18.3305  -42.0350 H         1 UNK         0.0600 
    161 H161        1.1624  -15.8919  -42.6760 H         1 UNK         0.0600 
    162 H162        1.7562  -17.4588  -42.1447 H         1 UNK         0.0600 
    163 H163        0.7634  -16.4883  -41.0672 H         1 UNK         0.0600 
    164 H164       -1.2728  -15.5586  -42.5353 H         1 UNK         0.3000 
    165 H165       -4.7130  -16.1519  -43.2432 H         1 UNK         0.0600 
    166 H166       -4.9891  -14.6332  -41.3049 H         1 UNK         0.0600 
    167 H167       -4.5574  -16.2434  -40.7517 H         1 UNK         0.0600 
    168 H168       -3.3434  -14.9696  -40.7666 H         1 UNK         0.0600 
    169 H169       -3.1359  -13.7699  -42.9239 H         1 UNK         0.3000 
    170 H170       -2.0870  -13.4987  -46.3157 H         1 UNK         0.0600 
    171 H171       -4.4566  -12.7051  -46.3719 H         1 UNK         0.0600 
    172 H172       -4.2354  -11.9144  -44.8153 H         1 UNK         0.0600 
    173 H173       -3.3276  -11.3684  -46.2262 H         1 UNK         0.0600 
    174 H174       -1.7859  -11.6196  -44.2861 H         1 UNK         0.3000 
    175 H175        0.4429  -11.2456  -43.6491 H         1 UNK         0.0600 
    176 H176       -0.0374  -13.2082  -41.3310 H         1 UNK         0.0600 
    177 H177        0.5649  -11.5582  -41.1726 H         1 UNK         0.0600 
    178 H178       -1.0714  -11.8437  -41.7370 H         1 UNK         0.0600 
    179 H179        2.2001  -13.0516  -42.3432 H         1 UNK         0.3000 
    180 H180        4.4752  -12.9180  -43.1531 H         1 UNK         0.0600 
    181 H181        3.4858  -15.3799  -44.7086 H         1 UNK         0.0600 
    182 H182        3.4302  -15.1501  -42.9657 H         1 UNK         0.0600 
    183 H183        4.9779  -15.3303  -43.7685 H         1 UNK         0.0600 
    184 H184        5.0772  -13.8345  -45.8421 H         1 UNK         0.3000 
    185 H185        6.1725  -10.6989  -47.1214 H         1 UNK         0.0600 
    186 H186        8.1248  -11.9683  -46.0584 H         1 UNK         0.0600 
    187 H187        7.4766  -13.4638  -46.7220 H         1 UNK         0.0600 
    188 H188        8.0435  -12.1847  -47.7936 H         1 UNK         0.0600 
    189 H189        4.3332  -12.7258  -47.3999 H         1 UNK         0.3000 
    190 H190       -0.8719  -21.0776  -47.8734 H         1 UNK         0.3000 
    191 H191       -0.4150  -22.6441  -50.1720 H         1 UNK         0.0600 
    192 H192       -1.1774  -20.2951  -50.1803 H         1 UNK         0.0600 
    193 H193       -2.2706  -21.2958  -51.1110 H         1 UNK         0.0600 
    194 H194       -2.7298  -20.7612  -49.4960 H         1 UNK         0.0600 
    195 H195       -2.9815  -22.8859  -47.6924 H         1 UNK         0.3000 
    196 H196       -4.5696  -24.8775  -48.9077 H         1 UNK         0.0600 
    197 H197       -5.4032  -25.2944  -46.6162 H         1 UNK         0.0600 
    198 H198       -5.2503  -23.5665  -46.8785 H         1 UNK         0.0600 
    199 H199       -4.0494  -24.4162  -45.9218 H         1 UNK         0.0600 
    200 H200       -1.6825  -25.1643  -46.7852 H         1 UNK         0.3000 
    201 H201       -1.6595  -28.0487  -46.7596 H         1 UNK         0.0600 
    202 H202       -0.6320  -26.7020  -44.9513 H         1 UNK         0.0600 
    203 H203        0.5307  -26.0146  -46.0812 H         1 UNK         0.0600 
    204 H204        0.5754  -27.7329  -45.7057 H         1 UNK         0.0600 
    205 H205        0.1008  -25.5612  -48.6442 H         1 UNK         0.3000 
    206 H206        1.8268  -27.3852  -49.9677 H         1 UNK         0.0600 
    207 H207        2.3982  -25.0132  -49.5867 H         1 UNK         0.0600 
    208 H208        2.4653  -25.3781  -51.3038 H         1 UNK         0.0600 
    209 H209        1.0927  -24.4931  -50.6500 H         1 UNK         0.0600 
    210 H210       -1.2008  -25.7821  -51.1255 H         1 UNK         0.3000 
    211 H211       -1.1947  -27.5409  -53.5456 H         1 UNK         0.0600 
    212 H212       -1.3396  -24.4769  -53.5094 H         1 UNK         0.0600 
    213 H213       -1.4765  -25.4946  -54.9393 H         1 UNK         0.0600 
    214 H214        0.0403  -25.4248  -54.0620 H         1 UNK         0.0600 
    215 H215       -2.9860  -26.7362  -50.9522 H         1 UNK         0.3000 
    216 H216       -5.1260  -26.7175  -50.3733 H         1 UNK         0.0600 
    217 H217       -6.8209  -27.8870  -51.6605 H         1 UNK         0.0600 
    218 H218       -5.3218  -28.7930  -51.7666 H         1 UNK         0.0600 
    219 H219       -5.8614  -27.8099  -53.1281 H         1 UNK         0.0600 
    220 H220       -3.8669  -24.3936  -51.8433 H         1 UNK         0.3000 
    221 H221       -6.1810  -22.9457  -52.9906 H         1 UNK         0.0600 
    222 H222       -3.1919  -22.3155  -52.8520 H         1 UNK         0.0600 
    223 H223       -4.0958  -22.8659  -54.2525 H         1 UNK         0.0600 
    224 H224       -4.4057  -21.2712  -53.5901 H         1 UNK         0.0600 
    225 H225       -6.8661  -23.4580  -50.5632 H         1 UNK         0.3000 
    226 H226       -5.8866  -21.9299  -48.4203 H         1 UNK         0.0600 
    227 H227       -7.2721  -24.0190  -48.2220 H         1 UNK         0.0600 
    228 H228       -7.9534  -22.7071  -47.2726 H         1 UNK         0.0600 
    229 H229       -8.6799  -23.1430  -48.8154 H         1 UNK         0.0600 
    230 H230       -8.0017  -20.9119  -50.9640 H         1 UNK         0.3000 
    231 H231       -9.1960  -18.6294  -49.6020 H         1 UNK         0.0600 
    232 H232       -9.0848  -19.4194  -52.5609 H         1 UNK         0.0600 
    233 H233      -10.0796  -18.1392  -51.8755 H         1 UNK         0.0600 
    234 H234      -10.3827  -19.8106  -51.4328 H         1 UNK         0.0600 
    235 H235       -6.7724  -18.2830  -48.9025 H         1 UNK         0.3000 
    236 H236       -4.9379  -16.9993  -48.8051 H         1 UNK         0.0600 
    237 H237       -6.7307  -15.3131  -48.4482 H         1 UNK         0.0600 
    238 H238       -5.3276  -14.5859  -49.2113 H         1 UNK         0.0600 
    239 H239       -6.7559  -14.9511  -50.1741 H         1 UNK         0.0600 
    240 H240       -4.5404  -18.7738  -50.7686 H         1 UNK         0.3000 
    241 H241       -3.0981  -19.3068  -52.3168 H         1 UNK         0.0600 
    242 H242       -5.9626  -17.7688  -53.0068 H         1 UNK         0.3800 
    243 H243       -5.8952  -17.9656  -54.7385 H         1 UNK         0.3800 
    244 H244       -1.4143  -17.8250  -53.3182 H         1 UNK         0.0800 
    245 H245       -2.2159  -16.4076  -52.7210 H         1 UNK         0.0800 
    246 H246        0.9583  -17.5750  -52.2816 H         1 UNK         0.0800 
    247 H247        0.2946  -19.1830  -52.0870 H         1 UNK         0.0800 
@<TRIPOS>BOND
     1    1    2 1    
     2    1  127 1    
     3    1  128 1    
     4    1  129 1    
     5    2    3 2    
     6    2    4 am   BACKBONE|DICT|INTERRES
     7    4    5 1    
     8    4  130 1    
     9    5    6 1    
    10    5   65 1    
    11    5  131 1    
    12    6    7 1    
    13    6  132 1    
    14    6  133 1    
    15    7    8 1    
    16    8    9 1    
    17    8  134 1    
    18    8  135 1    
    19    9   10 ar   
    20    9   14 ar   
    21   10   11 ar   
    22   10  136 1    
    23   11   12 ar   
    24   11  126 1    
    25   12   13 ar   
    26   12  137 1    
    27   13   14 ar   
    28   13   15 1    
    29   14  138 1    
    30   15   16 1    
    31   15  139 1    
    32   15  140 1    
    33   16   17 1    
    34   17   18 1    
    35   17  141 1    
    36   17  142 1    
    37   18   19 1    
    38   18   67 1    
    39   18  143 1    
    40   19   20 am   BACKBONE|DICT|INTERRES
    41   19  144 1    
    42   20   21 2    
    43   20   22 1    
    44   22   23 1    
    45   22   24 1    
    46   22  145 1    
    47   23  146 1    
    48   23  147 1    
    49   23  148 1    
    50   24   25 am   BACKBONE|DICT|INTERRES
    51   24  149 1    
    52   25   26 2    
    53   25   27 1    
    54   27   28 1    
    55   27   29 1    
    56   27  150 1    
    57   28  151 1    
    58   28  152 1    
    59   28  153 1    
    60   29   30 am   BACKBONE|DICT|INTERRES
    61   29  154 1    
    62   30   31 2    
    63   30   32 1    
    64   32   33 1    
    65   32   34 1    
    66   32  155 1    
    67   33  156 1    
    68   33  157 1    
    69   33  158 1    
    70   34   35 am   BACKBONE|DICT|INTERRES
    71   34  159 1    
    72   35   36 2    
    73   35   37 1    
    74   37   38 1    
    75   37   39 1    
    76   37  160 1    
    77   38  161 1    
    78   38  162 1    
    79   38  163 1    
    80   39   40 am   BACKBONE|DICT|INTERRES
    81   39  164 1    
    82   40   41 2    
    83   40   42 1    
    84   42   43 1    
    85   42   44 1    
    86   42  165 1    
    87   43  166 1    
    88   43  167 1    
    89   43  168 1    
    90   44   45 am   BACKBONE|DICT|INTERRES
    91   44  169 1    
    92   45   46 2    
    93   45   47 1    
    94   47   48 1    
    95   47   49 1    
    96   47  170 1    
    97   48  171 1    
    98   48  172 1    
    99   48  173 1    
   100   49   50 am   BACKBONE|DICT|INTERRES
   101   49  174 1    
   102   50   51 2    
   103   50   52 1    
   104   52   53 1    
   105   52   54 1    
   106   52  175 1    
   107   53  176 1    
   108   53  177 1    
   109   53  178 1    
   110   54   55 am   BACKBONE|DICT|INTERRES
   111   54  179 1    
   112   55   56 2    
   113   55   57 1    
   114   57   58 1    
   115   57   59 1    
   116   57  180 1    
   117   58  181 1    
   118   58  182 1    
   119   58  183 1    
   120   59   60 am   BACKBONE|DICT|INTERRES
   121   59  184 1    
   122   60   61 2    
   123   60   62 1    
   124   62   63 1    
   125   62   64 1    
   126   62  185 1    
   127   63  186 1    
   128   63  187 1    
   129   63  188 1    
   130   64   65 am   BACKBONE|DICT|INTERRES
   131   64  189 1    
   132   65   66 2    
   133   67   68 2    
   134   67   69 am   BACKBONE|DICT|INTERRES
   135   69   70 1    
   136   69  190 1    
   137   70   71 1    
   138   70   72 1    
   139   70  191 1    
   140   71  192 1    
   141   71  193 1    
   142   71  194 1    
   143   72   73 2    
   144   72   74 am   BACKBONE|DICT|INTERRES
   145   74   75 1    
   146   74  195 1    
   147   75   76 1    
   148   75   77 1    
   149   75  196 1    
   150   76  197 1    
   151   76  198 1    
   152   76  199 1    
   153   77   78 2    
   154   77   79 am   BACKBONE|DICT|INTERRES
   155   79   80 1    
   156   79  200 1    
   157   80   81 1    
   158   80   82 1    
   159   80  201 1    
   160   81  202 1    
   161   81  203 1    
   162   81  204 1    
   163   82   83 2    
   164   82   84 am   BACKBONE|DICT|INTERRES
   165   84   85 1    
   166   84  205 1    
   167   85   86 1    
   168   85   87 1    
   169   85  206 1    
   170   86  207 1    
   171   86  208 1    
   172   86  209 1    
   173   87   88 2    
   174   87   89 am   BACKBONE|DICT|INTERRES
   175   89   90 1    
   176   89  210 1    
   177   90   91 1    
   178   90   92 1    
   179   90  211 1    
   180   91  212 1    
   181   91  213 1    
   182   91  214 1    
   183   92   93 2    
   184   92   94 am   BACKBONE|DICT|INTERRES
   185   94   95 1    
   186   94  215 1    
   187   95   96 1    
   188   95   97 1    
   189   95  216 1    
   190   96  217 1    
   191   96  218 1    
   192   96  219 1    
   193   97   98 2    
   194   97   99 am   BACKBONE|DICT|INTERRES
   195   99  100 1    
   196   99  220 1    
   197  100  101 1    
   198  100  102 1    
   199  100  221 1    
   200  101  222 1    
   201  101  223 1    
   202  101  224 1    
   203  102  103 2    
   204  102  104 am   BACKBONE|DICT|INTERRES
   205  104  105 1    
   206  104  225 1    
   207  105  106 1    
   208  105  107 1    
   209  105  226 1    
   210  106  227 1    
   211  106  228 1    
   212  106  229 1    
   213  107  108 2    
   214  107  109 am   BACKBONE|DICT|INTERRES
   215  109  110 1    
   216  109  230 1    
   217  110  111 1    
   218  110  112 1    
   219  110  231 1    
   220  111  232 1    
   221  111  233 1    
   222  111  234 1    
   223  112  113 2    
   224  112  114 am   BACKBONE|DICT|INTERRES
   225  114  115 1    
   226  114  235 1    
   227  115  116 1    
   228  115  117 1    
   229  115  236 1    
   230  116  237 1    
   231  116  238 1    
   232  116  239 1    
   233  117  118 2    
   234  117  119 am   BACKBONE|DICT|INTERRES
   235  119  120 1    
   236  119  240 1    
   237  120  121 1    
   238  120  124 1    
   239  120  241 1    
   240  121  122 am   BACKBONE|DICT|INTERRES
   241  121  123 2    
   242  122  242 1    
   243  122  243 1    
   244  124  125 1    
   245  124  244 1    
   246  124  245 1    
   247  125  126 1    
   248  126  246 1    
   249  126  247 1    
@<TRIPOS>SUBSTRUCTURE
     1 UNK         1 GROUP             0       ****    0 ROOT    
