@<TRIPOS>MOLECULE
3R540
247   249    1
SMALL
USER_CHARGES


@<TRIPOS>ATOM
      1 CA         -0.3091   -9.7890  -45.5021 C.3       0 UNK        -0.1800 
      2 C          -1.1830  -11.0001  -45.7949 C.2       0 UNK         0.5000 
      3 O          -2.4048  -10.8710  -45.8631 O.2       0 UNK        -0.5000 
      4 N          -0.5584  -12.1750  -45.9605 N.am      1 UNK        -0.5000 
      5 CA         -1.2017  -13.4678  -46.2451 C.3       1 UNK         0.1400 
      6 C6         -1.9786  -13.4680  -47.5945 C.3       23 UNK        -0.0398 
      7 S7         -1.8788  -15.0682  -48.4630 S.3       23 UNK        -0.2404 
      8 C8         -0.3692  -14.8202  -49.4437 C.3       23 UNK        -0.0205 
      9 C9          0.1701  -16.1412  -49.9651 C.ar      23 UNK        -0.0193 
     10 C10        -0.0741  -16.5441  -51.2813 C.ar      23 UNK        -0.1150 
     11 C11         0.4563  -17.7448  -51.7650 C.ar      23 UNK        -0.0193 
     12 C12         1.2194  -18.5526  -50.9164 C.ar      23 UNK        -0.1150 
     13 C13         1.4605  -18.1625  -49.5956 C.ar      23 UNK        -0.0193 
     14 C14         0.9385  -16.9541  -49.1287 C.ar      23 UNK        -0.1150 
     15 C15         2.2975  -19.0303  -48.6703 C.3       23 UNK        -0.0205 
     16 S16         1.2680  -19.8738  -47.4322 S.3       23 UNK        -0.2404 
     17 C17         0.4985  -21.1739  -48.4618 C.3       23 UNK        -0.0398 
     18 CA         -0.5990  -21.9960  -47.7369 C.3       11 UNK         0.1400 
     19 N          -0.1960  -22.4562  -46.4050 N.am      11 UNK        -0.5000 
     20 C           0.5710  -23.5384  -46.2095 C.2       10 UNK         0.5000 
     21 O           0.8614  -24.3260  -47.1114 O.2       10 UNK        -0.5000 
     22 CA          1.1531  -23.7857  -44.8034 C.3       10 UNK         0.1400 
     23 CB          2.6856  -23.9113  -44.8682 C.3       10 UNK        -0.1800 
     24 N           0.8322  -22.7200  -43.8557 N.am      10 UNK        -0.5000 
     25 C          -0.0613  -22.8103  -42.8643 C.2       9 UNK         0.5000 
     26 O          -0.7590  -23.8033  -42.6573 O.2       9 UNK        -0.5000 
     27 CA         -0.1999  -21.5816  -41.9421 C.3       9 UNK         0.1400 
     28 CB          0.6034  -21.7912  -40.6498 C.3       9 UNK        -0.1800 
     29 N           0.2137  -20.3137  -42.5503 N.am      9 UNK        -0.5000 
     30 C          -0.3493  -19.7397  -43.6174 C.2       8 UNK         0.5000 
     31 O          -1.2392  -20.2769  -44.2754 O.2       8 UNK        -0.5000 
     32 CA          0.1745  -18.3566  -44.0462 C.3       8 UNK         0.1400 
     33 CB         -0.3405  -17.2454  -43.1150 C.3       8 UNK        -0.1800 
     34 N           1.6257  -18.2666  -44.2251 N.am      8 UNK        -0.5000 
     35 C           2.6189  -18.4160  -43.3398 C.2       7 UNK         0.5000 
     36 O           2.4573  -18.7186  -42.1569 O.2       7 UNK        -0.5000 
     37 CA          4.0422  -18.1643  -43.8694 C.3       7 UNK         0.1400 
     38 CB          4.4446  -19.1785  -44.9585 C.3       7 UNK        -0.1800 
     39 N           4.2444  -16.7765  -44.3007 N.am      7 UNK        -0.5000 
     40 C           3.6671  -16.1122  -45.3154 C.2       6 UNK         0.5000 
     41 O           2.9370  -16.6467  -46.1501 O.2       6 UNK        -0.5000 
     42 CA          3.9088  -14.5903  -45.3916 C.3       6 UNK         0.1400 
     43 CB          2.6112  -13.8365  -45.7341 C.3       6 UNK        -0.1800 
     44 N           4.4158  -14.0749  -44.1200 N.am      6 UNK        -0.5000 
     45 C           5.6469  -13.5930  -43.9036 C.2       5 UNK         0.5000 
     46 O           6.4917  -13.4489  -44.7876 O.2       5 UNK        -0.5000 
     47 CA          6.0095  -13.2317  -42.4464 C.3       5 UNK         0.1400 
     48 CB          5.8447  -11.7223  -42.2127 C.3       5 UNK        -0.1800 
     49 N           5.2176  -13.9532  -41.4455 N.am      5 UNK        -0.5000 
     50 C           5.2182  -15.2820  -41.2668 C.2       4 UNK         0.5000 
     51 O           5.9523  -16.0506  -41.8876 O.2       4 UNK        -0.5000 
     52 CA          4.1823  -15.8584  -40.2812 C.3       4 UNK         0.1400 
     53 CB          4.8298  -16.1150  -38.9125 C.3       4 UNK        -0.1800 
     54 N           2.9902  -15.0219  -40.0991 N.am      4 UNK        -0.5000 
     55 C           2.1301  -14.6706  -41.0642 C.2       3 UNK         0.5000 
     56 O           2.2671  -14.9645  -42.2553 O.2       3 UNK        -0.5000 
     57 CA          0.9505  -13.7939  -40.6308 C.3       3 UNK         0.1400 
     58 CB          1.3810  -12.3205  -40.5150 C.3       3 UNK        -0.1800 
     59 N          -0.1123  -13.9184  -41.6207 N.am      3 UNK        -0.5000 
     60 C          -1.4170  -13.7371  -41.3855 C.2       2 UNK         0.5000 
     61 O          -1.8675  -13.4290  -40.2808 O.2       2 UNK        -0.5000 
     62 CA         -2.3690  -13.9108  -42.5840 C.3       2 UNK         0.1400 
     63 CB         -3.6734  -13.1017  -42.4328 C.3       2 UNK        -0.1800 
     64 N          -1.7003  -13.5497  -43.8344 N.am      2 UNK        -0.5000 
     65 C          -2.0265  -14.0099  -45.0491 C.2       1 UNK         0.5000 
     66 O          -2.9260  -14.8291  -45.2351 O.2       1 UNK        -0.5000 
     67 C          -1.9648  -21.2960  -47.6994 C.2       11 UNK         0.5000 
     68 O          -2.9354  -21.8436  -48.2204 O.2       11 UNK        -0.5000 
     69 N          -2.0417  -20.1192  -47.0695 N.am      12 UNK        -0.5000 
     70 CA         -3.2690  -19.3303  -46.9318 C.3       12 UNK         0.1400 
     71 CB         -2.9391  -17.9764  -46.2899 C.3       12 UNK        -0.1800 
     72 C          -4.3527  -20.0663  -46.1233 C.2       12 UNK         0.5000 
     73 O          -5.5068  -20.1160  -46.5482 O.2       12 UNK        -0.5000 
     74 N          -3.9405  -20.6853  -45.0089 N.am      13 UNK        -0.5000 
     75 CA         -4.7823  -21.5225  -44.1512 C.3       13 UNK         0.1400 
     76 CB         -4.0463  -21.7744  -42.8282 C.3       13 UNK        -0.1800 
     77 C          -5.1735  -22.8599  -44.8114 C.2       13 UNK         0.5000 
     78 O          -6.2092  -23.4283  -44.4655 O.2       13 UNK        -0.5000 
     79 N          -4.3513  -23.3238  -45.7623 N.am      14 UNK        -0.5000 
     80 CA         -4.5972  -24.5055  -46.5908 C.3       14 UNK         0.1400 
     81 CB         -3.2426  -25.1072  -47.0026 C.3       14 UNK        -0.1800 
     82 C          -5.4640  -24.1942  -47.8308 C.2       14 UNK         0.5000 
     83 O          -5.8135  -25.1212  -48.5623 O.2       14 UNK        -0.5000 
     84 N          -5.7871  -22.9087  -48.0460 N.am      15 UNK        -0.5000 
     85 CA         -6.5459  -22.3449  -49.1641 C.3       15 UNK         0.1400 
     86 CB         -8.0032  -22.8506  -49.1536 C.3       15 UNK        -0.1800 
     87 C          -5.8444  -22.5380  -50.5242 C.2       15 UNK         0.5000 
     88 O          -6.5078  -22.8081  -51.5269 O.2       15 UNK        -0.5000 
     89 N          -4.5132  -22.3685  -50.5457 N.am      16 UNK        -0.5000 
     90 CA         -3.6464  -22.5411  -51.7176 C.3       16 UNK         0.1400 
     91 CB         -2.1878  -22.2680  -51.3207 C.3       16 UNK        -0.1800 
     92 C          -4.0300  -21.6831  -52.9377 C.2       16 UNK         0.5000 
     93 O          -3.8263  -22.1203  -54.0707 O.2       16 UNK        -0.5000 
     94 N          -4.5968  -20.4954  -52.6916 N.am      17 UNK        -0.5000 
     95 CA         -5.0936  -19.5903  -53.7268 C.3       17 UNK         0.1400 
     96 CB         -5.3255  -18.2022  -53.1124 C.3       17 UNK        -0.1800 
     97 C          -6.3738  -20.1075  -54.4114 C.2       17 UNK         0.5000 
     98 O          -6.5472  -19.8876  -55.6101 O.2       17 UNK        -0.5000 
     99 N          -7.2355  -20.7965  -53.6500 N.am      18 UNK        -0.5000 
    100 CA        -8.4739  -21.4036  -54.1421 C.3       18 UNK         0.1400 
    101 CB        -9.4774  -21.5280  -52.9858 C.3       18 UNK        -0.1800 
    102 C         -8.2115  -22.7768  -54.7825 C.2       18 UNK         0.5000 
    103 O         -8.8290  -23.1066  -55.7953 O.2       18 UNK        -0.5000 
    104 N         -7.2773  -23.5384  -54.1961 N.am      19 UNK        -0.5000 
    105 CA        -6.8152  -24.8398  -54.6845 C.3       19 UNK         0.1400 
    106 CB        -6.0459  -25.5394  -53.5529 C.3       19 UNK        -0.1800 
    107 C         -5.9369  -24.7489  -55.9501 C.2       19 UNK         0.5000 
    108 O         -5.6914  -25.7751  -56.5844 O.2       19 UNK        -0.5000 
    109 N         -5.4660  -23.5350  -56.2735 N.am      20 UNK        -0.5000 
    110 CA        -4.5640  -23.1743  -57.3728 C.3       20 UNK         0.1400 
    111 CB        -5.1615  -23.5433  -58.7462 C.3       20 UNK        -0.1800 
    112 C         -3.1233  -23.6942  -57.1850 C.2       20 UNK         0.5000 
    113 O         -2.3460  -23.7084  -58.1408 O.2       20 UNK        -0.5000 
    114 N         -2.7614  -24.0436  -55.9428 N.am      21 UNK        -0.5000 
    115 CA        -1.4034  -24.3967  -55.5240 C.3       21 UNK         0.1400 
    116 CB        -1.4542  -25.0300  -54.1264 C.3       21 UNK        -0.1800 
    117 C         -0.4465  -23.1875  -55.5571 C.2       21 UNK         0.5000 
    118 O          0.7594  -23.3738  -55.7228 O.2       21 UNK        -0.5000 
    119 N         -1.0074  -21.9740  -55.4583 N.am      22 UNK        -0.5000 
    120 CA        -0.3316  -20.7042  -55.7701 C.3       22 UNK         0.1400 
    121 C          0.0068  -20.5029  -57.2811 C.2       22 UNK         0.5000 
    122 N         -0.4784  -21.3217  -58.2085 N.am      22 UNK        -0.7600 
    123 O          0.7390  -19.5778  -57.6216 O.2       22 UNK        -0.5000 
    124 C124       -1.1295  -19.4886  -55.2301 C.3       23 UNK        -0.0398 
    125 S125       -1.0922  -19.3624  -53.4105 S.3       23 UNK        -0.2404 
    126 C126        0.2461  -18.1452  -53.2163 C.3       23 UNK        -0.0205 
    127 H127       -0.5851   -9.3505  -44.5431 H         1 UNK         0.0600 
    128 H128       -0.4449   -9.0330  -46.2754 H         1 UNK         0.0600 
    129 H129        0.7488  -10.0503  -45.4643 H         1 UNK         0.0600 
    130 H130        0.4496  -12.1985  -45.9024 H         1 UNK         0.3000 
    131 H131       -0.3676  -14.1640  -46.3428 H         1 UNK         0.0600 
    132 H132       -3.0275  -13.2044  -47.4477 H         1 UNK         0.0800 
    133 H133       -1.5818  -12.7039  -48.2644 H         1 UNK         0.0800 
    134 H134       -0.5804  -14.1372  -50.2680 H         1 UNK         0.0800 
    135 H135        0.3942  -14.3385  -48.8306 H         1 UNK         0.0800 
    136 H136       -0.6631  -15.9150  -51.9340 H         1 UNK         0.1150 
    137 H137        1.6300  -19.4807  -51.2886 H         1 UNK         0.1150 
    138 H138        1.1285  -16.6484  -48.1091 H         1 UNK         0.1150 
    139 H139        3.0286  -18.4043  -48.1580 H         1 UNK         0.0800 
    140 H140        2.8712  -19.7668  -49.2349 H         1 UNK         0.0800 
    141 H141        1.2939  -21.8482  -48.7820 H         1 UNK         0.0800 
    142 H142        0.1029  -20.7308  -49.3773 H         1 UNK         0.0800 
    143 H143       -0.7724  -22.8800  -48.3546 H         1 UNK         0.0600 
    144 H144       -0.4343  -21.8604  -45.6219 H         1 UNK         0.3000 
    145 H145        0.7508  -24.7393  -44.4557 H         1 UNK         0.0600 
    146 H146        2.9884  -24.7343  -45.5168 H         1 UNK         0.0600 
    147 H147        3.1064  -24.1089  -43.8821 H         1 UNK         0.0600 
    148 H148        3.1475  -23.0014  -45.2539 H         1 UNK         0.0600 
    149 H149        1.3510  -21.8593  -43.9511 H         1 UNK         0.3000 
    150 H150       -1.2541  -21.4906  -41.6755 H         1 UNK         0.0600 
    151 H151        1.6739  -21.8541  -40.8495 H         1 UNK         0.0600 
    152 H152        0.3067  -22.7131  -40.1477 H         1 UNK         0.0600 
    153 H153        0.4410  -20.9732  -39.9477 H         1 UNK         0.0600 
    154 H154        0.9851  -19.8161  -42.1106 H         1 UNK         0.3000 
    155 H155       -0.2408  -18.1637  -45.0358 H         1 UNK         0.0600 
    156 H156        0.0679  -17.3324  -42.1077 H         1 UNK         0.0600 
    157 H157       -1.4277  -17.2748  -43.0337 H         1 UNK         0.0600 
    158 H158       -0.0698  -16.2630  -43.5010 H         1 UNK         0.0600 
    159 H159        1.9184  -17.9700  -45.1527 H         1 UNK         0.3000 
    160 H160        4.7194  -18.3132  -43.0271 H         1 UNK         0.0600 
    161 H161        3.8238  -19.1016  -45.8503 H         1 UNK         0.0600 
    162 H162        4.3528  -20.2004  -44.5890 H         1 UNK         0.0600 
    163 H163        5.4813  -19.0349  -45.2626 H         1 UNK         0.0600 
    164 H164        4.8285  -16.2361  -43.6741 H         1 UNK         0.3000 
    165 H165        4.6284  -14.4206  -46.1945 H         1 UNK         0.0600 
    166 H166        2.2218  -14.1430  -46.7059 H         1 UNK         0.0600 
    167 H167        1.8357  -14.0245  -44.9904 H         1 UNK         0.0600 
    168 H168        2.7833  -12.7611  -45.7786 H         1 UNK         0.0600 
    169 H169        3.7879  -14.1923  -43.3307 H         1 UNK         0.3000 
    170 H170        7.0591  -13.4920  -42.2951 H         1 UNK         0.0600 
    171 H171        6.1729  -11.4391  -41.2125 H         1 UNK         0.0600 
    172 H172        4.8063  -11.4087  -42.3280 H         1 UNK         0.0600 
    173 H173        6.4417  -11.1490  -42.9233 H         1 UNK         0.0600 
    174 H174        4.5816  -13.4005  -40.8902 H         1 UNK         0.3000 
    175 H175        3.8508  -16.8163  -40.6864 H         1 UNK         0.0600 
    176 H176        5.7059  -16.7578  -39.0085 H         1 UNK         0.0600 
    177 H177        5.1536  -15.1868  -38.4400 H         1 UNK         0.0600 
    178 H178        4.1366  -16.6141  -38.2351 H         1 UNK         0.0600 
    179 H179        2.8068  -14.7168  -39.1538 H         1 UNK         0.3000 
    180 H180        0.5939  -14.1529  -39.6629 H         1 UNK         0.0600 
    181 H181        2.1770  -12.1982  -39.7796 H         1 UNK         0.0600 
    182 H182        0.5505  -11.6898  -40.1975 H         1 UNK         0.0600 
    183 H183        1.7487  -11.9340  -41.4665 H         1 UNK         0.0600 
    184 H184        0.2033  -14.2518  -42.5222 H         1 UNK         0.3000 
    185 H185       -2.6246  -14.9718  -42.6143 H         1 UNK         0.0600 
    186 H186       -3.4738  -12.0308  -42.3818 H         1 UNK         0.0600 
    187 H187       -4.3486  -13.2755  -43.2707 H         1 UNK         0.0600 
    188 H188       -4.2110  -13.3826  -41.5264 H         1 UNK         0.0600 
    189 H189       -0.9694  -12.8561  -43.7611 H         1 UNK         0.3000 
    190 H190       -1.2079  -19.7414  -46.6433 H         1 UNK         0.3000 
    191 H191       -3.6584  -19.1472  -47.9355 H         1 UNK         0.0600 
    192 H192       -2.1100  -17.4871  -46.7998 H         1 UNK         0.0600 
    193 H193       -3.7962  -17.3042  -46.3436 H         1 UNK         0.0600 
    194 H194       -2.6723  -18.0755  -45.2379 H         1 UNK         0.0600 
    195 H195       -2.9644  -20.5830  -44.7357 H         1 UNK         0.3000 
    196 H196       -5.7018  -20.9745  -43.9359 H         1 UNK         0.0600 
    197 H197       -4.6723  -22.3345  -42.1325 H         1 UNK         0.0600 
    198 H198       -3.7730  -20.8380  -42.3413 H         1 UNK         0.0600 
    199 H199       -3.1351  -22.3510  -42.9865 H         1 UNK         0.0600 
    200 H200       -3.5414  -22.7717  -46.0027 H         1 UNK         0.3000 
    201 H201       -5.1314  -25.2519  -45.9993 H         1 UNK         0.0600 
    202 H202       -3.3807  -26.0429  -47.5454 H         1 UNK         0.0600 
    203 H203       -2.6252  -25.3267  -46.1312 H         1 UNK         0.0600 
    204 H204       -2.6798  -24.4365  -47.6513 H         1 UNK         0.0600 
    205 H205       -5.4270  -22.2250  -47.3930 H         1 UNK         0.3000 
    206 H206       -6.5742  -21.2681  -48.9923 H         1 UNK         0.0600 
    207 H207       -8.4587  -22.7206  -48.1720 H         1 UNK         0.0600 
    208 H208       -8.6125  -22.2960  -49.8670 H         1 UNK         0.0600 
    209 H209       -8.0695  -23.9063  -49.4182 H         1 UNK         0.0600 
    210 H210       -4.0389  -22.1632  -49.6684 H         1 UNK         0.3000 
    211 H211       -3.7249  -23.5853  -52.0218 H         1 UNK         0.0600 
    212 H212       -1.8406  -22.9916  -50.5839 H         1 UNK         0.0600 
    213 H213       -1.5202  -22.3359  -52.1806 H         1 UNK         0.0600 
    214 H214       -2.0686  -21.2691  -50.8996 H         1 UNK         0.0600 
    215 H215       -4.7113  -20.2063  -51.7319 H         1 UNK         0.3000 
    216 H216       -4.3247  -19.4948  -54.4954 H         1 UNK         0.0600 
    217 H217       -6.0704  -18.2322  -52.3163 H         1 UNK         0.0600 
    218 H218       -5.6768  -17.4958  -53.8656 H         1 UNK         0.0600 
    219 H219       -4.4024  -17.7986  -52.6953 H         1 UNK         0.0600 
    220 H220       -6.9825  -21.0048  -52.6934 H         1 UNK         0.3000 
    221 H221       -8.9140  -20.7537  -54.9016 H         1 UNK         0.0600 
    222 H222       -9.1161  -22.2013  -52.2085 H         1 UNK         0.0600 
    223 H223       -9.6749  -20.5590  -52.5272 H         1 UNK         0.0600 
    224 H224      -10.4311  -21.9211  -53.3402 H         1 UNK         0.0600 
    225 H225       -6.8744  -23.2159  -53.3194 H         1 UNK         0.3000 
    226 H226       -7.6898  -25.4444  -54.9324 H         1 UNK         0.0600 
    227 H227       -6.6597  -25.6353  -52.6568 H         1 UNK         0.0600 
    228 H228       -5.7413  -26.5443  -53.8479 H         1 UNK         0.0600 
    229 H229       -5.1445  -24.9896  -53.2832 H         1 UNK         0.0600 
    230 H230       -5.7013  -22.7766  -55.6482 H         1 UNK         0.3000 
    231 H231       -4.4873  -22.0866  -57.3371 H         1 UNK         0.0600 
    232 H232       -5.1809  -24.6214  -58.9063 H         1 UNK         0.0600 
    233 H233       -4.5758  -23.1069  -59.5560 H         1 UNK         0.0600 
    234 H234       -6.1804  -23.1691  -58.8464 H         1 UNK         0.0600 
    235 H235       -3.4356  -23.8887  -55.2043 H         1 UNK         0.3000 
    236 H236       -1.0156  -25.1416  -56.2219 H         1 UNK         0.0600 
    237 H237       -1.8664  -24.3437  -53.3893 H         1 UNK         0.0600 
    238 H238       -2.0685  -25.9306  -54.1247 H         1 UNK         0.0600 
    239 H239       -0.4568  -25.3153  -53.7895 H         1 UNK         0.0600 
    240 H240       -1.9995  -21.9215  -55.2630 H         1 UNK         0.3000 
    241 H241        0.6340  -20.7196  -55.2611 H         1 UNK         0.0600 
    242 H242       -0.2331  -21.1618  -59.1728 H         1 UNK         0.3800 
    243 H243       -1.0677  -22.1115  -57.9758 H         1 UNK         0.3800 
    244 H244       -2.1690  -19.5493  -55.5539 H         1 UNK         0.0800 
    245 H245       -0.7521  -18.5516  -55.6434 H         1 UNK         0.0800 
    246 H246        1.1712  -18.5602  -53.6195 H         1 UNK         0.0800 
    247 H247        0.0214  -17.2602  -53.8137 H         1 UNK         0.0800 
@<TRIPOS>BOND
     1    1    2 1    
     2    1  127 1    
     3    1  128 1    
     4    1  129 1    
     5    2    3 2    
     6    2    4 am   BACKBONE|DICT|INTERRES
     7    4    5 1    
     8    4  130 1    
     9    5    6 1    
    10    5   65 1    
    11    5  131 1    
    12    6    7 1    
    13    6  132 1    
    14    6  133 1    
    15    7    8 1    
    16    8    9 1    
    17    8  134 1    
    18    8  135 1    
    19    9   10 ar   
    20    9   14 ar   
    21   10   11 ar   
    22   10  136 1    
    23   11   12 ar   
    24   11  126 1    
    25   12   13 ar   
    26   12  137 1    
    27   13   14 ar   
    28   13   15 1    
    29   14  138 1    
    30   15   16 1    
    31   15  139 1    
    32   15  140 1    
    33   16   17 1    
    34   17   18 1    
    35   17  141 1    
    36   17  142 1    
    37   18   19 1    
    38   18   67 1    
    39   18  143 1    
    40   19   20 am   BACKBONE|DICT|INTERRES
    41   19  144 1    
    42   20   21 2    
    43   20   22 1    
    44   22   23 1    
    45   22   24 1    
    46   22  145 1    
    47   23  146 1    
    48   23  147 1    
    49   23  148 1    
    50   24   25 am   BACKBONE|DICT|INTERRES
    51   24  149 1    
    52   25   26 2    
    53   25   27 1    
    54   27   28 1    
    55   27   29 1    
    56   27  150 1    
    57   28  151 1    
    58   28  152 1    
    59   28  153 1    
    60   29   30 am   BACKBONE|DICT|INTERRES
    61   29  154 1    
    62   30   31 2    
    63   30   32 1    
    64   32   33 1    
    65   32   34 1    
    66   32  155 1    
    67   33  156 1    
    68   33  157 1    
    69   33  158 1    
    70   34   35 am   BACKBONE|DICT|INTERRES
    71   34  159 1    
    72   35   36 2    
    73   35   37 1    
    74   37   38 1    
    75   37   39 1    
    76   37  160 1    
    77   38  161 1    
    78   38  162 1    
    79   38  163 1    
    80   39   40 am   BACKBONE|DICT|INTERRES
    81   39  164 1    
    82   40   41 2    
    83   40   42 1    
    84   42   43 1    
    85   42   44 1    
    86   42  165 1    
    87   43  166 1    
    88   43  167 1    
    89   43  168 1    
    90   44   45 am   BACKBONE|DICT|INTERRES
    91   44  169 1    
    92   45   46 2    
    93   45   47 1    
    94   47   48 1    
    95   47   49 1    
    96   47  170 1    
    97   48  171 1    
    98   48  172 1    
    99   48  173 1    
   100   49   50 am   BACKBONE|DICT|INTERRES
   101   49  174 1    
   102   50   51 2    
   103   50   52 1    
   104   52   53 1    
   105   52   54 1    
   106   52  175 1    
   107   53  176 1    
   108   53  177 1    
   109   53  178 1    
   110   54   55 am   BACKBONE|DICT|INTERRES
   111   54  179 1    
   112   55   56 2    
   113   55   57 1    
   114   57   58 1    
   115   57   59 1    
   116   57  180 1    
   117   58  181 1    
   118   58  182 1    
   119   58  183 1    
   120   59   60 am   BACKBONE|DICT|INTERRES
   121   59  184 1    
   122   60   61 2    
   123   60   62 1    
   124   62   63 1    
   125   62   64 1    
   126   62  185 1    
   127   63  186 1    
   128   63  187 1    
   129   63  188 1    
   130   64   65 am   BACKBONE|DICT|INTERRES
   131   64  189 1    
   132   65   66 2    
   133   67   68 2    
   134   67   69 am   BACKBONE|DICT|INTERRES
   135   69   70 1    
   136   69  190 1    
   137   70   71 1    
   138   70   72 1    
   139   70  191 1    
   140   71  192 1    
   141   71  193 1    
   142   71  194 1    
   143   72   73 2    
   144   72   74 am   BACKBONE|DICT|INTERRES
   145   74   75 1    
   146   74  195 1    
   147   75   76 1    
   148   75   77 1    
   149   75  196 1    
   150   76  197 1    
   151   76  198 1    
   152   76  199 1    
   153   77   78 2    
   154   77   79 am   BACKBONE|DICT|INTERRES
   155   79   80 1    
   156   79  200 1    
   157   80   81 1    
   158   80   82 1    
   159   80  201 1    
   160   81  202 1    
   161   81  203 1    
   162   81  204 1    
   163   82   83 2    
   164   82   84 am   BACKBONE|DICT|INTERRES
   165   84   85 1    
   166   84  205 1    
   167   85   86 1    
   168   85   87 1    
   169   85  206 1    
   170   86  207 1    
   171   86  208 1    
   172   86  209 1    
   173   87   88 2    
   174   87   89 am   BACKBONE|DICT|INTERRES
   175   89   90 1    
   176   89  210 1    
   177   90   91 1    
   178   90   92 1    
   179   90  211 1    
   180   91  212 1    
   181   91  213 1    
   182   91  214 1    
   183   92   93 2    
   184   92   94 am   BACKBONE|DICT|INTERRES
   185   94   95 1    
   186   94  215 1    
   187   95   96 1    
   188   95   97 1    
   189   95  216 1    
   190   96  217 1    
   191   96  218 1    
   192   96  219 1    
   193   97   98 2    
   194   97   99 am   BACKBONE|DICT|INTERRES
   195   99  100 1    
   196   99  220 1    
   197  100  101 1    
   198  100  102 1    
   199  100  221 1    
   200  101  222 1    
   201  101  223 1    
   202  101  224 1    
   203  102  103 2    
   204  102  104 am   BACKBONE|DICT|INTERRES
   205  104  105 1    
   206  104  225 1    
   207  105  106 1    
   208  105  107 1    
   209  105  226 1    
   210  106  227 1    
   211  106  228 1    
   212  106  229 1    
   213  107  108 2    
   214  107  109 am   BACKBONE|DICT|INTERRES
   215  109  110 1    
   216  109  230 1    
   217  110  111 1    
   218  110  112 1    
   219  110  231 1    
   220  111  232 1    
   221  111  233 1    
   222  111  234 1    
   223  112  113 2    
   224  112  114 am   BACKBONE|DICT|INTERRES
   225  114  115 1    
   226  114  235 1    
   227  115  116 1    
   228  115  117 1    
   229  115  236 1    
   230  116  237 1    
   231  116  238 1    
   232  116  239 1    
   233  117  118 2    
   234  117  119 am   BACKBONE|DICT|INTERRES
   235  119  120 1    
   236  119  240 1    
   237  120  121 1    
   238  120  124 1    
   239  120  241 1    
   240  121  122 am   BACKBONE|DICT|INTERRES
   241  121  123 2    
   242  122  242 1    
   243  122  243 1    
   244  124  125 1    
   245  124  244 1    
   246  124  245 1    
   247  125  126 1    
   248  126  246 1    
   249  126  247 1    
@<TRIPOS>SUBSTRUCTURE
     1 UNK         1 GROUP             0       ****    0 ROOT    
