@<TRIPOS>MOLECULE
3R540
247   249    1
SMALL
USER_CHARGES


@<TRIPOS>ATOM
      1 CA         -1.5730  -14.5868  -46.0555 C.3       0 UNK        -0.1800 
      2 C          -0.7923  -13.6768  -46.9945 C.2       0 UNK         0.5000 
      3 O          -1.2223  -12.5541  -47.2563 O.2       0 UNK        -0.5000 
      4 N           0.3472  -14.1623  -47.4963 N.am      1 UNK        -0.5000 
      5 CA          1.2543  -13.4613  -48.4062 C.3       1 UNK         0.1400 
      6 C6          1.3097  -14.1428  -49.7964 C.3       23 UNK        -0.0398 
      7 S7         -0.2620  -14.0188  -50.7184 S.3       23 UNK        -0.2404 
      8 C8         -1.0701  -15.6122  -50.3517 C.3       23 UNK        -0.0205 
      9 C9         -0.3256  -16.7989  -50.9462 C.ar      23 UNK        -0.0193 
     10 C10        -0.3431  -17.0159  -52.3257 C.ar      23 UNK        -0.1150 
     11 C11         0.3295  -18.1088  -52.8882 C.ar      23 UNK        -0.0193 
     12 C12         1.0188  -18.9819  -52.0407 C.ar      23 UNK        -0.1150 
     13 C13         1.0492  -18.7837  -50.6569 C.ar      23 UNK        -0.0193 
     14 C14         0.3728  -17.6817  -50.1181 C.ar      23 UNK        -0.1150 
     15 C15         1.8562  -19.7622  -49.7988 C.3       23 UNK        -0.0205 
     16 S16         1.4337  -19.8011  -48.0221 S.3       23 UNK        -0.2404 
     17 C17        -0.2605  -20.4756  -48.0573 C.3       23 UNK        -0.0398 
     18 CA         -0.3789  -21.8265  -47.3133 C.3       11 UNK         0.1400 
     19 N           0.0471  -21.7589  -45.9124 N.am      11 UNK        -0.5000 
     20 C           0.3776  -22.8335  -45.1848 C.2       10 UNK         0.5000 
     21 O           0.3234  -23.9862  -45.6145 O.2       10 UNK        -0.5000 
     22 CA          0.8086  -22.5900  -43.7294 C.3       10 UNK         0.1400 
     23 CB          2.2477  -22.0563  -43.6690 C.3       10 UNK        -0.1800 
     24 N          -0.0772  -21.6931  -42.9860 N.am      10 UNK        -0.5000 
     25 C          -1.3613  -21.9515  -42.7003 C.2       9 UNK         0.5000 
     26 O          -1.9837  -22.9083  -43.1602 O.2       9 UNK        -0.5000 
     27 CA         -2.0676  -20.9793  -41.7429 C.3       9 UNK         0.1400 
     28 CB         -1.5013  -21.0987  -40.3187 C.3       9 UNK        -0.1800 
     29 N          -1.9180  -19.6063  -42.2120 N.am      9 UNK        -0.5000 
     30 C          -2.8338  -18.9495  -42.9362 C.2       8 UNK         0.5000 
     31 O          -3.9596  -19.3861  -43.1751 O.2       8 UNK        -0.5000 
     32 CA         -2.4254  -17.5783  -43.5139 C.3       8 UNK         0.1400 
     33 CB         -2.9638  -16.4435  -42.6300 C.3       8 UNK        -0.1800 
     34 N          -0.9798  -17.4115  -43.6953 N.am      8 UNK        -0.5000 
     35 C          -0.2228  -18.1822  -44.4897 C.2       7 UNK         0.5000 
     36 O          -0.6724  -19.1021  -45.1697 O.2       7 UNK        -0.5000 
     37 CA          1.2943  -17.9374  -44.4851 C.3       7 UNK         0.1400 
     38 CB          1.6767  -16.8938  -45.5385 C.3       7 UNK        -0.1800 
     39 N           1.8322  -17.5373  -43.1848 N.am      7 UNK        -0.5000 
     40 C           1.7643  -18.2638  -42.0599 C.2       6 UNK         0.5000 
     41 O           1.1595  -19.3332  -41.9690 O.2       6 UNK        -0.5000 
     42 CA          2.4732  -17.6831  -40.8281 C.3       6 UNK         0.1400 
     43 CB          3.9969  -17.8432  -40.9497 C.3       6 UNK        -0.1800 
     44 N           2.1423  -16.2696  -40.6671 N.am      6 UNK        -0.5000 
     45 C           1.1086  -15.8149  -39.9466 C.2       5 UNK         0.5000 
     46 O           0.3780  -16.5358  -39.2660 O.2       5 UNK        -0.5000 
     47 CA          0.8303  -14.2992  -40.0007 C.3       5 UNK         0.1400 
     48 CB          1.5521  -13.5786  -38.8520 C.3       5 UNK        -0.1800 
     49 N           1.2077  -13.6724  -41.2695 N.am      5 UNK        -0.5000 
     50 C           0.6548  -13.9583  -42.4558 C.2       4 UNK         0.5000 
     51 O          -0.2297  -14.7972  -42.6174 O.2       4 UNK        -0.5000 
     52 CA          1.2185  -13.2184  -43.6797 C.3       4 UNK         0.1400 
     53 CB          0.5197  -11.8645  -43.8668 C.3       4 UNK        -0.1800 
     54 N           2.6685  -13.0172  -43.6725 N.am      4 UNK        -0.5000 
     55 C           3.6076  -13.9576  -43.5007 C.2       3 UNK         0.5000 
     56 O           3.3650  -15.1163  -43.1557 O.2       3 UNK        -0.5000 
     57 CA          5.0539  -13.5244  -43.8192 C.3       3 UNK         0.1400 
     58 CB          6.0887  -14.5894  -43.4145 C.3       3 UNK        -0.1800 
     59 N           5.1962  -13.2470  -45.2497 N.am      3 UNK        -0.5000 
     60 C           4.7467  -12.1538  -45.8804 C.2       2 UNK         0.5000 
     61 O           4.2709  -11.1796  -45.2937 O.2       2 UNK        -0.5000 
     62 CA          4.7693  -12.1617  -47.4229 C.3       2 UNK         0.1400 
     63 CB          5.7955  -13.1435  -48.0328 C.3       2 UNK        -0.1800 
     64 N           3.4264  -12.3972  -47.9708 N.am      2 UNK        -0.5000 
     65 C           2.6494  -13.4706  -47.7586 C.2       1 UNK         0.5000 
     66 O           2.9978  -14.4540  -47.1021 O.2       1 UNK        -0.5000 
     67 C          -1.8090  -22.3801  -47.4317 C.2       11 UNK         0.5000 
     68 O          -2.1263  -23.0040  -48.4433 O.2       11 UNK        -0.5000 
     69 N          -2.6443  -22.1583  -46.4071 N.am      12 UNK        -0.5000 
     70 CA         -3.9932  -22.7140  -46.3177 C.3       12 UNK         0.1400 
     71 CB         -4.7847  -21.9914  -45.2189 C.3       12 UNK        -0.1800 
     72 C          -3.9610  -24.2333  -46.0801 C.2       12 UNK         0.5000 
     73 O          -4.6744  -24.9659  -46.7646 O.2       12 UNK        -0.5000 
     74 N          -3.0939  -24.6818  -45.1601 N.am      13 UNK        -0.5000 
     75 CA         -2.8443  -26.0938  -44.8611 C.3       13 UNK         0.1400 
     76 CB         -1.9436  -26.2019  -43.6213 C.3       13 UNK        -0.1800 
     77 C          -2.2297  -26.8584  -46.0485 C.2       13 UNK         0.5000 
     78 O          -2.6104  -28.0026  -46.2977 O.2       13 UNK        -0.5000 
     79 N          -1.3173  -26.2017  -46.7783 N.am      14 UNK        -0.5000 
     80 CA         -0.7015  -26.7179  -48.0031 C.3       14 UNK         0.1400 
     81 CB          0.5625  -25.8966  -48.3032 C.3       14 UNK        -0.1800 
     82 C          -1.6420  -26.6996  -49.2264 C.2       14 UNK         0.5000 
     83 O          -1.3281  -27.3445  -50.2273 O.2       14 UNK        -0.5000 
     84 N          -2.7471  -25.9423  -49.1383 N.am      15 UNK        -0.5000 
     85 CA         -3.7030  -25.6252  -50.2061 C.3       15 UNK         0.1400 
     86 CB         -4.4794  -26.8810  -50.6520 C.3       15 UNK        -0.1800 
     87 C          -3.0449  -24.8635  -51.3781 C.2       15 UNK         0.5000 
     88 O          -3.3929  -25.0796  -52.5384 O.2       15 UNK        -0.5000 
     89 N          -2.0960  -23.9861  -51.0350 N.am      16 UNK        -0.5000 
     90 CA         -1.3195  -23.1536  -51.9495 C.3       16 UNK         0.1400 
     91 CB          0.1428  -23.1575  -51.4758 C.3       16 UNK        -0.1800 
     92 C          -1.8456  -21.7082  -52.0076 C.2       16 UNK         0.5000 
     93 O          -1.5194  -20.9955  -52.9545 O.2       16 UNK        -0.5000 
     94 N          -2.6171  -21.3012  -50.9883 N.am      17 UNK        -0.5000 
     95 CA         -3.1432  -19.9518  -50.7687 C.3       17 UNK         0.1400 
     96 CB         -3.8776  -19.9409  -49.4152 C.3       17 UNK        -0.1800 
     97 C          -4.0713  -19.4213  -51.8806 C.2       17 UNK         0.5000 
     98 O          -4.4603  -20.1571  -52.7931 O.2       17 UNK        -0.5000 
     99 N          -4.4346  -18.1371  -51.7599 N.am      18 UNK        -0.5000 
    100 CA        -5.4089  -17.4419  -52.6013 C.3       18 UNK         0.1400 
    101 CB        -5.5573  -15.9943  -52.1106 C.3       18 UNK        -0.1800 
    102 C         -6.7685  -18.1629  -52.6253 C.2       18 UNK         0.5000 
    103 O         -7.3307  -18.4342  -51.5632 O.2       18 UNK        -0.5000 
    104 N         -7.2268  -18.4981  -53.8373 N.am      19 UNK        -0.5000 
    105 CA        -8.4206  -19.2785  -54.1836 C.3       19 UNK         0.1400 
    106 CB        -9.7015  -18.6795  -53.5682 C.3       19 UNK        -0.1800 
    107 C         -8.3045  -20.7932  -53.9073 C.2       19 UNK         0.5000 
    108 O         -9.1237  -21.5492  -54.4316 O.2       19 UNK        -0.5000 
    109 N         -7.2931  -21.2308  -53.1426 N.am      20 UNK        -0.5000 
    110 CA        -6.9439  -22.6428  -52.9746 C.3       20 UNK         0.1400 
    111 CB        -6.2034  -22.8509  -51.6436 C.3       20 UNK        -0.1800 
    112 C         -6.1045  -23.1323  -54.1682 C.2       20 UNK         0.5000 
    113 O         -6.3581  -24.2221  -54.6830 O.2       20 UNK        -0.5000 
    114 N         -5.1665  -22.2891  -54.6187 N.am      21 UNK        -0.5000 
    115 CA        -4.3802  -22.4834  -55.8351 C.3       21 UNK         0.1400 
    116 CB        -3.1684  -23.3887  -55.5644 C.3       21 UNK        -0.1800 
    117 C         -3.9349  -21.1438  -56.4392 C.2       21 UNK         0.5000 
    118 O         -3.9342  -21.0140  -57.6643 O.2       21 UNK        -0.5000 
    119 N         -3.5635  -20.1750  -55.5906 N.am      22 UNK        -0.5000 
    120 CA        -3.1596  -18.8238  -56.0083 C.3       22 UNK         0.1400 
    121 C         -4.3539  -17.9774  -56.5338 C.2       22 UNK         0.5000 
    122 N         -4.1063  -17.0424  -57.4396 N.am      22 UNK        -0.7600 
    123 O         -5.4923  -18.1260  -56.0920 O.2       22 UNK        -0.5000 
    124 C124       -2.3922  -18.0816  -54.8771 C.3       23 UNK        -0.0398 
    125 S125       -0.7884  -17.4148  -55.4279 S.3       23 UNK        -0.2404 
    126 C126        0.3676  -18.3852  -54.3955 C.3       23 UNK        -0.0205 
    127 H127       -1.1426  -15.5868  -46.0089 H         1 UNK         0.0600 
    128 H128       -2.6040  -14.6816  -46.3958 H         1 UNK         0.0600 
    129 H129       -1.5840  -14.1717  -45.0480 H         1 UNK         0.0600 
    130 H130        0.6991  -15.0559  -47.1836 H         1 UNK         0.3000 
    131 H131        0.9454  -12.4213  -48.5307 H         1 UNK         0.0600 
    132 H132        2.0739  -13.6702  -50.4161 H         1 UNK         0.0800 
    133 H133        1.6085  -15.1877  -49.7055 H         1 UNK         0.0800 
    134 H134       -1.1831  -15.7263  -49.2733 H         1 UNK         0.0800 
    135 H135       -2.0818  -15.5891  -50.7589 H         1 UNK         0.0800 
    136 H136       -0.8759  -16.3147  -52.9504 H         1 UNK         0.1150 
    137 H137        1.5441  -19.8252  -52.4671 H         1 UNK         0.1150 
    138 H138        0.3928  -17.4965  -49.0544 H         1 UNK         0.1150 
    139 H139        1.7572  -20.7725  -50.1977 H         1 UNK         0.0800 
    140 H140        2.9107  -19.4994  -49.8895 H         1 UNK         0.0800 
    141 H141       -0.5693  -20.5931  -49.0968 H         1 UNK         0.0800 
    142 H142       -0.9331  -19.7309  -47.6310 H         1 UNK         0.0800 
    143 H143        0.2771  -22.5332  -47.8254 H         1 UNK         0.0600 
    144 H144        0.0369  -20.8354  -45.4889 H         1 UNK         0.3000 
    145 H145        0.7906  -23.5565  -43.2212 H         1 UNK         0.0600 
    146 H146        2.5906  -21.9630  -42.6384 H         1 UNK         0.0600 
    147 H147        2.9360  -22.7295  -44.1816 H         1 UNK         0.0600 
    148 H148        2.3355  -21.0772  -44.1392 H         1 UNK         0.0600 
    149 H149        0.3588  -20.8679  -42.5808 H         1 UNK         0.3000 
    150 H150       -3.1234  -21.2558  -41.7038 H         1 UNK         0.0600 
    151 H151       -1.5891  -22.1210  -39.9490 H         1 UNK         0.0600 
    152 H152       -2.0449  -20.4551  -39.6269 H         1 UNK         0.0600 
    153 H153       -0.4477  -20.8213  -40.2717 H         1 UNK         0.0600 
    154 H154       -1.0037  -19.1875  -42.0946 H         1 UNK         0.3000 
    155 H155       -2.8915  -17.4929  -44.4976 H         1 UNK         0.0600 
    156 H156       -2.4703  -16.4247  -41.6574 H         1 UNK         0.0600 
    157 H157       -2.8136  -15.4726  -43.1020 H         1 UNK         0.0600 
    158 H158       -4.0348  -16.5538  -42.4554 H         1 UNK         0.0600 
    159 H159       -0.5473  -16.6448  -43.1875 H         1 UNK         0.3000 
    160 H160        1.7735  -18.8776  -44.7617 H         1 UNK         0.0600 
    161 H161        2.7596  -16.8066  -45.6296 H         1 UNK         0.0600 
    162 H162        1.2851  -15.9126  -45.2818 H         1 UNK         0.0600 
    163 H163        1.2882  -17.1606  -46.5217 H         1 UNK         0.0600 
    164 H164        2.3573  -16.6661  -43.1669 H         1 UNK         0.3000 
    165 H165        2.1461  -18.2472  -39.9520 H         1 UNK         0.0600 
    166 H166        4.5019  -17.4773  -40.0557 H         1 UNK         0.0600 
    167 H167        4.2696  -18.8923  -41.0711 H         1 UNK         0.0600 
    168 H168        4.3981  -17.2986  -41.8053 H         1 UNK         0.0600 
    169 H169        2.6533  -15.6182  -41.2513 H         1 UNK         0.3000 
    170 H170       -0.2450  -14.1604  -39.8693 H         1 UNK         0.0600 
    171 H171        2.6359  -13.6584  -38.9453 H         1 UNK         0.0600 
    172 H172        1.2933  -12.5199  -38.8250 H         1 UNK         0.0600 
    173 H173        1.2733  -14.0044  -37.8871 H         1 UNK         0.0600 
    174 H174        1.9443  -12.9829  -41.2377 H         1 UNK         0.3000 
    175 H175        0.9938  -13.8262  -44.5545 H         1 UNK         0.0600 
    176 H176        0.8176  -11.3948  -44.8047 H         1 UNK         0.0600 
    177 H177        0.7544  -11.1748  -43.0552 H         1 UNK         0.0600 
    178 H178       -0.5644  -11.9831  -43.8961 H         1 UNK         0.0600 
    179 H179        2.9918  -12.1135  -44.0009 H         1 UNK         0.3000 
    180 H180        5.2648  -12.6154  -43.2521 H         1 UNK         0.0600 
    181 H181        5.9435  -15.5223  -43.9609 H         1 UNK         0.0600 
    182 H182        6.0180  -14.8179  -42.3502 H         1 UNK         0.0600 
    183 H183        7.1047  -14.2439  -43.6055 H         1 UNK         0.0600 
    184 H184        5.4942  -14.0242  -45.8214 H         1 UNK         0.3000 
    185 H185        5.0597  -11.1554  -47.7286 H         1 UNK         0.0600 
    186 H186        5.5525  -14.1868  -47.8301 H         1 UNK         0.0600 
    187 H187        5.8468  -13.0253  -49.1151 H         1 UNK         0.0600 
    188 H188        6.7964  -12.9550  -47.6423 H         1 UNK         0.0600 
    189 H189        3.0462  -11.6294  -48.5069 H         1 UNK         0.3000 
    190 H190       -2.3023  -21.6492  -45.6047 H         1 UNK         0.3000 
    191 H191       -4.5002  -22.5349  -47.2686 H         1 UNK         0.0600 
    192 H192       -4.8572  -20.9235  -45.4256 H         1 UNK         0.0600 
    193 H193       -5.8018  -22.3791  -45.1523 H         1 UNK         0.0600 
    194 H194       -4.3240  -22.1103  -44.2382 H         1 UNK         0.0600 
    195 H195       -2.5765  -24.0067  -44.6027 H         1 UNK         0.3000 
    196 H196       -3.8036  -26.5600  -44.6271 H         1 UNK         0.0600 
    197 H197       -1.7491  -27.2447  -43.3678 H         1 UNK         0.0600 
    198 H198       -2.4120  -25.7377  -42.7533 H         1 UNK         0.0600 
    199 H199       -0.9804  -25.7156  -43.7801 H         1 UNK         0.0600 
    200 H200       -0.9963  -25.2942  -46.4560 H         1 UNK         0.3000 
    201 H201       -0.4037  -27.7543  -47.8314 H         1 UNK         0.0600 
    202 H202        1.2644  -25.9316  -47.4698 H         1 UNK         0.0600 
    203 H203        0.3230  -24.8511  -48.4975 H         1 UNK         0.0600 
    204 H204        1.0821  -26.2817  -49.1814 H         1 UNK         0.0600 
    205 H205       -2.9078  -25.4580  -48.2652 H         1 UNK         0.3000 
    206 H206       -4.4232  -24.9346  -49.7651 H         1 UNK         0.0600 
    207 H207       -4.9351  -27.3845  -49.7994 H         1 UNK         0.0600 
    208 H208       -5.2829  -26.6178  -51.3408 H         1 UNK         0.0600 
    209 H209       -3.8352  -27.5979  -51.1615 H         1 UNK         0.0600 
    210 H210       -1.9303  -23.8376  -50.0421 H         1 UNK         0.3000 
    211 H211       -1.3524  -23.5709  -52.9566 H         1 UNK         0.0600 
    212 H212        0.2390  -22.7618  -50.4643 H         1 UNK         0.0600 
    213 H213        0.7690  -22.5489  -52.1296 H         1 UNK         0.0600 
    214 H214        0.5536  -24.1674  -51.4789 H         1 UNK         0.0600 
    215 H215       -2.8217  -21.9783  -50.2665 H         1 UNK         0.3000 
    216 H216       -2.2883  -19.2749  -50.7115 H         1 UNK         0.0600 
    217 H217       -4.3043  -18.9633  -49.1894 H         1 UNK         0.0600 
    218 H218       -3.2033  -20.1779  -48.5956 H         1 UNK         0.0600 
    219 H219       -4.6942  -20.6641  -49.3979 H         1 UNK         0.0600 
    220 H220       -4.0948  -17.6148  -50.9668 H         1 UNK         0.3000 
    221 H221       -5.0137  -17.4126  -53.6141 H         1 UNK         0.0600 
    222 H222       -5.9186  -15.9526  -51.0823 H         1 UNK         0.0600 
    223 H223       -4.6067  -15.4623  -52.1557 H         1 UNK         0.0600 
    224 H224       -6.2666  -15.4442  -52.7304 H         1 UNK         0.0600 
    225 H225       -6.6396  -18.2720  -54.6396 H         1 UNK         0.3000 
    226 H226       -8.5113  -19.1840  -55.2667 H         1 UNK         0.0600 
    227 H227       -9.7824  -17.6137  -53.7816 H         1 UNK         0.0600 
    228 H228      -10.5895  -19.1607  -53.9797 H         1 UNK         0.0600 
    229 H229       -9.7377  -18.8118  -52.4868 H         1 UNK         0.0600 
    230 H230       -6.6434  -20.5544  -52.7636 H         1 UNK         0.3000 
    231 H231       -7.8612  -23.2344  -52.9375 H         1 UNK         0.0600 
    232 H232       -5.2211  -22.3808  -51.6415 H         1 UNK         0.0600 
    233 H233       -6.0549  -23.9141  -51.4543 H         1 UNK         0.0600 
    234 H234       -6.7717  -22.4473  -50.8056 H         1 UNK         0.0600 
    235 H235       -5.0219  -21.4201  -54.1133 H         1 UNK         0.3000 
    236 H236       -5.0124  -22.9704  -56.5808 H         1 UNK         0.0600 
    237 H237       -3.4748  -24.3631  -55.1843 H         1 UNK         0.0600 
    238 H238       -2.5980  -23.5608  -56.4777 H         1 UNK         0.0600 
    239 H239       -2.4947  -22.9376  -54.8378 H         1 UNK         0.0600 
    240 H240       -3.5927  -20.3397  -54.5909 H         1 UNK         0.3000 
    241 H241       -2.4820  -18.9659  -56.8528 H         1 UNK         0.0600 
    242 H242       -3.1762  -16.8868  -57.7971 H         1 UNK         0.3800 
    243 H243       -4.8679  -16.4754  -57.7786 H         1 UNK         0.3800 
    244 H244       -2.9584  -17.2463  -54.4651 H         1 UNK         0.0800 
    245 H245       -2.2155  -18.7429  -54.0306 H         1 UNK         0.0800 
    246 H246        0.1763  -19.4453  -54.5714 H         1 UNK         0.0800 
    247 H247        1.3807  -18.1926  -54.7504 H         1 UNK         0.0800 
@<TRIPOS>BOND
     1    1    2 1    
     2    1  127 1    
     3    1  128 1    
     4    1  129 1    
     5    2    3 2    
     6    2    4 am   BACKBONE|DICT|INTERRES
     7    4    5 1    
     8    4  130 1    
     9    5    6 1    
    10    5   65 1    
    11    5  131 1    
    12    6    7 1    
    13    6  132 1    
    14    6  133 1    
    15    7    8 1    
    16    8    9 1    
    17    8  134 1    
    18    8  135 1    
    19    9   10 ar   
    20    9   14 ar   
    21   10   11 ar   
    22   10  136 1    
    23   11   12 ar   
    24   11  126 1    
    25   12   13 ar   
    26   12  137 1    
    27   13   14 ar   
    28   13   15 1    
    29   14  138 1    
    30   15   16 1    
    31   15  139 1    
    32   15  140 1    
    33   16   17 1    
    34   17   18 1    
    35   17  141 1    
    36   17  142 1    
    37   18   19 1    
    38   18   67 1    
    39   18  143 1    
    40   19   20 am   BACKBONE|DICT|INTERRES
    41   19  144 1    
    42   20   21 2    
    43   20   22 1    
    44   22   23 1    
    45   22   24 1    
    46   22  145 1    
    47   23  146 1    
    48   23  147 1    
    49   23  148 1    
    50   24   25 am   BACKBONE|DICT|INTERRES
    51   24  149 1    
    52   25   26 2    
    53   25   27 1    
    54   27   28 1    
    55   27   29 1    
    56   27  150 1    
    57   28  151 1    
    58   28  152 1    
    59   28  153 1    
    60   29   30 am   BACKBONE|DICT|INTERRES
    61   29  154 1    
    62   30   31 2    
    63   30   32 1    
    64   32   33 1    
    65   32   34 1    
    66   32  155 1    
    67   33  156 1    
    68   33  157 1    
    69   33  158 1    
    70   34   35 am   BACKBONE|DICT|INTERRES
    71   34  159 1    
    72   35   36 2    
    73   35   37 1    
    74   37   38 1    
    75   37   39 1    
    76   37  160 1    
    77   38  161 1    
    78   38  162 1    
    79   38  163 1    
    80   39   40 am   BACKBONE|DICT|INTERRES
    81   39  164 1    
    82   40   41 2    
    83   40   42 1    
    84   42   43 1    
    85   42   44 1    
    86   42  165 1    
    87   43  166 1    
    88   43  167 1    
    89   43  168 1    
    90   44   45 am   BACKBONE|DICT|INTERRES
    91   44  169 1    
    92   45   46 2    
    93   45   47 1    
    94   47   48 1    
    95   47   49 1    
    96   47  170 1    
    97   48  171 1    
    98   48  172 1    
    99   48  173 1    
   100   49   50 am   BACKBONE|DICT|INTERRES
   101   49  174 1    
   102   50   51 2    
   103   50   52 1    
   104   52   53 1    
   105   52   54 1    
   106   52  175 1    
   107   53  176 1    
   108   53  177 1    
   109   53  178 1    
   110   54   55 am   BACKBONE|DICT|INTERRES
   111   54  179 1    
   112   55   56 2    
   113   55   57 1    
   114   57   58 1    
   115   57   59 1    
   116   57  180 1    
   117   58  181 1    
   118   58  182 1    
   119   58  183 1    
   120   59   60 am   BACKBONE|DICT|INTERRES
   121   59  184 1    
   122   60   61 2    
   123   60   62 1    
   124   62   63 1    
   125   62   64 1    
   126   62  185 1    
   127   63  186 1    
   128   63  187 1    
   129   63  188 1    
   130   64   65 am   BACKBONE|DICT|INTERRES
   131   64  189 1    
   132   65   66 2    
   133   67   68 2    
   134   67   69 am   BACKBONE|DICT|INTERRES
   135   69   70 1    
   136   69  190 1    
   137   70   71 1    
   138   70   72 1    
   139   70  191 1    
   140   71  192 1    
   141   71  193 1    
   142   71  194 1    
   143   72   73 2    
   144   72   74 am   BACKBONE|DICT|INTERRES
   145   74   75 1    
   146   74  195 1    
   147   75   76 1    
   148   75   77 1    
   149   75  196 1    
   150   76  197 1    
   151   76  198 1    
   152   76  199 1    
   153   77   78 2    
   154   77   79 am   BACKBONE|DICT|INTERRES
   155   79   80 1    
   156   79  200 1    
   157   80   81 1    
   158   80   82 1    
   159   80  201 1    
   160   81  202 1    
   161   81  203 1    
   162   81  204 1    
   163   82   83 2    
   164   82   84 am   BACKBONE|DICT|INTERRES
   165   84   85 1    
   166   84  205 1    
   167   85   86 1    
   168   85   87 1    
   169   85  206 1    
   170   86  207 1    
   171   86  208 1    
   172   86  209 1    
   173   87   88 2    
   174   87   89 am   BACKBONE|DICT|INTERRES
   175   89   90 1    
   176   89  210 1    
   177   90   91 1    
   178   90   92 1    
   179   90  211 1    
   180   91  212 1    
   181   91  213 1    
   182   91  214 1    
   183   92   93 2    
   184   92   94 am   BACKBONE|DICT|INTERRES
   185   94   95 1    
   186   94  215 1    
   187   95   96 1    
   188   95   97 1    
   189   95  216 1    
   190   96  217 1    
   191   96  218 1    
   192   96  219 1    
   193   97   98 2    
   194   97   99 am   BACKBONE|DICT|INTERRES
   195   99  100 1    
   196   99  220 1    
   197  100  101 1    
   198  100  102 1    
   199  100  221 1    
   200  101  222 1    
   201  101  223 1    
   202  101  224 1    
   203  102  103 2    
   204  102  104 am   BACKBONE|DICT|INTERRES
   205  104  105 1    
   206  104  225 1    
   207  105  106 1    
   208  105  107 1    
   209  105  226 1    
   210  106  227 1    
   211  106  228 1    
   212  106  229 1    
   213  107  108 2    
   214  107  109 am   BACKBONE|DICT|INTERRES
   215  109  110 1    
   216  109  230 1    
   217  110  111 1    
   218  110  112 1    
   219  110  231 1    
   220  111  232 1    
   221  111  233 1    
   222  111  234 1    
   223  112  113 2    
   224  112  114 am   BACKBONE|DICT|INTERRES
   225  114  115 1    
   226  114  235 1    
   227  115  116 1    
   228  115  117 1    
   229  115  236 1    
   230  116  237 1    
   231  116  238 1    
   232  116  239 1    
   233  117  118 2    
   234  117  119 am   BACKBONE|DICT|INTERRES
   235  119  120 1    
   236  119  240 1    
   237  120  121 1    
   238  120  124 1    
   239  120  241 1    
   240  121  122 am   BACKBONE|DICT|INTERRES
   241  121  123 2    
   242  122  242 1    
   243  122  243 1    
   244  124  125 1    
   245  124  244 1    
   246  124  245 1    
   247  125  126 1    
   248  126  246 1    
   249  126  247 1    
@<TRIPOS>SUBSTRUCTURE
     1 UNK         1 GROUP             0       ****    0 ROOT    
