@<TRIPOS>MOLECULE
3R540
247   249    1
SMALL
USER_CHARGES


@<TRIPOS>ATOM
      1 CA          2.4398  -12.1297  -47.4609 C.3       0 UNK        -0.1800 
      2 C           1.0034  -12.0317  -46.9646 C.2       0 UNK         0.5000 
      3 O           0.6686  -11.1007  -46.2326 O.2       0 UNK        -0.5000 
      4 N           0.1607  -12.9882  -47.3763 N.am      1 UNK        -0.5000 
      5 CA         -1.2485  -13.1552  -47.0035 C.3       1 UNK         0.1400 
      6 C6         -2.1756  -12.0179  -47.5194 C.3       23 UNK        -0.0398 
      7 S7         -2.1635  -11.8708  -49.3393 S.3       23 UNK        -0.2404 
      8 C8         -3.7051  -12.7259  -49.7975 C.3       23 UNK        -0.0205 
      9 C9         -3.6010  -14.2285  -49.5858 C.ar      23 UNK        -0.0193 
     10 C10        -2.9585  -15.0265  -50.5382 C.ar      23 UNK        -0.1150 
     11 C11        -2.8463  -16.4065  -50.3470 C.ar      23 UNK        -0.0193 
     12 C12        -3.3809  -16.9848  -49.1944 C.ar      23 UNK        -0.1150 
     13 C13        -4.0321  -16.2001  -48.2406 C.ar      23 UNK        -0.0193 
     14 C14        -4.1437  -14.8217  -48.4411 C.ar      23 UNK        -0.1150 
     15 C15        -4.6065  -16.8581  -46.9996 C.3       23 UNK        -0.0205 
     16 S16        -3.2732  -17.3374  -45.8634 S.3       23 UNK        -0.2404 
     17 C17        -4.0357  -18.7499  -45.0066 C.3       23 UNK        -0.0398 
     18 CA         -3.8241  -20.0957  -45.7462 C.3       11 UNK         0.1400 
     19 N          -2.4184  -20.3907  -46.0534 N.am      11 UNK        -0.5000 
     20 C          -1.9954  -21.4228  -46.8002 C.2       10 UNK         0.5000 
     21 O          -2.7467  -22.2160  -47.3658 O.2       10 UNK        -0.5000 
     22 CA         -0.4786  -21.6450  -46.8969 C.3       10 UNK         0.1400 
     23 CB          0.1247  -20.8243  -48.0466 C.3       10 UNK        -0.1800 
     24 N           0.1892  -21.3343  -45.6330 N.am      10 UNK        -0.5000 
     25 C           0.1121  -22.1091  -44.5396 C.2       9 UNK         0.5000 
     26 O          -0.4776  -23.1886  -44.5122 O.2       9 UNK        -0.5000 
     27 CA          0.7589  -21.5724  -43.2486 C.3       9 UNK         0.1400 
     28 CB          2.2487  -21.9402  -43.1964 C.3       9 UNK        -0.1800 
     29 N           0.6110  -20.1246  -43.1044 N.am      9 UNK        -0.5000 
     30 C          -0.5630  -19.4971  -42.9346 C.2       8 UNK         0.5000 
     31 O          -1.6359  -20.0866  -42.8049 O.2       8 UNK        -0.5000 
     32 CA         -0.5492  -17.9551  -42.9716 C.3       8 UNK         0.1400 
     33 CB         -0.4696  -17.3818  -41.5491 C.3       8 UNK        -0.1800 
     34 N           0.5386  -17.3975  -43.7779 N.am      8 UNK        -0.5000 
     35 C           0.7441  -17.6422  -45.0804 C.2       7 UNK         0.5000 
     36 O           0.0079  -18.3545  -45.7614 O.2       7 UNK        -0.5000 
     37 CA          2.0234  -17.0611  -45.7120 C.3       7 UNK         0.1400 
     38 CB          1.6937  -15.8412  -46.5784 C.3       7 UNK        -0.1800 
     39 N           3.0567  -16.6883  -44.7410 N.am      7 UNK        -0.5000 
     40 C           3.7335  -17.5496  -43.9657 C.2       6 UNK         0.5000 
     41 O           3.4851  -18.7559  -43.9272 O.2       6 UNK        -0.5000 
     42 CA          4.8344  -16.9596  -43.0559 C.3       6 UNK         0.1400 
     43 CB          5.9666  -17.9661  -42.7644 C.3       6 UNK        -0.1800 
     44 N           5.3736  -15.6785  -43.5332 N.am      6 UNK        -0.5000 
     45 C           6.0547  -15.4403  -44.6667 C.2       5 UNK         0.5000 
     46 O           6.3701  -16.3159  -45.4733 O.2       5 UNK        -0.5000 
     47 CA          6.4051  -13.9652  -44.9539 C.3       5 UNK         0.1400 
     48 CB          6.4880  -13.6674  -46.4620 C.3       5 UNK        -0.1800 
     49 N           5.3973  -13.0879  -44.3607 N.am      5 UNK        -0.5000 
     50 C           5.5907  -12.1462  -43.4354 C.2       4 UNK         0.5000 
     51 O           6.6949  -11.8438  -42.9825 O.2       4 UNK        -0.5000 
     52 CA          4.3257  -11.4419  -42.9034 C.3       4 UNK         0.1400 
     53 CB          3.7302  -10.4888  -43.9569 C.3       4 UNK        -0.1800 
     54 N           3.2951  -12.3448  -42.3645 N.am      4 UNK        -0.5000 
     55 C           2.5672  -13.2809  -42.9923 C.2       3 UNK         0.5000 
     56 O           2.7145  -13.5985  -44.1736 O.2       3 UNK        -0.5000 
     57 CA          1.5070  -14.0329  -42.1674 C.3       3 UNK         0.1400 
     58 CB          1.6399  -13.8743  -40.6363 C.3       3 UNK        -0.1800 
     59 N           0.1606  -13.6988  -42.6333 N.am      3 UNK        -0.5000 
     60 C          -0.4531  -12.5096  -42.5676 C.2       2 UNK         0.5000 
     61 O           0.0279  -11.5098  -42.0312 O.2       2 UNK        -0.5000 
     62 CA         -1.8356  -12.4351  -43.2468 C.3       2 UNK         0.1400 
     63 CB         -2.6560  -11.2169  -42.7868 C.3       2 UNK        -0.1800 
     64 N          -1.7055  -12.3876  -44.7018 N.am      2 UNK        -0.5000 
     65 C          -1.3867  -13.4240  -45.4883 C.2       1 UNK         0.5000 
     66 O          -1.1916  -14.5607  -45.0559 O.2       1 UNK        -0.5000 
     67 C          -4.4760  -21.2434  -44.9518 C.2       11 UNK         0.5000 
     68 O          -5.5400  -21.7258  -45.3416 O.2       11 UNK        -0.5000 
     69 N          -3.7955  -21.6958  -43.8877 N.am      12 UNK        -0.5000 
     70 CA         -4.1990  -22.8269  -43.0472 C.3       12 UNK         0.1400 
     71 CB         -3.2327  -22.9383  -41.8585 C.3       12 UNK        -0.1800 
     72 C          -4.2678  -24.1618  -43.8144 C.2       12 UNK         0.5000 
     73 O          -5.1164  -24.9993  -43.5079 O.2       12 UNK        -0.5000 
     74 N          -3.3984  -24.3144  -44.8204 N.am      13 UNK        -0.5000 
     75 CA         -3.3521  -25.4492  -45.7396 C.3       13 UNK         0.1400 
     76 CB         -1.9004  -25.6360  -46.2085 C.3       13 UNK        -0.1800 
     77 C          -4.3155  -25.3132  -46.9390 C.2       13 UNK         0.5000 
     78 O          -4.2420  -26.1426  -47.8444 O.2       13 UNK        -0.5000 
     79 N          -5.1854  -24.2904  -46.9484 N.am      14 UNK        -0.5000 
     80 CA         -6.1878  -23.9890  -47.9774 C.3       14 UNK         0.1400 
     81 CB         -7.2633  -25.0941  -48.0391 C.3       14 UNK        -0.1800 
     82 C          -5.5433  -23.6979  -49.3470 C.2       14 UNK         0.5000 
     83 O          -5.7310  -24.4526  -50.3039 O.2       14 UNK        -0.5000 
     84 N          -4.7496  -22.6187  -49.3874 N.am      15 UNK        -0.5000 
     85 CA         -3.9393  -22.1571  -50.5205 C.3       15 UNK         0.1400 
     86 CB         -4.8320  -21.7094  -51.6975 C.3       15 UNK        -0.1800 
     87 C          -2.8709  -23.1949  -50.9178 C.2       15 UNK         0.5000 
     88 O          -2.6546  -23.4423  -52.1054 O.2       15 UNK        -0.5000 
     89 N          -2.2495  -23.8067  -49.8970 N.am      16 UNK        -0.5000 
     90 CA         -1.2711  -24.8960  -49.9894 C.3       16 UNK         0.1400 
     91 CB          0.0570  -24.3711  -50.5747 C.3       16 UNK        -0.1800 
     92 C          -1.8320  -26.1141  -50.7547 C.2       16 UNK         0.5000 
     93 O          -1.2233  -26.5690  -51.7220 O.2       16 UNK        -0.5000 
     94 N          -3.0188  -26.5807  -50.3392 N.am      17 UNK        -0.5000 
     95 CA         -3.8393  -27.6128  -50.9843 C.3       17 UNK         0.1400 
     96 CB         -3.1657  -28.9965  -50.8756 C.3       17 UNK        -0.1800 
     97 C          -4.2279  -27.2334  -52.4302 C.2       17 UNK         0.5000 
     98 O          -4.1805  -28.0732  -53.3309 O.2       17 UNK        -0.5000 
     99 N          -4.5785  -25.9525  -52.6152 N.am      18 UNK        -0.5000 
    100 CA        -4.9086  -25.2778  -53.8743 C.3       18 UNK         0.1400 
    101 CB        -6.2213  -25.8366  -54.4612 C.3       18 UNK        -0.1800 
    102 C         -3.7602  -25.2388  -54.9097 C.2       18 UNK         0.5000 
    103 O         -4.0262  -25.0372  -56.0963 O.2       18 UNK        -0.5000 
    104 N         -2.5079  -25.4181  -54.4647 N.am      19 UNK        -0.5000 
    105 CA        -1.3185  -25.3315  -55.3133 C.3       19 UNK         0.1400 
    106 CB        -0.1777  -26.1511  -54.6934 C.3       19 UNK        -0.1800 
    107 C         -0.8638  -23.8795  -55.5442 C.2       19 UNK         0.5000 
    108 O         -0.2511  -23.6024  -56.5769 O.2       19 UNK        -0.5000 
    109 N         -1.1510  -22.9816  -54.5911 N.am      20 UNK        -0.5000 
    110 CA        -0.8458  -21.5559  -54.6939 C.3       20 UNK         0.1400 
    111 CB        -0.8696  -20.9320  -53.2906 C.3       20 UNK        -0.1800 
    112 C         -1.8366  -20.8388  -55.6287 C.2       20 UNK         0.5000 
    113 O         -2.9851  -21.2695  -55.7654 O.2       20 UNK        -0.5000 
    114 N         -1.3847  -19.7266  -56.2250 N.am      21 UNK        -0.5000 
    115 CA        -2.1367  -18.9069  -57.1853 C.3       21 UNK         0.1400 
    116 CB        -1.2135  -17.8042  -57.7264 C.3       21 UNK        -0.1800 
    117 C         -3.4385  -18.2937  -56.6280 C.2       21 UNK         0.5000 
    118 O         -4.3415  -17.9768  -57.4034 O.2       21 UNK        -0.5000 
    119 N         -3.5161  -18.1589  -55.2998 N.am      22 UNK        -0.5000 
    120 CA        -4.7249  -17.8014  -54.5457 C.3       22 UNK         0.1400 
    121 C         -5.8199  -18.9113  -54.4925 C.2       22 UNK         0.5000 
    122 N         -5.5545  -20.1454  -54.9069 N.am      22 UNK        -0.7600 
    123 O         -6.9448  -18.6384  -54.0822 O.2       22 UNK        -0.5000 
    124 C124       -4.3682  -17.2762  -53.1313 C.3       23 UNK        -0.0398 
    125 S125       -3.3187  -18.4272  -52.1725 S.3       23 UNK        -0.2404 
    126 C126       -2.1503  -17.2821  -51.3771 C.3       23 UNK        -0.0205 
    127 H127        2.5163  -12.7601  -48.3471 H         1 UNK         0.0600 
    128 H128        3.0777  -12.5545  -46.6865 H         1 UNK         0.0600 
    129 H129        2.8218  -11.1412  -47.7158 H         1 UNK         0.0600 
    130 H130        0.5191  -13.7139  -47.9793 H         1 UNK         0.3000 
    131 H131       -1.5665  -14.0790  -47.4886 H         1 UNK         0.0600 
    132 H132       -1.8731  -11.0518  -47.1139 H         1 UNK         0.0800 
    133 H133       -3.2015  -12.1767  -47.1837 H         1 UNK         0.0800 
    134 H134       -4.5416  -12.3103  -49.2336 H         1 UNK         0.0800 
    135 H135       -3.9194  -12.5235  -50.8479 H         1 UNK         0.0800 
    136 H136       -2.5415  -14.5691  -51.4245 H         1 UNK         0.1150 
    137 H137       -3.2915  -18.0513  -49.0398 H         1 UNK         0.1150 
    138 H138       -4.6439  -14.2110  -47.7028 H         1 UNK         0.1150 
    139 H139       -5.3000  -16.1919  -46.4845 H         1 UNK         0.0800 
    140 H140       -5.1808  -17.7355  -47.3002 H         1 UNK         0.0800 
    141 H141       -5.1003  -18.5471  -44.8753 H         1 UNK         0.0800 
    142 H142       -3.6152  -18.7895  -44.0015 H         1 UNK         0.0800 
    143 H143       -4.3466  -20.0320  -46.7029 H         1 UNK         0.0600 
    144 H144       -1.7284  -19.7508  -45.6785 H         1 UNK         0.3000 
    145 H145       -0.3083  -22.6996  -47.1224 H         1 UNK         0.0600 
    146 H146       -0.0613  -19.7567  -47.9313 H         1 UNK         0.0600 
    147 H147        1.2023  -20.9732  -48.1155 H         1 UNK         0.0600 
    148 H148       -0.3067  -21.1254  -49.0023 H         1 UNK         0.0600 
    149 H149        0.6129  -20.4183  -45.5604 H         1 UNK         0.3000 
    150 H150        0.2591  -22.0490  -42.4026 H         1 UNK         0.0600 
    151 H151        2.3865  -23.0202  -43.2635 H         1 UNK         0.0600 
    152 H152        2.7043  -21.6112  -42.2623 H         1 UNK         0.0600 
    153 H153        2.8047  -21.4863  -44.0178 H         1 UNK         0.0600 
    154 H154        1.4493  -19.5708  -43.2282 H         1 UNK         0.3000 
    155 H155       -1.4894  -17.6290  -43.4185 H         1 UNK         0.0600 
    156 H156       -1.2598  -17.7917  -40.9185 H         1 UNK         0.0600 
    157 H157       -0.5923  -16.2992  -41.5515 H         1 UNK         0.0600 
    158 H158        0.4838  -17.6138  -41.0728 H         1 UNK         0.0600 
    159 H159        1.2181  -16.8321  -43.2969 H         1 UNK         0.3000 
    160 H160        2.4386  -17.8350  -46.3608 H         1 UNK         0.0600 
    161 H161        2.5710  -15.4912  -47.1226 H         1 UNK         0.0600 
    162 H162        0.9213  -16.0757  -47.3123 H         1 UNK         0.0600 
    163 H163        1.3283  -15.0193  -45.9646 H         1 UNK         0.0600 
    164 H164        3.2907  -15.7052  -44.6976 H         1 UNK         0.3000 
    165 H165        4.3441  -16.7414  -42.1062 H         1 UNK         0.0600 
    166 H166        6.4570  -18.3023  -43.6783 H         1 UNK         0.0600 
    167 H167        6.7263  -17.5289  -42.1166 H         1 UNK         0.0600 
    168 H168        5.5822  -18.8522  -42.2579 H         1 UNK         0.0600 
    169 H169        5.1861  -14.8811  -42.9428 H         1 UNK         0.3000 
    170 H170        7.3843  -13.7788  -44.5090 H         1 UNK         0.0600 
    171 H171        5.5476  -13.8919  -46.9672 H         1 UNK         0.0600 
    172 H172        6.7220  -12.6182  -46.6426 H         1 UNK         0.0600 
    173 H173        7.2700  -14.2593  -46.9390 H         1 UNK         0.0600 
    174 H174        4.4287  -13.2853  -44.6062 H         1 UNK         0.3000 
    175 H175        4.6463  -10.8275  -42.0606 H         1 UNK         0.0600 
    176 H176        3.3568  -11.0233  -44.8295 H         1 UNK         0.0600 
    177 H177        2.9011   -9.9152  -43.5423 H         1 UNK         0.0600 
    178 H178        4.4778   -9.7757  -44.3064 H         1 UNK         0.0600 
    179 H179        3.0853  -12.1958  -41.3873 H         1 UNK         0.3000 
    180 H180        1.6529  -15.0894  -42.3903 H         1 UNK         0.0600 
    181 H181        1.4965  -12.8460  -40.3042 H         1 UNK         0.0600 
    182 H182        2.6231  -14.1989  -40.2931 H         1 UNK         0.0600 
    183 H183        0.9035  -14.4897  -40.1193 H         1 UNK         0.0600 
    184 H184       -0.2870  -14.3952  -43.2209 H         1 UNK         0.3000 
    185 H185       -2.3927  -13.3332  -42.9706 H         1 UNK         0.0600 
    186 H186       -3.6546  -11.2270  -43.2241 H         1 UNK         0.0600 
    187 H187       -2.7771  -11.2152  -41.7028 H         1 UNK         0.0600 
    188 H188       -2.1777  -10.2772  -43.0661 H         1 UNK         0.0600 
    189 H189       -1.7457  -11.4679  -45.1161 H         1 UNK         0.3000 
    190 H190       -2.9406  -21.2169  -43.6146 H         1 UNK         0.3000 
    191 H191       -5.1979  -22.6154  -42.6606 H         1 UNK         0.0600 
    192 H192       -2.2097  -23.1220  -42.1892 H         1 UNK         0.0600 
    193 H193       -3.2321  -22.0245  -41.2639 H         1 UNK         0.0600 
    194 H194       -3.5176  -23.7573  -41.1969 H         1 UNK         0.0600 
    195 H195       -2.7110  -23.5880  -44.9746 H         1 UNK         0.3000 
    196 H196       -3.6459  -26.3535  -45.2030 H         1 UNK         0.0600 
    197 H197       -1.2363  -25.8145  -45.3626 H         1 UNK         0.0600 
    198 H198       -1.5368  -24.7536  -46.7333 H         1 UNK         0.0600 
    199 H199       -1.8022  -26.4905  -46.8790 H         1 UNK         0.0600 
    200 H200       -5.1437  -23.6248  -46.1854 H         1 UNK         0.3000 
    201 H201       -6.6846  -23.0695  -47.6641 H         1 UNK         0.0600 
    202 H202       -8.0556  -24.8243  -48.7382 H         1 UNK         0.0600 
    203 H203       -7.7271  -25.2461  -47.0646 H         1 UNK         0.0600 
    204 H204       -6.8532  -26.0495  -48.3675 H         1 UNK         0.0600 
    205 H205       -4.5585  -22.1488  -48.5109 H         1 UNK         0.3000 
    206 H206       -3.3899  -21.2800  -50.1751 H         1 UNK         0.0600 
    207 H207       -4.2331  -21.3480  -52.5335 H         1 UNK         0.0600 
    208 H208       -5.4906  -20.8936  -51.4001 H         1 UNK         0.0600 
    209 H209       -5.4555  -22.5185  -52.0740 H         1 UNK         0.0600 
    210 H210       -2.5103  -23.5154  -48.9610 H         1 UNK         0.3000 
    211 H211       -1.0709  -25.2356  -48.9743 H         1 UNK         0.0600 
    212 H212        0.4400  -23.5336  -49.9918 H         1 UNK         0.0600 
    213 H213        0.8211  -25.1492  -50.5663 H         1 UNK         0.0600 
    214 H214       -0.0560  -24.0365  -51.6065 H         1 UNK         0.0600 
    215 H215       -3.4429  -26.1721  -49.5087 H         1 UNK         0.3000 
    216 H216       -4.7718  -27.6541  -50.4195 H         1 UNK         0.0600 
    217 H217       -3.8291  -29.7824  -51.2380 H         1 UNK         0.0600 
    218 H218       -2.2473  -29.0489  -51.4610 H         1 UNK         0.0600 
    219 H219       -2.9184  -29.2329  -49.8407 H         1 UNK         0.0600 
    220 H220       -4.6256  -25.3601  -51.7920 H         1 UNK         0.3000 
    221 H221       -5.0905  -24.2366  -53.6094 H         1 UNK         0.0600 
    222 H222       -7.0188  -25.8296  -53.7182 H         1 UNK         0.0600 
    223 H223       -6.5623  -25.2350  -55.3045 H         1 UNK         0.0600 
    224 H224       -6.1020  -26.8601  -54.8174 H         1 UNK         0.0600 
    225 H225       -2.3550  -25.5637  -53.4740 H         1 UNK         0.3000 
    226 H226       -1.5487  -25.7689  -56.2871 H         1 UNK         0.0600 
    227 H227       -0.4920  -27.1733  -54.4814 H         1 UNK         0.0600 
    228 H228        0.6741  -26.2052  -55.3722 H         1 UNK         0.0600 
    229 H229        0.1770  -25.7065  -53.7631 H         1 UNK         0.0600 
    230 H230       -1.7023  -23.2693  -53.7867 H         1 UNK         0.3000 
    231 H231        0.1619  -21.4450  -55.1001 H         1 UNK         0.0600 
    232 H232       -0.5675  -19.8846  -53.3197 H         1 UNK         0.0600 
    233 H233       -0.1882  -21.4492  -52.6148 H         1 UNK         0.0600 
    234 H234       -1.8663  -20.9716  -52.8533 H         1 UNK         0.0600 
    235 H235       -0.4358  -19.4321  -56.0435 H         1 UNK         0.3000 
    236 H236       -2.4191  -19.5549  -58.0175 H         1 UNK         0.0600 
    237 H237       -0.3346  -18.2274  -58.2129 H         1 UNK         0.0600 
    238 H238       -1.7284  -17.1910  -58.4673 H         1 UNK         0.0600 
    239 H239       -0.8722  -17.1402  -56.9312 H         1 UNK         0.0600 
    240 H240       -2.7307  -18.4580  -54.7416 H         1 UNK         0.3000 
    241 H241       -5.1927  -16.9708  -55.0777 H         1 UNK         0.0600 
    242 H242       -4.6310  -20.4090  -55.2382 H         1 UNK         0.3800 
    243 H243       -6.2832  -20.8388  -54.8732 H         1 UNK         0.3800 
    244 H244       -3.8462  -16.3241  -53.2336 H         1 UNK         0.0800 
    245 H245       -5.2665  -17.0541  -52.5526 H         1 UNK         0.0800 
    246 H246       -1.3697  -17.8619  -50.8826 H         1 UNK         0.0800 
    247 H247       -1.6515  -16.6792  -52.1375 H         1 UNK         0.0800 
@<TRIPOS>BOND
     1    1    2 1    
     2    1  127 1    
     3    1  128 1    
     4    1  129 1    
     5    2    3 2    
     6    2    4 am   BACKBONE|DICT|INTERRES
     7    4    5 1    
     8    4  130 1    
     9    5    6 1    
    10    5   65 1    
    11    5  131 1    
    12    6    7 1    
    13    6  132 1    
    14    6  133 1    
    15    7    8 1    
    16    8    9 1    
    17    8  134 1    
    18    8  135 1    
    19    9   10 ar   
    20    9   14 ar   
    21   10   11 ar   
    22   10  136 1    
    23   11   12 ar   
    24   11  126 1    
    25   12   13 ar   
    26   12  137 1    
    27   13   14 ar   
    28   13   15 1    
    29   14  138 1    
    30   15   16 1    
    31   15  139 1    
    32   15  140 1    
    33   16   17 1    
    34   17   18 1    
    35   17  141 1    
    36   17  142 1    
    37   18   19 1    
    38   18   67 1    
    39   18  143 1    
    40   19   20 am   BACKBONE|DICT|INTERRES
    41   19  144 1    
    42   20   21 2    
    43   20   22 1    
    44   22   23 1    
    45   22   24 1    
    46   22  145 1    
    47   23  146 1    
    48   23  147 1    
    49   23  148 1    
    50   24   25 am   BACKBONE|DICT|INTERRES
    51   24  149 1    
    52   25   26 2    
    53   25   27 1    
    54   27   28 1    
    55   27   29 1    
    56   27  150 1    
    57   28  151 1    
    58   28  152 1    
    59   28  153 1    
    60   29   30 am   BACKBONE|DICT|INTERRES
    61   29  154 1    
    62   30   31 2    
    63   30   32 1    
    64   32   33 1    
    65   32   34 1    
    66   32  155 1    
    67   33  156 1    
    68   33  157 1    
    69   33  158 1    
    70   34   35 am   BACKBONE|DICT|INTERRES
    71   34  159 1    
    72   35   36 2    
    73   35   37 1    
    74   37   38 1    
    75   37   39 1    
    76   37  160 1    
    77   38  161 1    
    78   38  162 1    
    79   38  163 1    
    80   39   40 am   BACKBONE|DICT|INTERRES
    81   39  164 1    
    82   40   41 2    
    83   40   42 1    
    84   42   43 1    
    85   42   44 1    
    86   42  165 1    
    87   43  166 1    
    88   43  167 1    
    89   43  168 1    
    90   44   45 am   BACKBONE|DICT|INTERRES
    91   44  169 1    
    92   45   46 2    
    93   45   47 1    
    94   47   48 1    
    95   47   49 1    
    96   47  170 1    
    97   48  171 1    
    98   48  172 1    
    99   48  173 1    
   100   49   50 am   BACKBONE|DICT|INTERRES
   101   49  174 1    
   102   50   51 2    
   103   50   52 1    
   104   52   53 1    
   105   52   54 1    
   106   52  175 1    
   107   53  176 1    
   108   53  177 1    
   109   53  178 1    
   110   54   55 am   BACKBONE|DICT|INTERRES
   111   54  179 1    
   112   55   56 2    
   113   55   57 1    
   114   57   58 1    
   115   57   59 1    
   116   57  180 1    
   117   58  181 1    
   118   58  182 1    
   119   58  183 1    
   120   59   60 am   BACKBONE|DICT|INTERRES
   121   59  184 1    
   122   60   61 2    
   123   60   62 1    
   124   62   63 1    
   125   62   64 1    
   126   62  185 1    
   127   63  186 1    
   128   63  187 1    
   129   63  188 1    
   130   64   65 am   BACKBONE|DICT|INTERRES
   131   64  189 1    
   132   65   66 2    
   133   67   68 2    
   134   67   69 am   BACKBONE|DICT|INTERRES
   135   69   70 1    
   136   69  190 1    
   137   70   71 1    
   138   70   72 1    
   139   70  191 1    
   140   71  192 1    
   141   71  193 1    
   142   71  194 1    
   143   72   73 2    
   144   72   74 am   BACKBONE|DICT|INTERRES
   145   74   75 1    
   146   74  195 1    
   147   75   76 1    
   148   75   77 1    
   149   75  196 1    
   150   76  197 1    
   151   76  198 1    
   152   76  199 1    
   153   77   78 2    
   154   77   79 am   BACKBONE|DICT|INTERRES
   155   79   80 1    
   156   79  200 1    
   157   80   81 1    
   158   80   82 1    
   159   80  201 1    
   160   81  202 1    
   161   81  203 1    
   162   81  204 1    
   163   82   83 2    
   164   82   84 am   BACKBONE|DICT|INTERRES
   165   84   85 1    
   166   84  205 1    
   167   85   86 1    
   168   85   87 1    
   169   85  206 1    
   170   86  207 1    
   171   86  208 1    
   172   86  209 1    
   173   87   88 2    
   174   87   89 am   BACKBONE|DICT|INTERRES
   175   89   90 1    
   176   89  210 1    
   177   90   91 1    
   178   90   92 1    
   179   90  211 1    
   180   91  212 1    
   181   91  213 1    
   182   91  214 1    
   183   92   93 2    
   184   92   94 am   BACKBONE|DICT|INTERRES
   185   94   95 1    
   186   94  215 1    
   187   95   96 1    
   188   95   97 1    
   189   95  216 1    
   190   96  217 1    
   191   96  218 1    
   192   96  219 1    
   193   97   98 2    
   194   97   99 am   BACKBONE|DICT|INTERRES
   195   99  100 1    
   196   99  220 1    
   197  100  101 1    
   198  100  102 1    
   199  100  221 1    
   200  101  222 1    
   201  101  223 1    
   202  101  224 1    
   203  102  103 2    
   204  102  104 am   BACKBONE|DICT|INTERRES
   205  104  105 1    
   206  104  225 1    
   207  105  106 1    
   208  105  107 1    
   209  105  226 1    
   210  106  227 1    
   211  106  228 1    
   212  106  229 1    
   213  107  108 2    
   214  107  109 am   BACKBONE|DICT|INTERRES
   215  109  110 1    
   216  109  230 1    
   217  110  111 1    
   218  110  112 1    
   219  110  231 1    
   220  111  232 1    
   221  111  233 1    
   222  111  234 1    
   223  112  113 2    
   224  112  114 am   BACKBONE|DICT|INTERRES
   225  114  115 1    
   226  114  235 1    
   227  115  116 1    
   228  115  117 1    
   229  115  236 1    
   230  116  237 1    
   231  116  238 1    
   232  116  239 1    
   233  117  118 2    
   234  117  119 am   BACKBONE|DICT|INTERRES
   235  119  120 1    
   236  119  240 1    
   237  120  121 1    
   238  120  124 1    
   239  120  241 1    
   240  121  122 am   BACKBONE|DICT|INTERRES
   241  121  123 2    
   242  122  242 1    
   243  122  243 1    
   244  124  125 1    
   245  124  244 1    
   246  124  245 1    
   247  125  126 1    
   248  126  246 1    
   249  126  247 1    
@<TRIPOS>SUBSTRUCTURE
     1 UNK         1 GROUP             0       ****    0 ROOT    
