@<TRIPOS>MOLECULE
3R540
247   249    1
SMALL
USER_CHARGES


@<TRIPOS>ATOM
      1 CA          1.5201  -12.6038  -50.9442 C.3       0 UNK        -0.1800 
      2 C           1.6031  -13.2139  -49.5527 C.2       0 UNK         0.5000 
      3 O           0.6227  -13.7855  -49.0790 O.2       0 UNK        -0.5000 
      4 N           2.7678  -13.0870  -48.8989 N.am      1 UNK        -0.5000 
      5 CA          3.1060  -13.6305  -47.5706 C.3       1 UNK         0.1400 
      6 C6          3.0308  -15.1851  -47.5006 C.3       23 UNK        -0.0398 
      7 S7          4.3566  -15.9967  -48.4563 S.3       23 UNK        -0.2404 
      8 C8          3.5564  -16.3794  -50.0477 C.3       23 UNK        -0.0205 
      9 C9          2.5558  -17.5243  -49.9648 C.ar      23 UNK        -0.0193 
     10 C10         1.1921  -17.2892  -50.1703 C.ar      23 UNK        -0.1150 
     11 C11         0.2851  -18.3534  -50.1974 C.ar      23 UNK        -0.0193 
     12 C12         0.7446  -19.6549  -49.9794 C.ar      23 UNK        -0.1150 
     13 C13         2.1026  -19.9028  -49.7633 C.ar      23 UNK        -0.0193 
     14 C14         3.0039  -18.8337  -49.7624 C.ar      23 UNK        -0.1150 
     15 C15         2.5935  -21.3326  -49.5795 C.3       23 UNK        -0.0205 
     16 S16         3.3604  -21.6318  -47.9533 S.3       23 UNK        -0.2404 
     17 C17         2.0553  -21.1272  -46.7836 C.3       23 UNK        -0.0398 
     18 CA          1.1245  -22.2899  -46.3573 C.3       11 UNK         0.1400 
     19 N           0.6263  -22.1116  -44.9919 N.am      11 UNK        -0.5000 
     20 C          -0.0914  -23.0084  -44.3021 C.2       10 UNK         0.5000 
     21 O          -0.3720  -24.1318  -44.7214 O.2       10 UNK        -0.5000 
     22 CA         -0.6276  -22.5483  -42.9333 C.3       10 UNK         0.1400 
     23 CB          0.4505  -22.6689  -41.8459 C.3       10 UNK        -0.1800 
     24 N          -1.1371  -21.1757  -42.9724 N.am      10 UNK        -0.5000 
     25 C          -2.2266  -20.7992  -43.6572 C.2       9 UNK         0.5000 
     26 O          -2.9414  -21.5807  -44.2839 O.2       9 UNK        -0.5000 
     27 CA         -2.5474  -19.2938  -43.6859 C.3       9 UNK         0.1400 
     28 CB         -3.2665  -18.8651  -42.3984 C.3       9 UNK        -0.1800 
     29 N          -1.3598  -18.4628  -43.8829 N.am      9 UNK        -0.5000 
     30 C          -0.5755  -18.4964  -44.9699 C.2       8 UNK         0.5000 
     31 O          -0.7905  -19.2068  -45.9480 O.2       8 UNK        -0.5000 
     32 CA          0.6934  -17.6307  -44.9412 C.3       8 UNK         0.1400 
     33 CB          0.3475  -16.1778  -45.2906 C.3       8 UNK        -0.1800 
     34 N           1.3803  -17.6859  -43.6495 N.am      8 UNK        -0.5000 
     35 C           1.8630  -18.8015  -43.0824 C.2       7 UNK         0.5000 
     36 O           1.8122  -19.9125  -43.6069 O.2       7 UNK        -0.5000 
     37 CA          2.4506  -18.6649  -41.6696 C.3       7 UNK         0.1400 
     38 CB          3.9150  -18.2038  -41.7231 C.3       7 UNK        -0.1800 
     39 N           1.6632  -17.7372  -40.8596 N.am      7 UNK        -0.5000 
     40 C           0.4722  -18.0345  -40.3218 C.2       6 UNK         0.5000 
     41 O          -0.0518  -19.1468  -40.3956 O.2       6 UNK        -0.5000 
     42 CA         -0.2719  -16.8862  -39.6125 C.3       6 UNK         0.1400 
     43 CB          0.2003  -16.7527  -38.1570 C.3       6 UNK        -0.1800 
     44 N          -0.1140  -15.5983  -40.2934 N.am      6 UNK        -0.5000 
     45 C          -0.6232  -15.3189  -41.5012 C.2       5 UNK         0.5000 
     46 O          -1.3106  -16.1097  -42.1466 O.2       5 UNK        -0.5000 
     47 CA         -0.2781  -13.9453  -42.1123 C.3       5 UNK         0.1400 
     48 CB         -1.3172  -12.8965  -41.6904 C.3       5 UNK        -0.1800 
     49 N           1.0662  -13.4415  -41.8082 N.am      5 UNK        -0.5000 
     50 C           2.2170  -14.0987  -42.0117 C.2       4 UNK         0.5000 
     51 O           2.2761  -15.2694  -42.3872 O.2       4 UNK        -0.5000 
     52 CA          3.5034  -13.2890  -41.7930 C.3       4 UNK         0.1400 
     53 CB          4.7824  -14.1171  -42.0141 C.3       4 UNK        -0.1800 
     54 N           3.4877  -12.1701  -42.7268 N.am      4 UNK        -0.5000 
     55 C           3.7355  -10.8898  -42.4239 C.2       3 UNK         0.5000 
     56 O           4.0771  -10.5077  -41.3041 O.2       3 UNK        -0.5000 
     57 CA          3.5627   -9.8516  -43.5545 C.3       3 UNK         0.1400 
     58 CB          4.9292   -9.4657  -44.1412 C.3       3 UNK        -0.1800 
     59 N           2.6945  -10.3083  -44.6427 N.am      3 UNK        -0.5000 
     60 C           1.3813  -10.5518  -44.5312 C.2       2 UNK         0.5000 
     61 O           0.7309  -10.3170  -43.5124 O.2       2 UNK        -0.5000 
     62 CA          0.6787  -11.1969  -45.7436 C.3       2 UNK         0.1400 
     63 CB         -0.1287  -10.1449  -46.5187 C.3       2 UNK        -0.1800 
     64 N           1.5631  -11.8983  -46.6832 N.am      2 UNK        -0.5000 
     65 C           2.3470  -12.9506  -46.4020 C.2       1 UNK         0.5000 
     66 O           2.5238  -13.3559  -45.2537 O.2       1 UNK        -0.5000 
     67 C          -0.0334  -22.4882  -47.3565 C.2       11 UNK         0.5000 
     68 O          -0.0034  -23.4331  -48.1436 O.2       11 UNK        -0.5000 
     69 N          -1.0570  -21.6263  -47.2712 N.am      12 UNK        -0.5000 
     70 CA         -2.2854  -21.6989  -48.0577 C.3       12 UNK         0.1400 
     71 CB         -3.1664  -20.4727  -47.7775 C.3       12 UNK        -0.1800 
     72 C          -3.0673  -22.9968  -47.8094 C.2       12 UNK         0.5000 
     73 O          -3.5080  -23.6146  -48.7749 O.2       12 UNK        -0.5000 
     74 N          -3.1910  -23.4165  -46.5425 N.am      13 UNK        -0.5000 
     75 CA         -3.8280  -24.6771  -46.1550 C.3       13 UNK         0.1400 
     76 CB         -3.9192  -24.7701  -44.6246 C.3       13 UNK        -0.1800 
     77 C          -3.1168  -25.9104  -46.7433 C.2       13 UNK         0.5000 
     78 O          -3.7867  -26.8029  -47.2643 O.2       13 UNK        -0.5000 
     79 N          -1.7768  -25.9137  -46.6994 N.am      14 UNK        -0.5000 
     80 CA         -0.9303  -26.9468  -47.3008 C.3       14 UNK         0.1400 
     81 CB          0.5200  -26.7517  -46.8331 C.3       14 UNK        -0.1800 
     82 C          -1.0110  -26.9717  -48.8408 C.2       14 UNK         0.5000 
     83 O          -1.0136  -28.0511  -49.4333 O.2       14 UNK        -0.5000 
     84 N          -1.0986  -25.7862  -49.4570 N.am      15 UNK        -0.5000 
     85 CA         -1.2078  -25.5866  -50.9036 C.3       15 UNK         0.1400 
     86 CB         -0.7036  -24.1718  -51.2393 C.3       15 UNK        -0.1800 
     87 C          -2.6315  -25.7878  -51.4637 C.2       15 UNK         0.5000 
     88 O          -2.8124  -25.6527  -52.6747 O.2       15 UNK        -0.5000 
     89 N          -3.6243  -26.0397  -50.5948 N.am      16 UNK        -0.5000 
     90 CA         -5.0639  -26.1066  -50.8918 C.3       16 UNK         0.1400 
     91 CB         -5.3917  -27.3559  -51.7346 C.3       16 UNK        -0.1800 
     92 C          -5.5866  -24.7970  -51.5250 C.2       16 UNK         0.5000 
     93 O          -6.3422  -24.8193  -52.4999 O.2       16 UNK        -0.5000 
     94 N          -5.0890  -23.6716  -50.9926 N.am      17 UNK        -0.5000 
     95 CA         -5.2618  -22.2873  -51.4376 C.3       17 UNK         0.1400 
     96 CB         -6.7098  -21.8214  -51.1899 C.3       17 UNK        -0.1800 
     97 C          -4.7986  -22.0334  -52.8871 C.2       17 UNK         0.5000 
     98 O          -5.2327  -21.0529  -53.4905 O.2       17 UNK        -0.5000 
     99 N          -3.9570  -22.9255  -53.4345 N.am      18 UNK        -0.5000 
    100 CA        -3.5336  -22.9941  -54.8369 C.3       18 UNK         0.1400 
    101 CB        -2.6127  -21.8070  -55.1879 C.3       18 UNK        -0.1800 
    102 C         -4.7339  -23.1374  -55.7991 C.2       18 UNK         0.5000 
    103 O         -4.7595  -22.4989  -56.8510 O.2       18 UNK        -0.5000 
    104 N         -5.7338  -23.9362  -55.3894 N.am      19 UNK        -0.5000 
    105 CA        -7.0473  -24.0946  -56.0273 C.3       19 UNK         0.1400 
    106 CB        -6.9227  -24.7453  -57.4212 C.3       19 UNK        -0.1800 
    107 C         -7.8419  -22.7700  -56.0333 C.2       19 UNK         0.5000 
    108 O         -8.4237  -22.3896  -57.0499 O.2       19 UNK        -0.5000 
    109 N         -7.8109  -22.0878  -54.8796 N.am      20 UNK        -0.5000 
    110 CA        -8.4086  -20.7873  -54.5514 C.3       20 UNK         0.1400 
    111 CB        -9.9269  -20.7732  -54.8215 C.3       20 UNK        -0.1800 
    112 C         -7.6983  -19.5644  -55.1699 C.2       20 UNK         0.5000 
    113 O         -8.0952  -18.4365  -54.8708 O.2       20 UNK        -0.5000 
    114 N         -6.6450  -19.7726  -55.9737 N.am      21 UNK        -0.5000 
    115 CA        -5.8638  -18.7065  -56.6085 C.3       21 UNK         0.1400 
    116 CB        -4.9389  -19.3119  -57.6740 C.3       21 UNK        -0.1800 
    117 C         -5.0531  -17.8512  -55.6136 C.2       21 UNK         0.5000 
    118 O         -4.7756  -16.6888  -55.9123 O.2       21 UNK        -0.5000 
    119 N         -4.7035  -18.4241  -54.4541 N.am      22 UNK        -0.5000 
    120 CA        -4.0248  -17.7368  -53.3430 C.3       22 UNK         0.1400 
    121 C         -4.9908  -16.9629  -52.3955 C.2       22 UNK         0.5000 
    122 N         -6.3018  -16.9780  -52.6138 N.am      22 UNK        -0.7600 
    123 O         -4.5437  -16.3269  -51.4456 O.2       22 UNK        -0.5000 
    124 C124       -3.0897  -18.7084  -52.5643 C.3       23 UNK        -0.0398 
    125 S125       -1.4071  -18.0414  -52.3320 S.3       23 UNK        -0.2404 
    126 C126       -1.1799  -18.1136  -50.5267 C.3       23 UNK        -0.0205 
    127 H127        2.4574  -12.1298  -51.2367 H         1 UNK         0.0600 
    128 H128        0.7324  -11.8511  -50.9776 H         1 UNK         0.0600 
    129 H129        1.2866  -13.3762  -51.6771 H         1 UNK         0.0600 
    130 H130        3.5228  -12.5914  -49.3530 H         1 UNK         0.3000 
    131 H131        4.1476  -13.3518  -47.4038 H         1 UNK         0.0600 
    132 H132        3.1603  -15.5318  -46.4743 H         1 UNK         0.0800 
    133 H133        2.0570  -15.5584  -47.8170 H         1 UNK         0.0800 
    134 H134        3.0898  -15.4824  -50.4522 H         1 UNK         0.0800 
    135 H135        4.3339  -16.6533  -50.7620 H         1 UNK         0.0800 
    136 H136        0.8391  -16.2840  -50.3538 H         1 UNK         0.1150 
    137 H137        0.0468  -20.4797  -50.0089 H         1 UNK         0.1150 
    138 H138        4.0584  -19.0228  -49.6172 H         1 UNK         0.1150 
    139 H139        1.7809  -22.0452  -49.7261 H         1 UNK         0.0800 
    140 H140        3.3276  -21.5528  -50.3555 H         1 UNK         0.0800 
    141 H141        1.4971  -20.2683  -47.1587 H         1 UNK         0.0800 
    142 H142        2.5941  -20.7530  -45.9135 H         1 UNK         0.0800 
    143 H143        1.7072  -23.2136  -46.3466 H         1 UNK         0.0600 
    144 H144        0.8550  -21.2296  -44.5403 H         1 UNK         0.3000 
    145 H145       -1.4551  -23.2072  -42.6622 H         1 UNK         0.0600 
    146 H146        0.0568  -22.3886  -40.8686 H         1 UNK         0.0600 
    147 H147        0.8125  -23.6949  -41.7697 H         1 UNK         0.0600 
    148 H148        1.3110  -22.0328  -42.0532 H         1 UNK         0.0600 
    149 H149       -0.5982  -20.4714  -42.4866 H         1 UNK         0.3000 
    150 H150       -3.2203  -19.1148  -44.5269 H         1 UNK         0.0600 
    151 H151       -3.5810  -17.8227  -42.4522 H         1 UNK         0.0600 
    152 H152       -4.1609  -19.4665  -42.2307 H         1 UNK         0.0600 
    153 H153       -2.6258  -18.9752  -41.5228 H         1 UNK         0.0600 
    154 H154       -1.1460  -17.7935  -43.1494 H         1 UNK         0.3000 
    155 H155        1.3863  -18.0104  -45.6949 H         1 UNK         0.0600 
    156 H156       -0.4948  -15.8086  -44.7070 H         1 UNK         0.0600 
    157 H157        0.0760  -16.0858  -46.3428 H         1 UNK         0.0600 
    158 H158        1.1916  -15.5186  -45.1056 H         1 UNK         0.0600 
    159 H159        1.5205  -16.8034  -43.1641 H         1 UNK         0.3000 
    160 H160        2.4251  -19.6494  -41.1973 H         1 UNK         0.0600 
    161 H161        4.0225  -17.2422  -42.2248 H         1 UNK         0.0600 
    162 H162        4.5269  -18.9240  -42.2675 H         1 UNK         0.0600 
    163 H163        4.3362  -18.1096  -40.7222 H         1 UNK         0.0600 
    164 H164        1.9814  -16.7773  -40.8414 H         1 UNK         0.3000 
    165 H165       -1.3349  -17.1371  -39.6038 H         1 UNK         0.0600 
    166 H166       -0.3757  -15.9965  -37.6234 H         1 UNK         0.0600 
    167 H167        0.0764  -17.6937  -37.6192 H         1 UNK         0.0600 
    168 H168        1.2539  -16.4770  -38.0980 H         1 UNK         0.0600 
    169 H169        0.4430  -14.8960  -39.8295 H         1 UNK         0.3000 
    170 H170       -0.3334  -14.0498  -43.1966 H         1 UNK         0.0600 
    171 H171       -2.3289  -13.2313  -41.9241 H         1 UNK         0.0600 
    172 H172       -1.2756  -12.6978  -40.6189 H         1 UNK         0.0600 
    173 H173       -1.1613  -11.9530  -42.2137 H         1 UNK         0.0600 
    174 H174        1.1200  -12.4730  -41.5265 H         1 UNK         0.3000 
    175 H175        3.4908  -12.9355  -40.7601 H         1 UNK         0.0600 
    176 H176        4.8337  -14.5135  -43.0293 H         1 UNK         0.0600 
    177 H177        5.6747  -13.5145  -41.8449 H         1 UNK         0.0600 
    178 H178        4.8248  -14.9621  -41.3259 H         1 UNK         0.0600 
    179 H179        3.1755  -12.4052  -43.6658 H         1 UNK         0.3000 
    180 H180        3.1128   -8.9594  -43.1143 H         1 UNK         0.0600 
    181 H181        5.4203  -10.3189  -44.6109 H         1 UNK         0.0600 
    182 H182        5.5963   -9.0898  -43.3643 H         1 UNK         0.0600 
    183 H183        4.8301   -8.6795  -44.8900 H         1 UNK         0.0600 
    184 H184        3.1441  -10.5312  -45.5182 H         1 UNK         0.3000 
    185 H185       -0.0192  -11.9366  -45.3458 H         1 UNK         0.0600 
    186 H186       -0.8264   -9.6233  -45.8618 H         1 UNK         0.0600 
    187 H187        0.5205   -9.3942  -46.9710 H         1 UNK         0.0600 
    188 H188       -0.7165  -10.6049  -47.3133 H         1 UNK         0.0600 
    189 H189        1.4933  -11.6212  -47.6512 H         1 UNK         0.3000 
    190 H190       -0.9840  -20.8384  -46.6288 H         1 UNK         0.3000 
    191 H191       -2.0018  -21.6770  -49.1115 H         1 UNK         0.0600 
    192 H192       -2.6330  -19.5451  -47.9823 H         1 UNK         0.0600 
    193 H193       -4.0594  -20.4814  -48.4036 H         1 UNK         0.0600 
    194 H194       -3.4939  -20.4415  -46.7382 H         1 UNK         0.0600 
    195 H195       -2.8485  -22.8261  -45.7901 H         1 UNK         0.3000 
    196 H196       -4.8454  -24.6649  -46.5514 H         1 UNK         0.0600 
    197 H197       -4.4116  -25.6937  -44.3182 H         1 UNK         0.0600 
    198 H198       -4.4972  -23.9421  -44.2139 H         1 UNK         0.0600 
    199 H199       -2.9343  -24.7531  -44.1585 H         1 UNK         0.0600 
    200 H200       -1.3015  -25.1524  -46.2243 H         1 UNK         0.3000 
    201 H201       -1.2756  -27.9163  -46.9360 H         1 UNK         0.0600 
    202 H202        0.5935  -26.8039  -45.7466 H         1 UNK         0.0600 
    203 H203        0.9196  -25.7871  -47.1475 H         1 UNK         0.0600 
    204 H204        1.1702  -27.5261  -47.2417 H         1 UNK         0.0600 
    205 H205       -1.0204  -24.9440  -48.8939 H         1 UNK         0.3000 
    206 H206       -0.5586  -26.3063  -51.4062 H         1 UNK         0.0600 
    207 H207        0.3205  -24.0263  -50.8952 H         1 UNK         0.0600 
    208 H208       -0.7103  -23.9920  -52.3152 H         1 UNK         0.0600 
    209 H209       -1.3244  -23.4052  -50.7748 H         1 UNK         0.0600 
    210 H210       -3.3798  -26.0835  -49.6141 H         1 UNK         0.3000 
    211 H211       -5.5723  -26.2084  -49.9320 H         1 UNK         0.0600 
    212 H212       -4.9542  -27.3006  -52.7318 H         1 UNK         0.0600 
    213 H213       -6.4692  -27.4716  -51.8571 H         1 UNK         0.0600 
    214 H214       -5.0205  -28.2617  -51.2553 H         1 UNK         0.0600 
    215 H215       -4.4667  -23.7757  -50.1891 H         1 UNK         0.3000 
    216 H216       -4.6078  -21.6830  -50.8076 H         1 UNK         0.0600 
    217 H217       -6.8260  -20.7590  -51.4077 H         1 UNK         0.0600 
    218 H218       -6.9937  -21.9669  -50.1477 H         1 UNK         0.0600 
    219 H219       -7.4227  -22.3674  -51.8078 H         1 UNK         0.0600 
    220 H220       -3.6749  -23.7203  -52.8727 H         1 UNK         0.3000 
    221 H221       -2.9483  -23.9090  -54.9383 H         1 UNK         0.0600 
    222 H222       -3.1519  -20.8603  -55.1872 H         1 UNK         0.0600 
    223 H223       -1.7877  -21.7244  -54.4804 H         1 UNK         0.0600 
    224 H224       -2.1783  -21.9316  -56.1803 H         1 UNK         0.0600 
    225 H225       -5.6417  -24.3865  -54.4850 H         1 UNK         0.3000 
    226 H226       -7.6102  -24.7833  -55.3953 H         1 UNK         0.0600 
    227 H227       -6.3571  -25.6756  -57.3723 H         1 UNK         0.0600 
    228 H228       -7.9065  -24.9847  -57.8265 H         1 UNK         0.0600 
    229 H229       -6.4284  -24.0889  -58.1377 H         1 UNK         0.0600 
    230 H230       -7.2501  -22.4846  -54.1390 H         1 UNK         0.3000 
    231 H231       -8.2780  -20.6770  -53.4748 H         1 UNK         0.0600 
    232 H232      -10.1522  -20.7893  -55.8878 H         1 UNK         0.0600 
    233 H233      -10.3870  -19.8745  -54.4092 H         1 UNK         0.0600 
    234 H234      -10.4189  -21.6288  -54.3590 H         1 UNK         0.0600 
    235 H235       -6.3455  -20.7225  -56.1472 H         1 UNK         0.3000 
    236 H236       -6.5662  -18.0406  -57.1141 H         1 UNK         0.0600 
    237 H237       -5.4965  -19.9223  -58.3847 H         1 UNK         0.0600 
    238 H238       -4.4351  -18.5286  -58.2416 H         1 UNK         0.0600 
    239 H239       -4.1660  -19.9369  -57.2273 H         1 UNK         0.0600 
    240 H240       -4.9905  -19.3833  -54.2706 H         1 UNK         0.3000 
    241 H241       -3.4012  -16.9612  -53.7912 H         1 UNK         0.0600 
    242 H242       -6.6959  -17.4752  -53.4011 H         1 UNK         0.3800 
    243 H243       -6.9095  -16.4666  -51.9937 H         1 UNK         0.3800 
    244 H244       -3.5243  -19.0124  -51.6106 H         1 UNK         0.0800 
    245 H245       -2.9544  -19.6360  -53.1192 H         1 UNK         0.0800 
    246 H246       -1.5285  -17.1838  -50.0743 H         1 UNK         0.0800 
    247 H247       -1.7856  -18.9147  -50.1035 H         1 UNK         0.0800 
@<TRIPOS>BOND
     1    1    2 1    
     2    1  127 1    
     3    1  128 1    
     4    1  129 1    
     5    2    3 2    
     6    2    4 am   BACKBONE|DICT|INTERRES
     7    4    5 1    
     8    4  130 1    
     9    5    6 1    
    10    5   65 1    
    11    5  131 1    
    12    6    7 1    
    13    6  132 1    
    14    6  133 1    
    15    7    8 1    
    16    8    9 1    
    17    8  134 1    
    18    8  135 1    
    19    9   10 ar   
    20    9   14 ar   
    21   10   11 ar   
    22   10  136 1    
    23   11   12 ar   
    24   11  126 1    
    25   12   13 ar   
    26   12  137 1    
    27   13   14 ar   
    28   13   15 1    
    29   14  138 1    
    30   15   16 1    
    31   15  139 1    
    32   15  140 1    
    33   16   17 1    
    34   17   18 1    
    35   17  141 1    
    36   17  142 1    
    37   18   19 1    
    38   18   67 1    
    39   18  143 1    
    40   19   20 am   BACKBONE|DICT|INTERRES
    41   19  144 1    
    42   20   21 2    
    43   20   22 1    
    44   22   23 1    
    45   22   24 1    
    46   22  145 1    
    47   23  146 1    
    48   23  147 1    
    49   23  148 1    
    50   24   25 am   BACKBONE|DICT|INTERRES
    51   24  149 1    
    52   25   26 2    
    53   25   27 1    
    54   27   28 1    
    55   27   29 1    
    56   27  150 1    
    57   28  151 1    
    58   28  152 1    
    59   28  153 1    
    60   29   30 am   BACKBONE|DICT|INTERRES
    61   29  154 1    
    62   30   31 2    
    63   30   32 1    
    64   32   33 1    
    65   32   34 1    
    66   32  155 1    
    67   33  156 1    
    68   33  157 1    
    69   33  158 1    
    70   34   35 am   BACKBONE|DICT|INTERRES
    71   34  159 1    
    72   35   36 2    
    73   35   37 1    
    74   37   38 1    
    75   37   39 1    
    76   37  160 1    
    77   38  161 1    
    78   38  162 1    
    79   38  163 1    
    80   39   40 am   BACKBONE|DICT|INTERRES
    81   39  164 1    
    82   40   41 2    
    83   40   42 1    
    84   42   43 1    
    85   42   44 1    
    86   42  165 1    
    87   43  166 1    
    88   43  167 1    
    89   43  168 1    
    90   44   45 am   BACKBONE|DICT|INTERRES
    91   44  169 1    
    92   45   46 2    
    93   45   47 1    
    94   47   48 1    
    95   47   49 1    
    96   47  170 1    
    97   48  171 1    
    98   48  172 1    
    99   48  173 1    
   100   49   50 am   BACKBONE|DICT|INTERRES
   101   49  174 1    
   102   50   51 2    
   103   50   52 1    
   104   52   53 1    
   105   52   54 1    
   106   52  175 1    
   107   53  176 1    
   108   53  177 1    
   109   53  178 1    
   110   54   55 am   BACKBONE|DICT|INTERRES
   111   54  179 1    
   112   55   56 2    
   113   55   57 1    
   114   57   58 1    
   115   57   59 1    
   116   57  180 1    
   117   58  181 1    
   118   58  182 1    
   119   58  183 1    
   120   59   60 am   BACKBONE|DICT|INTERRES
   121   59  184 1    
   122   60   61 2    
   123   60   62 1    
   124   62   63 1    
   125   62   64 1    
   126   62  185 1    
   127   63  186 1    
   128   63  187 1    
   129   63  188 1    
   130   64   65 am   BACKBONE|DICT|INTERRES
   131   64  189 1    
   132   65   66 2    
   133   67   68 2    
   134   67   69 am   BACKBONE|DICT|INTERRES
   135   69   70 1    
   136   69  190 1    
   137   70   71 1    
   138   70   72 1    
   139   70  191 1    
   140   71  192 1    
   141   71  193 1    
   142   71  194 1    
   143   72   73 2    
   144   72   74 am   BACKBONE|DICT|INTERRES
   145   74   75 1    
   146   74  195 1    
   147   75   76 1    
   148   75   77 1    
   149   75  196 1    
   150   76  197 1    
   151   76  198 1    
   152   76  199 1    
   153   77   78 2    
   154   77   79 am   BACKBONE|DICT|INTERRES
   155   79   80 1    
   156   79  200 1    
   157   80   81 1    
   158   80   82 1    
   159   80  201 1    
   160   81  202 1    
   161   81  203 1    
   162   81  204 1    
   163   82   83 2    
   164   82   84 am   BACKBONE|DICT|INTERRES
   165   84   85 1    
   166   84  205 1    
   167   85   86 1    
   168   85   87 1    
   169   85  206 1    
   170   86  207 1    
   171   86  208 1    
   172   86  209 1    
   173   87   88 2    
   174   87   89 am   BACKBONE|DICT|INTERRES
   175   89   90 1    
   176   89  210 1    
   177   90   91 1    
   178   90   92 1    
   179   90  211 1    
   180   91  212 1    
   181   91  213 1    
   182   91  214 1    
   183   92   93 2    
   184   92   94 am   BACKBONE|DICT|INTERRES
   185   94   95 1    
   186   94  215 1    
   187   95   96 1    
   188   95   97 1    
   189   95  216 1    
   190   96  217 1    
   191   96  218 1    
   192   96  219 1    
   193   97   98 2    
   194   97   99 am   BACKBONE|DICT|INTERRES
   195   99  100 1    
   196   99  220 1    
   197  100  101 1    
   198  100  102 1    
   199  100  221 1    
   200  101  222 1    
   201  101  223 1    
   202  101  224 1    
   203  102  103 2    
   204  102  104 am   BACKBONE|DICT|INTERRES
   205  104  105 1    
   206  104  225 1    
   207  105  106 1    
   208  105  107 1    
   209  105  226 1    
   210  106  227 1    
   211  106  228 1    
   212  106  229 1    
   213  107  108 2    
   214  107  109 am   BACKBONE|DICT|INTERRES
   215  109  110 1    
   216  109  230 1    
   217  110  111 1    
   218  110  112 1    
   219  110  231 1    
   220  111  232 1    
   221  111  233 1    
   222  111  234 1    
   223  112  113 2    
   224  112  114 am   BACKBONE|DICT|INTERRES
   225  114  115 1    
   226  114  235 1    
   227  115  116 1    
   228  115  117 1    
   229  115  236 1    
   230  116  237 1    
   231  116  238 1    
   232  116  239 1    
   233  117  118 2    
   234  117  119 am   BACKBONE|DICT|INTERRES
   235  119  120 1    
   236  119  240 1    
   237  120  121 1    
   238  120  124 1    
   239  120  241 1    
   240  121  122 am   BACKBONE|DICT|INTERRES
   241  121  123 2    
   242  122  242 1    
   243  122  243 1    
   244  124  125 1    
   245  124  244 1    
   246  124  245 1    
   247  125  126 1    
   248  126  246 1    
   249  126  247 1    
@<TRIPOS>SUBSTRUCTURE
     1 UNK         1 GROUP             0       ****    0 ROOT    
