@<TRIPOS>MOLECULE
3R540
247   249    1
SMALL
USER_CHARGES


@<TRIPOS>ATOM
      1 CA          2.6322  -10.2313  -46.6903 C.3       0 UNK        -0.1800 
      2 C           1.9767  -11.6034  -46.6253 C.2       0 UNK         0.5000 
      3 O           1.3773  -11.9462  -45.6067 O.2       0 UNK        -0.5000 
      4 N           2.0921  -12.3875  -47.7062 N.am      1 UNK        -0.5000 
      5 CA          1.5090  -13.7289  -47.8339 C.3       1 UNK         0.1400 
      6 C6          2.1253  -14.4977  -49.0289 C.3       23 UNK        -0.0398 
      7 S7          1.9735  -16.3025  -48.8497 S.3       23 UNK        -0.2404 
      8 C8          3.1764  -16.8919  -50.0765 C.3       23 UNK        -0.0205 
      9 C9          2.7778  -18.2642  -50.5934 C.ar      23 UNK        -0.0193 
     10 C10         1.9633  -18.3694  -51.7221 C.ar      23 UNK        -0.1150 
     11 C11         1.5609  -19.6210  -52.1942 C.ar      23 UNK        -0.0193 
     12 C12         1.9864  -20.7744  -51.5312 C.ar      23 UNK        -0.1150 
     13 C13         2.8134  -20.6882  -50.4072 C.ar      23 UNK        -0.0193 
     14 C14         3.2106  -19.4252  -49.9471 C.ar      23 UNK        -0.1150 
     15 C15         3.2961  -21.9741  -49.7409 C.3       23 UNK        -0.0205 
     16 S16         3.4166  -21.8759  -47.9262 S.3       23 UNK        -0.2404 
     17 C17         1.6632  -21.7531  -47.4244 C.3       23 UNK        -0.0398 
     18 CA          1.2386  -22.9100  -46.4858 C.3       11 UNK         0.1400 
     19 N           2.1579  -23.0711  -45.3563 N.am      11 UNK        -0.5000 
     20 C           2.3547  -24.1992  -44.6649 C.2       10 UNK         0.5000 
     21 O           1.7766  -25.2586  -44.9065 O.2       10 UNK        -0.5000 
     22 CA          3.3591  -24.1227  -43.4979 C.3       10 UNK         0.1400 
     23 CB          4.7770  -24.4512  -43.9891 C.3       10 UNK        -0.1800 
     24 N           3.3698  -22.8110  -42.8445 N.am      10 UNK        -0.5000 
     25 C           2.3760  -22.3484  -42.0740 C.2       9 UNK         0.5000 
     26 O           1.3788  -23.0088  -41.7826 O.2       9 UNK        -0.5000 
     27 CA          2.4985  -20.8994  -41.5596 C.3       9 UNK         0.1400 
     28 CB          3.1955  -20.8816  -40.1909 C.3       9 UNK        -0.1800 
     29 N           3.1825  -19.9593  -42.4572 N.am      9 UNK        -0.5000 
     30 C           2.8645  -19.7147  -43.7366 C.2       8 UNK         0.5000 
     31 O           2.0225  -20.3592  -44.3612 O.2       8 UNK        -0.5000 
     32 CA          3.5743  -18.5180  -44.3919 C.3       8 UNK         0.1400 
     33 CB          3.2825  -18.4015  -45.8993 C.3       8 UNK        -0.1800 
     34 N           3.0854  -17.3176  -43.7282 N.am      8 UNK        -0.5000 
     35 C           3.8069  -16.4628  -42.9933 C.2       7 UNK         0.5000 
     36 O           5.0308  -16.5256  -42.8738 O.2       7 UNK        -0.5000 
     37 CA          3.0231  -15.3694  -42.2326 C.3       7 UNK         0.1400 
     38 CB          2.9493  -14.0842  -43.0718 C.3       7 UNK        -0.1800 
     39 N           1.6621  -15.7814  -41.8767 N.am      7 UNK        -0.5000 
     40 C           1.3535  -16.8030  -41.0647 C.2       6 UNK         0.5000 
     41 O           2.1862  -17.3934  -40.3767 O.2       6 UNK        -0.5000 
     42 CA         -0.1164  -17.2807  -41.0366 C.3       6 UNK         0.1400 
     43 CB         -0.7752  -16.9097  -39.6991 C.3       6 UNK        -0.1800 
     44 N          -0.9761  -16.8064  -42.1314 N.am      6 UNK        -0.5000 
     45 C          -0.7622  -16.9705  -43.4448 C.2       5 UNK         0.5000 
     46 O           0.2635  -17.4735  -43.9056 O.2       5 UNK        -0.5000 
     47 CA         -1.8625  -16.4408  -44.3854 C.3       5 UNK         0.1400 
     48 CB         -2.0242  -14.9169  -44.2467 C.3       5 UNK        -0.1800 
     49 N          -1.5801  -16.7396  -45.7865 N.am      5 UNK        -0.5000 
     50 C          -1.6489  -17.9470  -46.3606 C.2       4 UNK         0.5000 
     51 O          -2.0531  -18.9562  -45.7864 O.2       4 UNK        -0.5000 
     52 CA         -1.2422  -17.9858  -47.8484 C.3       4 UNK         0.1400 
     53 CB         -1.2657  -19.3859  -48.4962 C.3       4 UNK        -0.1800 
     54 N          -2.0006  -17.0062  -48.6359 N.am      4 UNK        -0.5000 
     55 C          -3.3383  -16.9128  -48.7177 C.2       3 UNK         0.5000 
     56 O          -4.1148  -17.7743  -48.3047 O.2       3 UNK        -0.5000 
     57 CA         -3.8925  -15.5975  -49.2925 C.3       3 UNK         0.1400 
     58 CB         -5.3763  -15.3622  -48.9496 C.3       3 UNK        -0.1800 
     59 N          -3.0882  -14.4764  -48.8079 N.am      3 UNK        -0.5000 
     60 C          -2.8621  -13.3236  -49.4421 C.2       2 UNK         0.5000 
     61 O          -3.3112  -13.0542  -50.5573 O.2       2 UNK        -0.5000 
     62 CA         -1.9946  -12.2854  -48.7017 C.3       2 UNK         0.1400 
     63 CB         -2.5999  -11.9030  -47.3357 C.3       2 UNK        -0.1800 
     64 N          -0.5790  -12.6519  -48.5648 N.am      2 UNK        -0.5000 
     65 C          -0.0359  -13.6861  -47.9023 C.2       1 UNK         0.5000 
     66 O          -0.6902  -14.5531  -47.3222 O.2       1 UNK        -0.5000 
     67 C          -0.2009  -22.7035  -45.9753 C.2       11 UNK         0.5000 
     68 O          -1.1483  -23.1820  -46.6006 O.2       11 UNK        -0.5000 
     69 N          -0.3337  -22.0472  -44.8127 N.am      12 UNK        -0.5000 
     70 CA         -1.5835  -21.7667  -44.0994 C.3       12 UNK         0.1400 
     71 CB         -1.2843  -20.8357  -42.9148 C.3       12 UNK        -0.1800 
     72 C          -2.3624  -23.0125  -43.6337 C.2       12 UNK         0.5000 
     73 O          -3.5289  -22.8848  -43.2614 O.2       12 UNK        -0.5000 
     74 N          -1.7344  -24.1955  -43.6960 N.am      13 UNK        -0.5000 
     75 CA         -2.3881  -25.4963  -43.5471 C.3       13 UNK         0.1400 
     76 CB         -1.3155  -26.5951  -43.5235 C.3       13 UNK        -0.1800 
     77 C          -3.4260  -25.7711  -44.6573 C.2       13 UNK         0.5000 
     78 O          -4.4286  -26.4354  -44.3925 O.2       13 UNK        -0.5000 
     79 N          -3.1802  -25.2347  -45.8613 N.am      14 UNK        -0.5000 
     80 CA         -4.1256  -25.2121  -46.9767 C.3       14 UNK         0.1400 
     81 CB         -3.3978  -25.6147  -48.2695 C.3       14 UNK        -0.1800 
     82 C          -4.7484  -23.8148  -47.1287 C.2       14 UNK         0.5000 
     83 O          -5.9514  -23.7088  -47.3681 O.2       14 UNK        -0.5000 
     84 N          -3.9207  -22.7684  -46.9908 N.am      15 UNK        -0.5000 
     85 CA         -4.2517  -21.3571  -47.1954 C.3       15 UNK         0.1400 
     86 CB         -5.1874  -20.8426  -46.0788 C.3       15 UNK        -0.1800 
     87 C          -4.7675  -21.1167  -48.6300 C.2       15 UNK         0.5000 
     88 O          -4.1197  -21.5568  -49.5816 O.2       15 UNK        -0.5000 
     89 N          -5.9356  -20.4781  -48.7741 N.am      16 UNK        -0.5000 
     90 CA         -6.5812  -20.1774  -50.0546 C.3       16 UNK         0.1400 
     91 CB         -7.8023  -19.2823  -49.7950 C.3       16 UNK        -0.1800 
     92 C          -6.9793  -21.4200  -50.8811 C.2       16 UNK         0.5000 
     93 O          -7.2364  -21.2836  -52.0774 O.2       16 UNK        -0.5000 
     94 N          -7.0041  -22.6082  -50.2557 N.am      17 UNK        -0.5000 
     95 CA         -7.2089  -23.8887  -50.9345 C.3       17 UNK         0.1400 
     96 CB         -7.5736  -24.9716  -49.9075 C.3       17 UNK        -0.1800 
     97 C          -5.9950  -24.3295  -51.7779 C.2       17 UNK         0.5000 
     98 O          -6.1644  -25.1853  -52.6474 O.2       17 UNK        -0.5000 
     99 N          -4.8059  -23.7513  -51.5319 N.am      18 UNK        -0.5000 
    100 CA        -3.6195  -23.9438  -52.3698 C.3       18 UNK         0.1400 
    101 CB        -2.3730  -23.3862  -51.6627 C.3       18 UNK        -0.1800 
    102 C         -3.8166  -23.2970  -53.7531 C.2       18 UNK         0.5000 
    103 O         -3.6703  -23.9767  -54.7696 O.2       18 UNK        -0.5000 
    104 N         -4.2098  -22.0181  -53.7471 N.am      19 UNK        -0.5000 
    105 CA        -4.6323  -21.2150  -54.8892 C.3       19 UNK         0.1400 
    106 CB        -3.4944  -21.0410  -55.9182 C.3       19 UNK        -0.1800 
    107 C         -5.0705  -19.8393  -54.3697 C.2       19 UNK         0.5000 
    108 O         -4.5783  -19.3878  -53.3325 O.2       19 UNK        -0.5000 
    109 N         -5.9308  -19.1581  -55.1375 N.am      20 UNK        -0.5000 
    110 CA        -6.2761  -17.7477  -54.9224 C.3       20 UNK         0.1400 
    111 CB        -7.5112  -17.3945  -55.7641 C.3       20 UNK        -0.1800 
    112 C         -5.1013  -16.8050  -55.2586 C.2       20 UNK         0.5000 
    113 O         -4.9938  -15.7229  -54.6801 O.2       20 UNK        -0.5000 
    114 N         -4.2140  -17.2619  -56.1557 N.am      21 UNK        -0.5000 
    115 CA        -2.9704  -16.6039  -56.5626 C.3       21 UNK         0.1400 
    116 CB        -2.3574  -17.3948  -57.7289 C.3       21 UNK        -0.1800 
    117 C         -1.9404  -16.4404  -55.4255 C.2       21 UNK         0.5000 
    118 O         -1.0226  -15.6307  -55.5618 O.2       21 UNK        -0.5000 
    119 N         -2.1109  -17.1891  -54.3272 N.am      22 UNK        -0.5000 
    120 CA        -1.3248  -17.0573  -53.0923 C.3       22 UNK         0.1400 
    121 C         -1.6152  -15.7653  -52.2737 C.2       22 UNK         0.5000 
    122 N         -2.6261  -14.9716  -52.6095 N.am      22 UNK        -0.7600 
    123 O         -0.9166  -15.4867  -51.3034 O.2       22 UNK        -0.5000 
    124 C124       -1.4533  -18.3080  -52.1832 C.3       23 UNK        -0.0398 
    125 S125       -1.0822  -19.8952  -53.0084 S.3       23 UNK        -0.2404 
    126 C126        0.6808  -19.7297  -53.4292 C.3       23 UNK        -0.0205 
    127 H127        3.3726  -10.1318  -45.8965 H         1 UNK         0.0600 
    128 H128        1.8823   -9.4513  -46.5582 H         1 UNK         0.0600 
    129 H129        3.1323  -10.0644  -47.6446 H         1 UNK         0.0600 
    130 H130        2.6062  -12.0479  -48.5068 H         1 UNK         0.3000 
    131 H131        1.7708  -14.2670  -46.9194 H         1 UNK         0.0600 
    132 H132        1.6807  -14.1898  -49.9775 H         1 UNK         0.0800 
    133 H133        3.1902  -14.2721  -49.1033 H         1 UNK         0.0800 
    134 H134        3.2348  -16.1879  -50.9083 H         1 UNK         0.0800 
    135 H135        4.1695  -16.9251  -49.6261 H         1 UNK         0.0800 
    136 H136        1.6367  -17.4712  -52.2250 H         1 UNK         0.1150 
    137 H137        1.6780  -21.7426  -51.9005 H         1 UNK         0.1150 
    138 H138        3.8527  -19.3400  -49.0822 H         1 UNK         0.1150 
    139 H139        2.6457  -22.8110  -50.0004 H         1 UNK         0.0800 
    140 H140        4.2821  -22.2149  -50.1397 H         1 UNK         0.0800 
    141 H141        1.5243  -20.7849  -46.9406 H         1 UNK         0.0800 
    142 H142        1.0289  -21.7389  -48.3124 H         1 UNK         0.0800 
    143 H143        1.2486  -23.8324  -47.0706 H         1 UNK         0.0600 
    144 H144        2.6176  -22.2230  -45.0494 H         1 UNK         0.3000 
    145 H145        3.0703  -24.8747  -42.7603 H         1 UNK         0.0600 
    146 H146        5.4879  -24.4646  -43.1627 H         1 UNK         0.0600 
    147 H147        4.8084  -25.4347  -44.4599 H         1 UNK         0.0600 
    148 H148        5.1275  -23.7247  -44.7235 H         1 UNK         0.0600 
    149 H149        4.1575  -22.2082  -43.0317 H         1 UNK         0.3000 
    150 H150        1.4839  -20.5208  -41.4242 H         1 UNK         0.0600 
    151 H151        2.6951  -21.5484  -39.4873 H         1 UNK         0.0600 
    152 H152        3.1828  -19.8838  -39.7524 H         1 UNK         0.0600 
    153 H153        4.2351  -21.2025  -40.2656 H         1 UNK         0.0600 
    154 H154        3.8673  -19.3588  -42.0208 H         1 UNK         0.3000 
    155 H155        4.6498  -18.6414  -44.2516 H         1 UNK         0.0600 
    156 H156        3.7832  -17.5352  -46.3317 H         1 UNK         0.0600 
    157 H157        2.2145  -18.3007  -46.0998 H         1 UNK         0.0600 
    158 H158        3.6384  -19.2817  -46.4337 H         1 UNK         0.0600 
    159 H159        2.0707  -17.2227  -43.7361 H         1 UNK         0.3000 
    160 H160        3.5640  -15.1518  -41.3095 H         1 UNK         0.0600 
    161 H161        2.3999  -14.2410  -44.0015 H         1 UNK         0.0600 
    162 H162        3.9471  -13.7320  -43.3367 H         1 UNK         0.0600 
    163 H163        2.4572  -13.2806  -42.5238 H         1 UNK         0.0600 
    164 H164        0.9126  -15.3576  -42.4023 H         1 UNK         0.3000 
    165 H165       -0.0866  -18.3698  -41.1076 H         1 UNK         0.0600 
    166 H166       -0.8700  -15.8291  -39.5855 H         1 UNK         0.0600 
    167 H167       -1.7703  -17.3466  -39.6134 H         1 UNK         0.0600 
    168 H168       -0.1890  -17.2781  -38.8559 H         1 UNK         0.0600 
    169 H169       -1.8337  -16.3584  -41.8426 H         1 UNK         0.3000 
    170 H170       -2.8026  -16.9242  -44.1122 H         1 UNK         0.0600 
    171 H171       -2.3070  -14.6320  -43.2330 H         1 UNK         0.0600 
    172 H172       -1.1001  -14.3908  -44.4918 H         1 UNK         0.0600 
    173 H173       -2.8041  -14.5448  -44.9113 H         1 UNK         0.0600 
    174 H174       -1.2151  -15.9663  -46.3386 H         1 UNK         0.3000 
    175 H175       -0.2043  -17.6629  -47.8525 H         1 UNK         0.0600 
    176 H176       -0.5982  -19.4250  -49.3563 H         1 UNK         0.0600 
    177 H177       -0.9275  -20.1566  -47.8036 H         1 UNK         0.0600 
    178 H178       -2.2589  -19.6612  -48.8428 H         1 UNK         0.0600 
    179 H179       -1.4548  -16.2437  -49.0192 H         1 UNK         0.3000 
    180 H180       -3.8093  -15.6746  -50.3745 H         1 UNK         0.0600 
    181 H181       -5.7432  -14.4373  -49.3947 H         1 UNK         0.0600 
    182 H182       -6.0001  -16.1720  -49.3298 H         1 UNK         0.0600 
    183 H183       -5.5320  -15.3014  -47.8720 H         1 UNK         0.0600 
    184 H184       -2.5866  -14.6296  -47.9392 H         1 UNK         0.3000 
    185 H185       -2.0056  -11.3842  -49.3169 H         1 UNK         0.0600 
    186 H186       -2.0542  -11.0738  -46.8854 H         1 UNK         0.0600 
    187 H187       -3.6385  -11.5880  -47.4439 H         1 UNK         0.0600 
    188 H188       -2.5826  -12.7318  -46.6282 H         1 UNK         0.0600 
    189 H189        0.0633  -12.0124  -49.0100 H         1 UNK         0.3000 
    190 H190        0.5044  -21.6344  -44.4155 H         1 UNK         0.3000 
    191 H191       -2.2390  -21.2430  -44.7935 H         1 UNK         0.0600 
    192 H192       -2.2071  -20.4692  -42.4640 H         1 UNK         0.0600 
    193 H193       -0.7106  -19.9661  -43.2337 H         1 UNK         0.0600 
    194 H194       -0.7188  -21.3461  -42.1361 H         1 UNK         0.0600 
    195 H195       -0.7656  -24.2042  -43.9810 H         1 UNK         0.3000 
    196 H196       -2.9122  -25.5039  -42.5892 H         1 UNK         0.0600 
    197 H197       -1.7663  -27.5780  -43.3804 H         1 UNK         0.0600 
    198 H198       -0.6084  -26.4394  -42.7084 H         1 UNK         0.0600 
    199 H199       -0.7499  -26.6251  -44.4558 H         1 UNK         0.0600 
    200 H200       -2.3378  -24.6831  -45.9812 H         1 UNK         0.3000 
    201 H201       -4.9370  -25.9235  -46.8097 H         1 UNK         0.0600 
    202 H202       -3.0115  -26.6316  -48.2013 H         1 UNK         0.0600 
    203 H203       -2.5580  -24.9524  -48.4827 H         1 UNK         0.0600 
    204 H204       -4.0713  -25.5784  -49.1268 H         1 UNK         0.0600 
    205 H205       -2.9294  -22.9567  -46.8635 H         1 UNK         0.3000 
    206 H206       -3.3122  -20.8154  -47.1117 H         1 UNK         0.0600 
    207 H207       -4.7582  -21.0331  -45.0953 H         1 UNK         0.0600 
    208 H208       -5.3310  -19.7640  -46.1565 H         1 UNK         0.0600 
    209 H209       -6.1683  -21.3179  -46.1068 H         1 UNK         0.0600 
    210 H210       -6.4093  -20.1542  -47.9440 H         1 UNK         0.3000 
    211 H211       -5.8661  -19.6113  -50.6558 H         1 UNK         0.0600 
    212 H212       -8.5465  -19.7875  -49.1781 H         1 UNK         0.0600 
    213 H213       -8.2868  -19.0002  -50.7307 H         1 UNK         0.0600 
    214 H214       -7.5145  -18.3600  -49.2898 H         1 UNK         0.0600 
    215 H215       -6.7693  -22.6504  -49.2717 H         1 UNK         0.3000 
    216 H216       -8.0565  -23.7760  -51.6140 H         1 UNK         0.0600 
    217 H217       -7.9121  -25.8790  -50.4088 H         1 UNK         0.0600 
    218 H218       -8.3782  -24.6444  -49.2488 H         1 UNK         0.0600 
    219 H219       -6.7196  -25.2474  -49.2898 H         1 UNK         0.0600 
    220 H220       -4.7348  -23.0460  -50.8050 H         1 UNK         0.3000 
    221 H221       -3.4723  -25.0164  -52.5130 H         1 UNK         0.0600 
    222 H222       -2.4423  -22.3099  -51.5021 H         1 UNK         0.0600 
    223 H223       -2.2241  -23.8581  -50.6919 H         1 UNK         0.0600 
    224 H224       -1.4760  -23.5678  -52.2557 H         1 UNK         0.0600 
    225 H225       -4.2848  -21.5291  -52.8634 H         1 UNK         0.3000 
    226 H226       -5.4867  -21.7061  -55.3585 H         1 UNK         0.0600 
    227 H227       -3.1934  -21.9902  -56.3594 H         1 UNK         0.0600 
    228 H228       -3.8055  -20.4000  -56.7434 H         1 UNK         0.0600 
    229 H229       -2.6108  -20.5879  -55.4686 H         1 UNK         0.0600 
    230 H230       -6.3122  -19.5963  -55.9639 H         1 UNK         0.3000 
    231 H231       -6.5261  -17.6069  -53.8685 H         1 UNK         0.0600 
    232 H232       -7.8059  -16.3560  -55.6068 H         1 UNK         0.0600 
    233 H233       -8.3638  -18.0175  -55.4933 H         1 UNK         0.0600 
    234 H234       -7.3240  -17.5247  -56.8308 H         1 UNK         0.0600 
    235 H235       -4.3973  -18.1588  -56.5782 H         1 UNK         0.3000 
    236 H236       -3.2237  -15.6031  -56.9180 H         1 UNK         0.0600 
    237 H237       -2.0946  -18.4108  -57.4311 H         1 UNK         0.0600 
    238 H238       -3.0474  -17.4578  -58.5707 H         1 UNK         0.0600 
    239 H239       -1.4480  -16.9145  -58.0926 H         1 UNK         0.0600 
    240 H240       -2.8849  -17.8371  -54.2884 H         1 UNK         0.3000 
    241 H241       -0.2811  -16.9685  -53.3920 H         1 UNK         0.0600 
    242 H242       -2.8220  -14.1601  -52.0312 H         1 UNK         0.3800 
    243 H243       -3.2365  -15.1949  -53.3838 H         1 UNK         0.3800 
    244 H244       -2.4674  -18.3783  -51.7857 H         1 UNK         0.0800 
    245 H245       -0.8028  -18.2138  -51.3138 H         1 UNK         0.0800 
    246 H246        0.9796  -20.6030  -54.0107 H         1 UNK         0.0800 
    247 H247        0.8288  -18.8728  -54.0870 H         1 UNK         0.0800 
@<TRIPOS>BOND
     1    1    2 1    
     2    1  127 1    
     3    1  128 1    
     4    1  129 1    
     5    2    3 2    
     6    2    4 am   BACKBONE|DICT|INTERRES
     7    4    5 1    
     8    4  130 1    
     9    5    6 1    
    10    5   65 1    
    11    5  131 1    
    12    6    7 1    
    13    6  132 1    
    14    6  133 1    
    15    7    8 1    
    16    8    9 1    
    17    8  134 1    
    18    8  135 1    
    19    9   10 ar   
    20    9   14 ar   
    21   10   11 ar   
    22   10  136 1    
    23   11   12 ar   
    24   11  126 1    
    25   12   13 ar   
    26   12  137 1    
    27   13   14 ar   
    28   13   15 1    
    29   14  138 1    
    30   15   16 1    
    31   15  139 1    
    32   15  140 1    
    33   16   17 1    
    34   17   18 1    
    35   17  141 1    
    36   17  142 1    
    37   18   19 1    
    38   18   67 1    
    39   18  143 1    
    40   19   20 am   BACKBONE|DICT|INTERRES
    41   19  144 1    
    42   20   21 2    
    43   20   22 1    
    44   22   23 1    
    45   22   24 1    
    46   22  145 1    
    47   23  146 1    
    48   23  147 1    
    49   23  148 1    
    50   24   25 am   BACKBONE|DICT|INTERRES
    51   24  149 1    
    52   25   26 2    
    53   25   27 1    
    54   27   28 1    
    55   27   29 1    
    56   27  150 1    
    57   28  151 1    
    58   28  152 1    
    59   28  153 1    
    60   29   30 am   BACKBONE|DICT|INTERRES
    61   29  154 1    
    62   30   31 2    
    63   30   32 1    
    64   32   33 1    
    65   32   34 1    
    66   32  155 1    
    67   33  156 1    
    68   33  157 1    
    69   33  158 1    
    70   34   35 am   BACKBONE|DICT|INTERRES
    71   34  159 1    
    72   35   36 2    
    73   35   37 1    
    74   37   38 1    
    75   37   39 1    
    76   37  160 1    
    77   38  161 1    
    78   38  162 1    
    79   38  163 1    
    80   39   40 am   BACKBONE|DICT|INTERRES
    81   39  164 1    
    82   40   41 2    
    83   40   42 1    
    84   42   43 1    
    85   42   44 1    
    86   42  165 1    
    87   43  166 1    
    88   43  167 1    
    89   43  168 1    
    90   44   45 am   BACKBONE|DICT|INTERRES
    91   44  169 1    
    92   45   46 2    
    93   45   47 1    
    94   47   48 1    
    95   47   49 1    
    96   47  170 1    
    97   48  171 1    
    98   48  172 1    
    99   48  173 1    
   100   49   50 am   BACKBONE|DICT|INTERRES
   101   49  174 1    
   102   50   51 2    
   103   50   52 1    
   104   52   53 1    
   105   52   54 1    
   106   52  175 1    
   107   53  176 1    
   108   53  177 1    
   109   53  178 1    
   110   54   55 am   BACKBONE|DICT|INTERRES
   111   54  179 1    
   112   55   56 2    
   113   55   57 1    
   114   57   58 1    
   115   57   59 1    
   116   57  180 1    
   117   58  181 1    
   118   58  182 1    
   119   58  183 1    
   120   59   60 am   BACKBONE|DICT|INTERRES
   121   59  184 1    
   122   60   61 2    
   123   60   62 1    
   124   62   63 1    
   125   62   64 1    
   126   62  185 1    
   127   63  186 1    
   128   63  187 1    
   129   63  188 1    
   130   64   65 am   BACKBONE|DICT|INTERRES
   131   64  189 1    
   132   65   66 2    
   133   67   68 2    
   134   67   69 am   BACKBONE|DICT|INTERRES
   135   69   70 1    
   136   69  190 1    
   137   70   71 1    
   138   70   72 1    
   139   70  191 1    
   140   71  192 1    
   141   71  193 1    
   142   71  194 1    
   143   72   73 2    
   144   72   74 am   BACKBONE|DICT|INTERRES
   145   74   75 1    
   146   74  195 1    
   147   75   76 1    
   148   75   77 1    
   149   75  196 1    
   150   76  197 1    
   151   76  198 1    
   152   76  199 1    
   153   77   78 2    
   154   77   79 am   BACKBONE|DICT|INTERRES
   155   79   80 1    
   156   79  200 1    
   157   80   81 1    
   158   80   82 1    
   159   80  201 1    
   160   81  202 1    
   161   81  203 1    
   162   81  204 1    
   163   82   83 2    
   164   82   84 am   BACKBONE|DICT|INTERRES
   165   84   85 1    
   166   84  205 1    
   167   85   86 1    
   168   85   87 1    
   169   85  206 1    
   170   86  207 1    
   171   86  208 1    
   172   86  209 1    
   173   87   88 2    
   174   87   89 am   BACKBONE|DICT|INTERRES
   175   89   90 1    
   176   89  210 1    
   177   90   91 1    
   178   90   92 1    
   179   90  211 1    
   180   91  212 1    
   181   91  213 1    
   182   91  214 1    
   183   92   93 2    
   184   92   94 am   BACKBONE|DICT|INTERRES
   185   94   95 1    
   186   94  215 1    
   187   95   96 1    
   188   95   97 1    
   189   95  216 1    
   190   96  217 1    
   191   96  218 1    
   192   96  219 1    
   193   97   98 2    
   194   97   99 am   BACKBONE|DICT|INTERRES
   195   99  100 1    
   196   99  220 1    
   197  100  101 1    
   198  100  102 1    
   199  100  221 1    
   200  101  222 1    
   201  101  223 1    
   202  101  224 1    
   203  102  103 2    
   204  102  104 am   BACKBONE|DICT|INTERRES
   205  104  105 1    
   206  104  225 1    
   207  105  106 1    
   208  105  107 1    
   209  105  226 1    
   210  106  227 1    
   211  106  228 1    
   212  106  229 1    
   213  107  108 2    
   214  107  109 am   BACKBONE|DICT|INTERRES
   215  109  110 1    
   216  109  230 1    
   217  110  111 1    
   218  110  112 1    
   219  110  231 1    
   220  111  232 1    
   221  111  233 1    
   222  111  234 1    
   223  112  113 2    
   224  112  114 am   BACKBONE|DICT|INTERRES
   225  114  115 1    
   226  114  235 1    
   227  115  116 1    
   228  115  117 1    
   229  115  236 1    
   230  116  237 1    
   231  116  238 1    
   232  116  239 1    
   233  117  118 2    
   234  117  119 am   BACKBONE|DICT|INTERRES
   235  119  120 1    
   236  119  240 1    
   237  120  121 1    
   238  120  124 1    
   239  120  241 1    
   240  121  122 am   BACKBONE|DICT|INTERRES
   241  121  123 2    
   242  122  242 1    
   243  122  243 1    
   244  124  125 1    
   245  124  244 1    
   246  124  245 1    
   247  125  126 1    
   248  126  246 1    
   249  126  247 1    
@<TRIPOS>SUBSTRUCTURE
     1 UNK         1 GROUP             0       ****    0 ROOT    
