@<TRIPOS>MOLECULE
3R540
247   249    1
SMALL
USER_CHARGES


@<TRIPOS>ATOM
      1 CA         -4.5392  -13.5203  -52.3481 C.3       0 UNK        -0.1800 
      2 C          -3.3888  -13.2910  -51.3775 C.2       0 UNK         0.5000 
      3 O          -2.6498  -12.3176  -51.5304 O.2       0 UNK        -0.5000 
      4 N          -3.2379  -14.1644  -50.3768 N.am      1 UNK        -0.5000 
      5 CA         -2.2246  -14.0557  -49.3261 C.3       1 UNK         0.1400 
      6 C6         -0.8149  -14.5189  -49.7868 C.3       23 UNK        -0.0398 
      7 S7         -0.6723  -16.2946  -50.2014 S.3       23 UNK        -0.2404 
      8 C8          1.0338  -16.6296  -49.6456 C.3       23 UNK        -0.0205 
      9 C9          1.6109  -17.9744  -50.0894 C.ar      23 UNK        -0.0193 
     10 C10         1.2395  -18.5831  -51.2962 C.ar      23 UNK        -0.1150 
     11 C11         1.8513  -19.7645  -51.7287 C.ar      23 UNK        -0.0193 
     12 C12         2.8628  -20.3277  -50.9422 C.ar      23 UNK        -0.1150 
     13 C13         3.2435  -19.7394  -49.7348 C.ar      23 UNK        -0.0193 
     14 C14         2.6069  -18.5705  -49.3088 C.ar      23 UNK        -0.1150 
     15 C15         4.3894  -20.3392  -48.9332 C.3       23 UNK        -0.0205 
     16 S16         3.9444  -21.9277  -48.1654 S.3       23 UNK        -0.2404 
     17 C17         2.9422  -21.3744  -46.7492 C.3       23 UNK        -0.0398 
     18 CA          1.5823  -22.1052  -46.6480 C.3       11 UNK         0.1400 
     19 N           1.0736  -22.0884  -45.2741 N.am      11 UNK        -0.5000 
     20 C           0.0250  -22.7956  -44.8315 C.2       10 UNK         0.5000 
     21 O          -0.6048  -23.5951  -45.5249 O.2       10 UNK        -0.5000 
     22 CA         -0.4157  -22.5348  -43.3780 C.3       10 UNK         0.1400 
     23 CB          0.4459  -23.3396  -42.3938 C.3       10 UNK        -0.1800 
     24 N          -0.3707  -21.1150  -43.0209 N.am      10 UNK        -0.5000 
     25 C          -1.1374  -20.1698  -43.5831 C.2       9 UNK         0.5000 
     26 O          -2.0056  -20.4079  -44.4198 O.2       9 UNK        -0.5000 
     27 CA         -0.8545  -18.7091  -43.1953 C.3       9 UNK         0.1400 
     28 CB         -1.5254  -18.3455  -41.8633 C.3       9 UNK        -0.1800 
     29 N           0.5750  -18.4126  -43.1296 N.am      9 UNK        -0.5000 
     30 C           1.4112  -18.4732  -44.1756 C.2       8 UNK         0.5000 
     31 O           1.0692  -18.7852  -45.3148 O.2       8 UNK        -0.5000 
     32 CA          2.8969  -18.2079  -43.8889 C.3       8 UNK         0.1400 
     33 CB          3.1844  -16.7014  -43.8300 C.3       8 UNK        -0.1800 
     34 N           3.3327  -18.8522  -42.6501 N.am      8 UNK        -0.5000 
     35 C           3.4078  -20.1802  -42.4793 C.2       7 UNK         0.5000 
     36 O           3.1615  -20.9999  -43.3640 O.2       7 UNK        -0.5000 
     37 CA          3.7709  -20.6717  -41.0672 C.3       7 UNK         0.1400 
     38 CB          5.2887  -20.6068  -40.8408 C.3       7 UNK        -0.1800 
     39 N           3.0880  -19.9081  -40.0221 N.am      7 UNK        -0.5000 
     40 C           1.7624  -19.9200  -39.8217 C.2       6 UNK         0.5000 
     41 O           0.9785  -20.6087  -40.4740 O.2       6 UNK        -0.5000 
     42 CA          1.2192  -18.9709  -38.7377 C.3       6 UNK         0.1400 
     43 CB          1.2501  -19.6504  -37.3607 C.3       6 UNK        -0.1800 
     44 N           1.9412  -17.6968  -38.6687 N.am      6 UNK        -0.5000 
     45 C           1.9723  -16.7890  -39.6529 C.2       5 UNK         0.5000 
     46 O           1.4286  -16.9474  -40.7473 O.2       5 UNK        -0.5000 
     47 CA          2.7929  -15.5162  -39.3901 C.3       5 UNK         0.1400 
     48 CB          4.1510  -15.5904  -40.1049 C.3       5 UNK        -0.1800 
     49 N           2.0782  -14.3209  -39.8354 N.am      5 UNK        -0.5000 
     50 C           1.0598  -13.7600  -39.1696 C.2       4 UNK         0.5000 
     51 O           0.6218  -14.1949  -38.1034 O.2       4 UNK        -0.5000 
     52 CA          0.4436  -12.4821  -39.7694 C.3       4 UNK         0.1400 
     53 CB          1.0897  -11.2363  -39.1426 C.3       4 UNK        -0.1800 
     54 N           0.5763  -12.4008  -41.2262 N.am      4 UNK        -0.5000 
     55 C          -0.2488  -13.0043  -42.0914 C.2       3 UNK         0.5000 
     56 O          -1.2068  -13.6964  -41.7385 O.2       3 UNK        -0.5000 
     57 CA          0.0179  -12.7239  -43.5891 C.3       3 UNK         0.1400 
     58 CB          1.4676  -13.0637  -43.9996 C.3       3 UNK        -0.1800 
     59 N          -0.9518  -13.3694  -44.4859 N.am      3 UNK        -0.5000 
     60 C          -1.1176  -14.6852  -44.6941 C.2       2 UNK         0.5000 
     61 O          -0.3893  -15.5593  -44.2321 O.2       2 UNK        -0.5000 
     62 CA         -2.2732  -15.0792  -45.6215 C.3       2 UNK         0.1400 
     63 CB         -3.6419  -14.7236  -45.0072 C.3       2 UNK        -0.1800 
     64 N          -2.0796  -14.4380  -46.9197 N.am      2 UNK        -0.5000 
     65 C          -2.7041  -14.7759  -48.0534 C.2       1 UNK         0.5000 
     66 O          -3.6010  -15.6190  -48.1223 O.2       1 UNK        -0.5000 
     67 C           0.5425  -21.5519  -47.6471 C.2       11 UNK         0.5000 
     68 O           0.2885  -22.1782  -48.6756 O.2       11 UNK        -0.5000 
     69 N          -0.0843  -20.4223  -47.2915 N.am      12 UNK        -0.5000 
     70 CA         -1.1655  -19.7926  -48.0435 C.3       12 UNK         0.1400 
     71 CB         -1.5001  -18.4363  -47.4108 C.3       12 UNK        -0.1800 
     72 C          -2.4242  -20.6726  -48.1183 C.2       12 UNK         0.5000 
     73 O          -3.0156  -20.7903  -49.1908 O.2       12 UNK        -0.5000 
     74 N          -2.8072  -21.2971  -46.9949 N.am      13 UNK        -0.5000 
     75 CA         -3.9660  -22.1871  -46.8756 C.3       13 UNK         0.1400 
     76 CB         -4.1502  -22.6154  -45.4129 C.3       13 UNK        -0.1800 
     77 C          -3.8982  -23.4205  -47.7935 C.2       13 UNK         0.5000 
     78 O          -4.9372  -23.8550  -48.2905 O.2       13 UNK        -0.5000 
     79 N          -2.6840  -23.9199  -48.0651 N.am      14 UNK        -0.5000 
     80 CA         -2.4261  -24.9925  -49.0313 C.3       14 UNK         0.1400 
     81 CB         -0.9688  -25.4586  -48.8969 C.3       14 UNK        -0.1800 
     82 C          -2.7432  -24.5952  -50.4903 C.2       14 UNK         0.5000 
     83 O          -3.0082  -25.4748  -51.3093 O.2       14 UNK        -0.5000 
     84 N          -2.7457  -23.2866  -50.7763 N.am      15 UNK        -0.5000 
     85 CA         -3.1424  -22.6841  -52.0483 C.3       15 UNK         0.1400 
     86 CB         -2.0967  -21.6183  -52.4180 C.3       15 UNK        -0.1800 
     87 C          -4.5532  -22.0630  -51.9653 C.2       15 UNK         0.5000 
     88 O          -4.9181  -21.2797  -52.8420 O.2       15 UNK        -0.5000 
     89 N          -5.3114  -22.3708  -50.9001 N.am      16 UNK        -0.5000 
     90 CA         -6.6369  -21.8320  -50.5731 C.3       16 UNK         0.1400 
     91 CB         -7.6869  -22.3132  -51.5973 C.3       16 UNK        -0.1800 
     92 C          -6.6235  -20.2976  -50.4013 C.2       16 UNK         0.5000 
     93 O          -7.4806  -19.6075  -50.9505 O.2       16 UNK        -0.5000 
     94 N          -5.6098  -19.7887  -49.6852 N.am      17 UNK        -0.5000 
     95 CA         -5.2818  -18.3676  -49.4985 C.3       17 UNK         0.1400 
     96 CB         -6.4189  -17.6153  -48.7749 C.3       17 UNK        -0.1800 
     97 C          -4.8414  -17.6927  -50.8158 C.2       17 UNK         0.5000 
     98 O          -5.0773  -16.5010  -51.0103 O.2       17 UNK        -0.5000 
     99 N          -4.2304  -18.4926  -51.7024 N.am      18 UNK        -0.5000 
    100 CA        -3.8308  -18.1867  -53.0795 C.3       18 UNK         0.1400 
    101 CB        -2.7347  -17.1049  -53.1285 C.3       18 UNK        -0.1800 
    102 C         -5.0133  -17.9179  -54.0353 C.2       18 UNK         0.5000 
    103 O         -4.8183  -17.3095  -55.0892 O.2       18 UNK        -0.5000 
    104 N         -6.2126  -18.4071  -53.6852 N.am      19 UNK        -0.5000 
    105 CA        -7.3731  -18.4387  -54.5781 C.3       19 UNK         0.1400 
    106 CB        -8.6613  -18.5270  -53.7469 C.3       19 UNK        -0.1800 
    107 C         -7.2998  -19.6100  -55.5777 C.2       19 UNK         0.5000 
    108 O         -7.9182  -19.5335  -56.6403 O.2       19 UNK        -0.5000 
    109 N         -6.5501  -20.6618  -55.2259 N.am      20 UNK        -0.5000 
    110 CA        -6.2528  -21.8200  -56.0611 C.3       20 UNK         0.1400 
    111 CB        -6.6795  -23.0887  -55.3002 C.3       20 UNK        -0.1800 
    112 C         -4.7486  -21.8444  -56.3885 C.2       20 UNK         0.5000 
    113 O         -3.9934  -20.9770  -55.9396 O.2       20 UNK        -0.5000 
    114 N         -4.3346  -22.8435  -57.1776 N.am      21 UNK        -0.5000 
    115 CA        -2.9330  -23.1131  -57.4973 C.3       21 UNK         0.1400 
    116 CB        -2.8653  -24.1821  -58.5989 C.3       21 UNK        -0.1800 
    117 C         -2.1472  -23.5667  -56.2519 C.2       21 UNK         0.5000 
    118 O         -2.6791  -24.3211  -55.4335 O.2       21 UNK        -0.5000 
    119 N         -0.8987  -23.1023  -56.1418 N.am      22 UNK        -0.5000 
    120 CA         0.0289  -23.4540  -55.0580 C.3       22 UNK         0.1400 
    121 C          0.5465  -24.9192  -55.1484 C.2       22 UNK         0.5000 
    122 N          0.9434  -25.5121  -54.0310 N.am      22 UNK        -0.7600 
    123 O          0.6260  -25.5111  -56.2232 O.2       22 UNK        -0.5000 
    124 C124        1.1955  -22.4329  -54.9776 C.3       23 UNK        -0.0398 
    125 S125        1.7571  -22.1489  -53.2645 S.3       23 UNK        -0.2404 
    126 C126        1.4448  -20.3568  -53.0790 C.3       23 UNK        -0.0205 
    127 H127       -4.1985  -14.0862  -53.2148 H         1 UNK         0.0600 
    128 H128       -4.9357  -12.5671  -52.6980 H         1 UNK         0.0600 
    129 H129       -5.3566  -14.0652  -51.8769 H         1 UNK         0.0600 
    130 H130       -3.8677  -14.9581  -50.2850 H         1 UNK         0.3000 
    131 H131       -2.1533  -12.9996  -49.0563 H         1 UNK         0.0600 
    132 H132       -0.0823  -14.2750  -49.0161 H         1 UNK         0.0800 
    133 H133       -0.5084  -13.9471  -50.6635 H         1 UNK         0.0800 
    134 H134        1.6877  -15.8458  -50.0300 H         1 UNK         0.0800 
    135 H135        1.0619  -16.5528  -48.5575 H         1 UNK         0.0800 
    136 H136        0.4903  -18.1224  -51.9233 H         1 UNK         0.1150 
    137 H137        3.3768  -21.2200  -51.2686 H         1 UNK         0.1150 
    138 H138        2.9148  -18.1012  -48.3848 H         1 UNK         0.1150 
    139 H139        5.2366  -20.5023  -49.6010 H         1 UNK         0.0800 
    140 H140        4.7399  -19.6456  -48.1672 H         1 UNK         0.0800 
    141 H141        2.8097  -20.2917  -46.7654 H         1 UNK         0.0800 
    142 H142        3.5428  -21.5847  -45.8642 H         1 UNK         0.0800 
    143 H143        1.7435  -23.1561  -46.8990 H         1 UNK         0.0600 
    144 H144        1.5577  -21.4820  -44.6213 H         1 UNK         0.3000 
    145 H145       -1.4493  -22.8720  -43.2784 H         1 UNK         0.0600 
    146 H146        0.0873  -23.2228  -41.3710 H         1 UNK         0.0600 
    147 H147        0.4179  -24.4041  -42.6294 H         1 UNK         0.0600 
    148 H148        1.4892  -23.0236  -42.4191 H         1 UNK         0.0600 
    149 H149        0.2846  -20.8462  -42.2927 H         1 UNK         0.3000 
    150 H150       -1.2865  -18.0761  -43.9723 H         1 UNK         0.0600 
    151 H151       -2.6024  -18.5098  -41.9123 H         1 UNK         0.0600 
    152 H152       -1.3659  -17.2947  -41.6187 H         1 UNK         0.0600 
    153 H153       -1.1383  -18.9448  -41.0398 H         1 UNK         0.0600 
    154 H154        0.9309  -18.0761  -42.2397 H         1 UNK         0.3000 
    155 H155        3.4774  -18.6306  -44.7118 H         1 UNK         0.0600 
    156 H156        2.9100  -16.2188  -44.7690 H         1 UNK         0.0600 
    157 H157        2.6146  -16.2153  -43.0384 H         1 UNK         0.0600 
    158 H158        4.2426  -16.5044  -43.6583 H         1 UNK         0.0600 
    159 H159        3.4985  -18.2505  -41.8581 H         1 UNK         0.3000 
    160 H160        3.4574  -21.7149  -40.9866 H         1 UNK         0.0600 
    161 H161        5.6610  -19.5824  -40.8812 H         1 UNK         0.0600 
    162 H162        5.8208  -21.1800  -41.6012 H         1 UNK         0.0600 
    163 H163        5.5604  -21.0248  -39.8713 H         1 UNK         0.0600 
    164 H164        3.6590  -19.3167  -39.4369 H         1 UNK         0.3000 
    165 H165        0.1785  -18.7507  -38.9836 H         1 UNK         0.0600 
    166 H166        0.7867  -19.0219  -36.6001 H         1 UNK         0.0600 
    167 H167        0.7019  -20.5934  -37.3788 H         1 UNK         0.0600 
    168 H168        2.2697  -19.8694  -37.0409 H         1 UNK         0.0600 
    169 H169        2.4181  -17.4973  -37.8010 H         1 UNK         0.3000 
    170 H170        2.9797  -15.4302  -38.3173 H         1 UNK         0.0600 
    171 H171        4.0382  -15.6287  -41.1880 H         1 UNK         0.0600 
    172 H172        4.7678  -14.7240  -39.8655 H         1 UNK         0.0600 
    173 H173        4.7075  -16.4776  -39.8000 H         1 UNK         0.0600 
    174 H174        2.3459  -13.9340  -40.7273 H         1 UNK         0.3000 
    175 H175       -0.6169  -12.4748  -39.5078 H         1 UNK         0.0600 
    176 H176        0.6161  -10.3228  -39.5026 H         1 UNK         0.0600 
    177 H177        2.1546  -11.1759  -39.3704 H         1 UNK         0.0600 
    178 H178        0.9868  -11.2472  -38.0566 H         1 UNK         0.0600 
    179 H179        1.3249  -11.8225  -41.5792 H         1 UNK         0.3000 
    180 H180       -0.1227  -11.6512  -43.7298 H         1 UNK         0.0600 
    181 H181        1.6145  -12.9368  -45.0722 H         1 UNK         0.0600 
    182 H182        1.7305  -14.0898  -43.7458 H         1 UNK         0.0600 
    183 H183        2.1855  -12.4127  -43.5005 H         1 UNK         0.0600 
    184 H184       -1.6367  -12.7447  -44.8867 H         1 UNK         0.3000 
    185 H185       -2.2280  -16.1610  -45.7586 H         1 UNK         0.0600 
    186 H186       -4.4611  -15.1408  -45.5926 H         1 UNK         0.0600 
    187 H187       -3.7313  -15.1271  -43.9977 H         1 UNK         0.0600 
    188 H188       -3.7922  -13.6455  -44.9458 H         1 UNK         0.0600 
    189 H189       -1.3342  -13.7560  -46.9517 H         1 UNK         0.3000 
    190 H190        0.2204  -19.9373  -46.4497 H         1 UNK         0.3000 
    191 H191       -0.8101  -19.6208  -49.0618 H         1 UNK         0.0600 
    192 H192       -0.6189  -17.7990  -47.3455 H         1 UNK         0.0600 
    193 H193       -2.2395  -17.9054  -48.0083 H         1 UNK         0.0600 
    194 H194       -1.9050  -18.5459  -46.4051 H         1 UNK         0.0600 
    195 H195       -2.3074  -21.0963  -46.1316 H         1 UNK         0.3000 
    196 H196       -4.8469  -21.6133  -47.1701 H         1 UNK         0.0600 
    197 H197       -5.0076  -23.2807  -45.3039 H         1 UNK         0.0600 
    198 H198       -4.3274  -21.7540  -44.7691 H         1 UNK         0.0600 
    199 H199       -3.2747  -23.1435  -45.0354 H         1 UNK         0.0600 
    200 H200       -1.8780  -23.5114  -47.6083 H         1 UNK         0.3000 
    201 H201       -3.0744  -25.8325  -48.7735 H         1 UNK         0.0600 
    202 H202       -0.7378  -25.7483  -47.8715 H         1 UNK         0.0600 
    203 H203       -0.2670  -24.6789  -49.1918 H         1 UNK         0.0600 
    204 H204       -0.7779  -26.3247  -49.5317 H         1 UNK         0.0600 
    205 H205       -2.5398  -22.6269  -50.0341 H         1 UNK         0.3000 
    206 H206       -3.1594  -23.4386  -52.8368 H         1 UNK         0.0600 
    207 H207       -1.0865  -22.0141  -52.3288 H         1 UNK         0.0600 
    208 H208       -2.2285  -21.2829  -53.4475 H         1 UNK         0.0600 
    209 H209       -2.1586  -20.7429  -51.7709 H         1 UNK         0.0600 
    210 H210       -4.9320  -23.0142  -50.2153 H         1 UNK         0.3000 
    211 H211       -6.9084  -22.2471  -49.6016 H         1 UNK         0.0600 
    212 H212       -7.5220  -21.8801  -52.5841 H         1 UNK         0.0600 
    213 H213       -8.6931  -22.0327  -51.2844 H         1 UNK         0.0600 
    214 H214       -7.6695  -23.3980  -51.7007 H         1 UNK         0.0600 
    215 H215       -4.8885  -20.4267  -49.3621 H         1 UNK         0.3000 
    216 H216       -4.4116  -18.3399  -48.8433 H         1 UNK         0.0600 
    217 H217       -6.1030  -16.6101  -48.4947 H         1 UNK         0.0600 
    218 H218       -6.7113  -18.1288  -47.8593 H         1 UNK         0.0600 
    219 H219       -7.3044  -17.5102  -49.4017 H         1 UNK         0.0600 
    220 H220       -4.1221  -19.4619  -51.4395 H         1 UNK         0.3000 
    221 H221       -3.3778  -19.1014  -53.4624 H         1 UNK         0.0600 
    222 H222       -3.0670  -16.1618  -52.6985 H         1 UNK         0.0600 
    223 H223       -1.8521  -17.4325  -52.5822 H         1 UNK         0.0600 
    224 H224       -2.4151  -16.9054  -54.1516 H         1 UNK         0.0600 
    225 H225       -6.3090  -18.8864  -52.7988 H         1 UNK         0.3000 
    226 H226       -7.4058  -17.5087  -55.1496 H         1 UNK         0.0600 
    227 H227       -8.7021  -17.7424  -52.9911 H         1 UNK         0.0600 
    228 H228       -9.5405  -18.4150  -54.3825 H         1 UNK         0.0600 
    229 H229       -8.7484  -19.4887  -53.2406 H         1 UNK         0.0600 
    230 H230       -6.0132  -20.6189  -54.3641 H         1 UNK         0.3000 
    231 H231       -6.8017  -21.7703  -57.0034 H         1 UNK         0.0600 
    232 H232       -6.0862  -23.2372  -54.3976 H         1 UNK         0.0600 
    233 H233       -6.5647  -23.9803  -55.9170 H         1 UNK         0.0600 
    234 H234       -7.7275  -23.0360  -55.0047 H         1 UNK         0.0600 
    235 H235       -5.0040  -23.5316  -57.4890 H         1 UNK         0.3000 
    236 H236       -2.4896  -22.1918  -57.8814 H         1 UNK         0.0600 
    237 H237       -3.3825  -23.8543  -59.5008 H         1 UNK         0.0600 
    238 H238       -1.8312  -24.3919  -58.8755 H         1 UNK         0.0600 
    239 H239       -3.3145  -25.1220  -58.2754 H         1 UNK         0.0600 
    240 H240       -0.5246  -22.5229  -56.8787 H         1 UNK         0.3000 
    241 H241       -0.5535  -23.3864  -54.1380 H         1 UNK         0.0600 
    242 H242        0.9229  -25.0291  -53.1462 H         1 UNK         0.3800 
    243 H243        1.2936  -26.4565  -54.0733 H         1 UNK         0.3800 
    244 H244        0.8844  -21.4725  -55.3911 H         1 UNK         0.0800 
    245 H245        2.0462  -22.7451  -55.5862 H         1 UNK         0.0800 
    246 H246        0.3837  -20.1719  -53.2529 H         1 UNK         0.0800 
    247 H247        1.9876  -19.8225  -53.8597 H         1 UNK         0.0800 
@<TRIPOS>BOND
     1    1    2 1    
     2    1  127 1    
     3    1  128 1    
     4    1  129 1    
     5    2    3 2    
     6    2    4 am   BACKBONE|DICT|INTERRES
     7    4    5 1    
     8    4  130 1    
     9    5    6 1    
    10    5   65 1    
    11    5  131 1    
    12    6    7 1    
    13    6  132 1    
    14    6  133 1    
    15    7    8 1    
    16    8    9 1    
    17    8  134 1    
    18    8  135 1    
    19    9   10 ar   
    20    9   14 ar   
    21   10   11 ar   
    22   10  136 1    
    23   11   12 ar   
    24   11  126 1    
    25   12   13 ar   
    26   12  137 1    
    27   13   14 ar   
    28   13   15 1    
    29   14  138 1    
    30   15   16 1    
    31   15  139 1    
    32   15  140 1    
    33   16   17 1    
    34   17   18 1    
    35   17  141 1    
    36   17  142 1    
    37   18   19 1    
    38   18   67 1    
    39   18  143 1    
    40   19   20 am   BACKBONE|DICT|INTERRES
    41   19  144 1    
    42   20   21 2    
    43   20   22 1    
    44   22   23 1    
    45   22   24 1    
    46   22  145 1    
    47   23  146 1    
    48   23  147 1    
    49   23  148 1    
    50   24   25 am   BACKBONE|DICT|INTERRES
    51   24  149 1    
    52   25   26 2    
    53   25   27 1    
    54   27   28 1    
    55   27   29 1    
    56   27  150 1    
    57   28  151 1    
    58   28  152 1    
    59   28  153 1    
    60   29   30 am   BACKBONE|DICT|INTERRES
    61   29  154 1    
    62   30   31 2    
    63   30   32 1    
    64   32   33 1    
    65   32   34 1    
    66   32  155 1    
    67   33  156 1    
    68   33  157 1    
    69   33  158 1    
    70   34   35 am   BACKBONE|DICT|INTERRES
    71   34  159 1    
    72   35   36 2    
    73   35   37 1    
    74   37   38 1    
    75   37   39 1    
    76   37  160 1    
    77   38  161 1    
    78   38  162 1    
    79   38  163 1    
    80   39   40 am   BACKBONE|DICT|INTERRES
    81   39  164 1    
    82   40   41 2    
    83   40   42 1    
    84   42   43 1    
    85   42   44 1    
    86   42  165 1    
    87   43  166 1    
    88   43  167 1    
    89   43  168 1    
    90   44   45 am   BACKBONE|DICT|INTERRES
    91   44  169 1    
    92   45   46 2    
    93   45   47 1    
    94   47   48 1    
    95   47   49 1    
    96   47  170 1    
    97   48  171 1    
    98   48  172 1    
    99   48  173 1    
   100   49   50 am   BACKBONE|DICT|INTERRES
   101   49  174 1    
   102   50   51 2    
   103   50   52 1    
   104   52   53 1    
   105   52   54 1    
   106   52  175 1    
   107   53  176 1    
   108   53  177 1    
   109   53  178 1    
   110   54   55 am   BACKBONE|DICT|INTERRES
   111   54  179 1    
   112   55   56 2    
   113   55   57 1    
   114   57   58 1    
   115   57   59 1    
   116   57  180 1    
   117   58  181 1    
   118   58  182 1    
   119   58  183 1    
   120   59   60 am   BACKBONE|DICT|INTERRES
   121   59  184 1    
   122   60   61 2    
   123   60   62 1    
   124   62   63 1    
   125   62   64 1    
   126   62  185 1    
   127   63  186 1    
   128   63  187 1    
   129   63  188 1    
   130   64   65 am   BACKBONE|DICT|INTERRES
   131   64  189 1    
   132   65   66 2    
   133   67   68 2    
   134   67   69 am   BACKBONE|DICT|INTERRES
   135   69   70 1    
   136   69  190 1    
   137   70   71 1    
   138   70   72 1    
   139   70  191 1    
   140   71  192 1    
   141   71  193 1    
   142   71  194 1    
   143   72   73 2    
   144   72   74 am   BACKBONE|DICT|INTERRES
   145   74   75 1    
   146   74  195 1    
   147   75   76 1    
   148   75   77 1    
   149   75  196 1    
   150   76  197 1    
   151   76  198 1    
   152   76  199 1    
   153   77   78 2    
   154   77   79 am   BACKBONE|DICT|INTERRES
   155   79   80 1    
   156   79  200 1    
   157   80   81 1    
   158   80   82 1    
   159   80  201 1    
   160   81  202 1    
   161   81  203 1    
   162   81  204 1    
   163   82   83 2    
   164   82   84 am   BACKBONE|DICT|INTERRES
   165   84   85 1    
   166   84  205 1    
   167   85   86 1    
   168   85   87 1    
   169   85  206 1    
   170   86  207 1    
   171   86  208 1    
   172   86  209 1    
   173   87   88 2    
   174   87   89 am   BACKBONE|DICT|INTERRES
   175   89   90 1    
   176   89  210 1    
   177   90   91 1    
   178   90   92 1    
   179   90  211 1    
   180   91  212 1    
   181   91  213 1    
   182   91  214 1    
   183   92   93 2    
   184   92   94 am   BACKBONE|DICT|INTERRES
   185   94   95 1    
   186   94  215 1    
   187   95   96 1    
   188   95   97 1    
   189   95  216 1    
   190   96  217 1    
   191   96  218 1    
   192   96  219 1    
   193   97   98 2    
   194   97   99 am   BACKBONE|DICT|INTERRES
   195   99  100 1    
   196   99  220 1    
   197  100  101 1    
   198  100  102 1    
   199  100  221 1    
   200  101  222 1    
   201  101  223 1    
   202  101  224 1    
   203  102  103 2    
   204  102  104 am   BACKBONE|DICT|INTERRES
   205  104  105 1    
   206  104  225 1    
   207  105  106 1    
   208  105  107 1    
   209  105  226 1    
   210  106  227 1    
   211  106  228 1    
   212  106  229 1    
   213  107  108 2    
   214  107  109 am   BACKBONE|DICT|INTERRES
   215  109  110 1    
   216  109  230 1    
   217  110  111 1    
   218  110  112 1    
   219  110  231 1    
   220  111  232 1    
   221  111  233 1    
   222  111  234 1    
   223  112  113 2    
   224  112  114 am   BACKBONE|DICT|INTERRES
   225  114  115 1    
   226  114  235 1    
   227  115  116 1    
   228  115  117 1    
   229  115  236 1    
   230  116  237 1    
   231  116  238 1    
   232  116  239 1    
   233  117  118 2    
   234  117  119 am   BACKBONE|DICT|INTERRES
   235  119  120 1    
   236  119  240 1    
   237  120  121 1    
   238  120  124 1    
   239  120  241 1    
   240  121  122 am   BACKBONE|DICT|INTERRES
   241  121  123 2    
   242  122  242 1    
   243  122  243 1    
   244  124  125 1    
   245  124  244 1    
   246  124  245 1    
   247  125  126 1    
   248  126  246 1    
   249  126  247 1    
@<TRIPOS>SUBSTRUCTURE
     1 UNK         1 GROUP             0       ****    0 ROOT    
