@<TRIPOS>MOLECULE
3R540
247   249    1
SMALL
USER_CHARGES


@<TRIPOS>ATOM
      1 CA          6.8489  -11.7582  -51.5430 C.3       0 UNK        -0.1800 
      2 C           5.7744  -12.3205  -50.6235 C.2       0 UNK         0.5000 
      3 O           5.8225  -12.0970  -49.4128 O.2       0 UNK        -0.5000 
      4 N           4.8024  -13.0469  -51.1889 N.am      1 UNK        -0.5000 
      5 CA          3.6796  -13.6643  -50.4753 C.3       1 UNK         0.1400 
      6 C6          3.0826  -14.8697  -51.2462 C.3       23 UNK        -0.0398 
      7 S7          4.3001  -16.1964  -51.5281 S.3       23 UNK        -0.2404 
      8 C8          3.3194  -17.3522  -52.5349 C.3       23 UNK        -0.0205 
      9 C9          2.4212  -18.2361  -51.6817 C.ar      23 UNK        -0.0193 
     10 C10         1.0816  -17.8963  -51.4655 C.ar      23 UNK        -0.1150 
     11 C11         0.2503  -18.7356  -50.7162 C.ar      23 UNK        -0.0193 
     12 C12         0.7653  -19.9206  -50.1877 C.ar      23 UNK        -0.1150 
     13 C13         2.1038  -20.2656  -50.3875 C.ar      23 UNK        -0.0193 
     14 C14         2.9274  -19.4184  -51.1334 C.ar      23 UNK        -0.1150 
     15 C15         2.6484  -21.5724  -49.8347 C.3       23 UNK        -0.0205 
     16 S16         3.4210  -21.3822  -48.1941 S.3       23 UNK        -0.2404 
     17 C17         2.0170  -20.9755  -47.0967 C.3       23 UNK        -0.0398 
     18 CA          1.3272  -22.2243  -46.4940 C.3       11 UNK         0.1400 
     19 N           0.7060  -21.9451  -45.1986 N.am      11 UNK        -0.5000 
     20 C           0.2271  -22.8841  -44.3702 C.2       10 UNK         0.5000 
     21 O           0.3006  -24.0942  -44.5899 O.2       10 UNK        -0.5000 
     22 CA         -0.4950  -22.3843  -43.1061 C.3       10 UNK         0.1400 
     23 CB          0.5154  -21.9523  -42.0331 C.3       10 UNK        -0.1800 
     24 N          -1.4244  -21.2870  -43.3837 N.am      10 UNK        -0.5000 
     25 C          -2.5075  -21.3984  -44.1664 C.2       9 UNK         0.5000 
     26 O          -2.8494  -22.4460  -44.7132 O.2       9 UNK        -0.5000 
     27 CA         -3.3316  -20.1237  -44.4136 C.3       9 UNK         0.1400 
     28 CB         -4.2503  -19.8264  -43.2197 C.3       9 UNK        -0.1800 
     29 N          -2.5036  -18.9541  -44.7059 N.am      9 UNK        -0.5000 
     30 C          -1.6911  -18.8392  -45.7672 C.2       8 UNK         0.5000 
     31 O          -1.5667  -19.6988  -46.6366 O.2       8 UNK        -0.5000 
     32 CA         -0.8239  -17.5733  -45.8411 C.3       8 UNK         0.1400 
     33 CB         -1.6663  -16.3654  -46.2813 C.3       8 UNK        -0.1800 
     34 N          -0.1611  -17.2895  -44.5689 N.am      8 UNK        -0.5000 
     35 C           0.6947  -18.1155  -43.9488 C.2       7 UNK         0.5000 
     36 O           1.0685  -19.1924  -44.4129 O.2       7 UNK        -0.5000 
     37 CA          1.1693  -17.6972  -42.5484 C.3       7 UNK         0.1400 
     38 CB          2.3169  -16.6837  -42.6322 C.3       7 UNK        -0.1800 
     39 N           0.0810  -17.1409  -41.7473 N.am      7 UNK        -0.5000 
     40 C          -0.9343  -17.8609  -41.2521 C.2       6 UNK         0.5000 
     41 O          -1.0515  -19.0767  -41.4055 O.2       6 UNK        -0.5000 
     42 CA         -2.0168  -17.0811  -40.4852 C.3       6 UNK         0.1400 
     43 CB         -1.5714  -16.8087  -39.0406 C.3       6 UNK        -0.1800 
     44 N          -2.3664  -15.8162  -41.1344 N.am      6 UNK        -0.5000 
     45 C          -2.9844  -15.7297  -42.3197 C.2       5 UNK         0.5000 
     46 O          -3.3178  -16.7055  -42.9917 O.2       5 UNK        -0.5000 
     47 CA         -3.2431  -14.3137  -42.8645 C.3       5 UNK         0.1400 
     48 CB         -4.5025  -13.7112  -42.2236 C.3       5 UNK        -0.1800 
     49 N          -2.1230  -13.3771  -42.7118 N.am      5 UNK        -0.5000 
     50 C          -0.8854  -13.5735  -43.1856 C.2       4 UNK         0.5000 
     51 O          -0.4972  -14.6463  -43.6496 O.2       4 UNK        -0.5000 
     52 CA          0.0593  -12.3581  -43.1730 C.3       4 UNK         0.1400 
     53 CB          1.0348  -12.4006  -41.9807 C.3       4 UNK        -0.1800 
     54 N           0.7233  -12.2369  -44.4788 N.am      4 UNK        -0.5000 
     55 C           1.7615  -12.9354  -44.9702 C.2       3 UNK         0.5000 
     56 O           2.5682  -13.5608  -44.2841 O.2       3 UNK        -0.5000 
     57 CA          1.9131  -12.9702  -46.5057 C.3       3 UNK         0.1400 
     58 CB          2.0169  -14.4294  -46.9920 C.3       3 UNK        -0.1800 
     59 N           0.7644  -12.3339  -47.1659 N.am      3 UNK        -0.5000 
     60 C           0.7261  -11.2811  -47.9999 C.2       2 UNK         0.5000 
     61 O          -0.3501  -10.7686  -48.3019 O.2       2 UNK        -0.5000 
     62 CA          2.0102  -10.7091  -48.6487 C.3       2 UNK         0.1400 
     63 CB          2.7628   -9.7572  -47.7031 C.3       2 UNK        -0.1800 
     64 N           2.9171  -11.7236  -49.1883 N.am      2 UNK        -0.5000 
     65 C           2.6055  -12.6050  -50.1472 C.2       1 UNK         0.5000 
     66 O           1.5393  -12.5926  -50.7649 O.2       1 UNK        -0.5000 
     67 C           0.3161  -22.8549  -47.4716 C.2       11 UNK         0.5000 
     68 O           0.6323  -23.8683  -48.0931 O.2       11 UNK        -0.5000 
     69 N          -0.8934  -22.2812  -47.5601 N.am      12 UNK        -0.5000 
     70 CA         -1.9892  -22.7821  -48.3891 C.3       12 UNK         0.1400 
     71 CB         -3.1828  -21.8210  -48.3254 C.3       12 UNK        -0.1800 
     72 C          -2.4218  -24.2076  -48.0114 C.2       12 UNK         0.5000 
     73 O          -2.6072  -25.0302  -48.9051 O.2       12 UNK        -0.5000 
     74 N          -2.5226  -24.4939  -46.7061 N.am      13 UNK        -0.5000 
     75 CA         -2.8235  -25.8231  -46.1731 C.3       13 UNK         0.1400 
     76 CB         -3.0135  -25.7408  -44.6512 C.3       13 UNK        -0.1800 
     77 C          -1.7542  -26.8704  -46.5358 C.2       13 UNK         0.5000 
     78 O          -2.1085  -27.9904  -46.9051 O.2       13 UNK        -0.5000 
     79 N          -0.4734  -26.4803  -46.4640 N.am      14 UNK        -0.5000 
     80 CA          0.6654  -27.3094  -46.8644 C.3       14 UNK         0.1400 
     81 CB          1.9673  -26.6685  -46.3594 C.3       14 UNK        -0.1800 
     82 C           0.7231  -27.5489  -48.3865 C.2       14 UNK         0.5000 
     83 O           1.0346  -28.6599  -48.8167 O.2       14 UNK        -0.5000 
     84 N           0.4041  -26.5107  -49.1702 N.am      15 UNK        -0.5000 
     85 CA          0.3603  -26.5364  -50.6341 C.3       15 UNK         0.1400 
     86 CB          0.4232  -25.0894  -51.1505 C.3       15 UNK        -0.1800 
     87 C          -0.8769  -27.2533  -51.2142 C.2       15 UNK         0.5000 
     88 O          -0.8852  -27.5495  -52.4097 O.2       15 UNK        -0.5000 
     89 N          -1.8966  -27.4922  -50.3759 N.am      16 UNK        -0.5000 
     90 CA         -3.2356  -27.9900  -50.7133 C.3       16 UNK         0.1400 
     91 CB         -3.1797  -29.4241  -51.2803 C.3       16 UNK        -0.1800 
     92 C          -4.0137  -26.9997  -51.6089 C.2       16 UNK         0.5000 
     93 O          -4.6874  -27.4045  -52.5586 O.2       16 UNK        -0.5000 
     94 N          -3.8914  -25.7115  -51.2759 N.am      17 UNK        -0.5000 
     95 CA         -4.5548  -24.5730  -51.9014 C.3       17 UNK         0.1400 
     96 CB         -3.4649  -23.5993  -52.3941 C.3       17 UNK        -0.1800 
     97 C          -5.5002  -23.9058  -50.8817 C.2       17 UNK         0.5000 
     98 O          -5.7865  -24.4794  -49.8274 O.2       17 UNK        -0.5000 
     99 N          -5.9608  -22.6943  -51.2060 N.am      18 UNK        -0.5000 
    100 CA        -6.7027  -21.8069  -50.3174 C.3       18 UNK         0.1400 
    101 CB        -8.1560  -21.6930  -50.8033 C.3       18 UNK        -0.1800 
    102 C         -6.0123  -20.4404  -50.3627 C.2       18 UNK         0.5000 
    103 O         -5.6039  -20.0141  -51.4458 O.2       18 UNK        -0.5000 
    104 N         -5.9142  -19.7660  -49.2087 N.am      19 UNK        -0.5000 
    105 CA        -5.2232  -18.4795  -49.0485 C.3       19 UNK         0.1400 
    106 CB        -5.2457  -18.0660  -47.5696 C.3       19 UNK        -0.1800 
    107 C         -5.7861  -17.3563  -49.9400 C.2       19 UNK         0.5000 
    108 O         -5.0245  -16.5233  -50.4303 O.2       19 UNK        -0.5000 
    109 N         -7.1043  -17.3888  -50.1743 N.am      20 UNK        -0.5000 
    110 CA        -7.8142  -16.4812  -51.0750 C.3       20 UNK         0.1400 
    111 CB        -9.3236  -16.6128  -50.8191 C.3       20 UNK        -0.1800 
    112 C         -7.4995  -16.7185  -52.5666 C.2       20 UNK         0.5000 
    113 O         -7.6830  -15.7999  -53.3663 O.2       20 UNK        -0.5000 
    114 N         -7.0483  -17.9306  -52.9205 N.am      21 UNK        -0.5000 
    115 CA        -6.6753  -18.3019  -54.2829 C.3       21 UNK         0.1400 
    116 CB        -6.9591  -19.7953  -54.5173 C.3       21 UNK        -0.1800 
    117 C         -5.2034  -17.9638  -54.5650 C.2       21 UNK         0.5000 
    118 O         -4.9178  -17.3508  -55.5949 O.2       21 UNK        -0.5000 
    119 N         -4.2983  -18.3618  -53.6587 N.am      22 UNK        -0.5000 
    120 CA        -2.8542  -18.0959  -53.7855 C.3       22 UNK         0.1400 
    121 C         -2.4140  -16.6550  -53.3997 C.2       22 UNK         0.5000 
    122 N         -3.1729  -15.9098  -52.6062 N.am      22 UNK        -0.7600 
    123 O         -1.3652  -16.1970  -53.8445 O.2       22 UNK        -0.5000 
    124 C124       -1.9763  -19.1786  -53.1064 C.3       23 UNK        -0.0398 
    125 S125       -2.3504  -19.4918  -51.3475 S.3       23 UNK        -0.2404 
    126 C126       -1.2065  -18.3734  -50.4757 C.3       23 UNK        -0.0205 
    127 H127        6.8621  -10.6700  -51.4824 H         1 UNK         0.0600 
    128 H128        6.6806  -12.0394  -52.5829 H         1 UNK         0.0600 
    129 H129        7.8293  -12.1296  -51.2447 H         1 UNK         0.0600 
    130 H130        4.8107  -13.1883  -52.1890 H         1 UNK         0.3000 
    131 H131        4.0487  -14.0484  -49.5214 H         1 UNK         0.0600 
    132 H132        2.2457  -15.2952  -50.6896 H         1 UNK         0.0800 
    133 H133        2.6842  -14.5507  -52.2111 H         1 UNK         0.0800 
    134 H134        2.7302  -16.8018  -53.2701 H         1 UNK         0.0800 
    135 H135        4.0034  -17.9793  -53.1088 H         1 UNK         0.0800 
    136 H136        0.6831  -16.9855  -51.8909 H         1 UNK         0.1150 
    137 H137        0.1148  -20.5763  -49.6266 H         1 UNK         0.1150 
    138 H138        3.9618  -19.6859  -51.2987 H         1 UNK         0.1150 
    139 H139        1.8612  -22.3237  -49.8011 H         1 UNK         0.0800 
    140 H140        3.3980  -21.9691  -50.5210 H         1 UNK         0.0800 
    141 H141        1.3068  -20.3054  -47.5799 H         1 UNK         0.0800 
    142 H142        2.4538  -20.3851  -46.2909 H         1 UNK         0.0800 
    143 H143        2.0989  -22.9735  -46.3025 H         1 UNK         0.0600 
    144 H144        0.6340  -20.9668  -44.9294 H         1 UNK         0.3000 
    145 H145       -1.0759  -23.2183  -42.7068 H         1 UNK         0.0600 
    146 H146        1.2117  -22.7600  -41.8041 H         1 UNK         0.0600 
    147 H147        1.1032  -21.0924  -42.3551 H         1 UNK         0.0600 
    148 H148        0.0121  -21.6838  -41.1043 H         1 UNK         0.0600 
    149 H149       -1.2305  -20.3992  -42.9316 H         1 UNK         0.3000 
    150 H150       -3.9630  -20.3089  -45.2838 H         1 UNK         0.0600 
    151 H151       -4.8778  -20.6869  -42.9844 H         1 UNK         0.0600 
    152 H152       -4.9143  -18.9890  -43.4345 H         1 UNK         0.0600 
    153 H153       -3.6798  -19.5791  -42.3239 H         1 UNK         0.0600 
    154 H154       -2.5695  -18.1802  -44.0508 H         1 UNK         0.3000 
    155 H155       -0.0466  -17.7405  -46.5898 H         1 UNK         0.0600 
    156 H156       -1.0604  -15.4646  -46.3675 H         1 UNK         0.0600 
    157 H157       -2.1230  -16.5448  -47.2555 H         1 UNK         0.0600 
    158 H158       -2.4703  -16.1552  -45.5758 H         1 UNK         0.0600 
    159 H159       -0.3787  -16.3959  -44.1313 H         1 UNK         0.3000 
    160 H160        1.5450  -18.5898  -42.0436 H         1 UNK         0.0600 
    161 H161        1.9867  -15.7505  -43.0853 H         1 UNK         0.0600 
    162 H162        3.1395  -17.0701  -43.2352 H         1 UNK         0.0600 
    163 H163        2.7150  -16.4538  -41.6439 H         1 UNK         0.0600 
    164 H164        0.0637  -16.1376  -41.6384 H         1 UNK         0.3000 
    165 H165       -2.9131  -17.7045  -40.4526 H         1 UNK         0.0600 
    166 H166       -2.3653  -16.3300  -38.4672 H         1 UNK         0.0600 
    167 H167       -1.3179  -17.7384  -38.5293 H         1 UNK         0.0600 
    168 H168       -0.6932  -16.1631  -39.0028 H         1 UNK         0.0600 
    169 H169       -2.1151  -14.9643  -40.6549 H         1 UNK         0.3000 
    170 H170       -3.4298  -14.4145  -43.9356 H         1 UNK         0.0600 
    171 H171       -5.3569  -14.3803  -42.3357 H         1 UNK         0.0600 
    172 H172       -4.3651  -13.5301  -41.1569 H         1 UNK         0.0600 
    173 H173       -4.7707  -12.7647  -42.6934 H         1 UNK         0.0600 
    174 H174       -2.3555  -12.4726  -42.3276 H         1 UNK         0.3000 
    175 H175       -0.5462  -11.4564  -43.0694 H         1 UNK         0.0600 
    176 H176        1.5714  -13.3480  -41.9215 H         1 UNK         0.0600 
    177 H177        1.7699  -11.5981  -42.0409 H         1 UNK         0.0600 
    178 H178        0.4966  -12.2803  -41.0400 H         1 UNK         0.0600 
    179 H179        0.1882  -11.7159  -45.1586 H         1 UNK         0.3000 
    180 H180        2.8473  -12.4626  -46.7323 H         1 UNK         0.0600 
    181 H181        1.2142  -15.0459  -46.5877 H         1 UNK         0.0600 
    182 H182        2.9585  -14.8789  -46.6746 H         1 UNK         0.0600 
    183 H183        1.9709  -14.5039  -48.0767 H         1 UNK         0.0600 
    184 H184       -0.1268  -12.7072  -46.8741 H         1 UNK         0.3000 
    185 H185        1.6829  -10.1091  -49.5005 H         1 UNK         0.0600 
    186 H186        2.0950   -8.9849  -47.3191 H         1 UNK         0.0600 
    187 H187        3.1944  -10.2685  -46.8441 H         1 UNK         0.0600 
    188 H188        3.5733   -9.2493  -48.2263 H         1 UNK         0.0600 
    189 H189        3.8545  -11.7594  -48.8034 H         1 UNK         0.3000 
    190 H190       -1.0833  -21.4269  -47.0398 H         1 UNK         0.3000 
    191 H191       -1.6322  -22.8059  -49.4203 H         1 UNK         0.0600 
    192 H192       -2.9141  -20.8317  -48.6940 H         1 UNK         0.0600 
    193 H193       -3.5593  -21.7093  -47.3089 H         1 UNK         0.0600 
    194 H194       -4.0035  -22.1849  -48.9410 H         1 UNK         0.0600 
    195 H195       -2.4054  -23.7463  -46.0266 H         1 UNK         0.3000 
    196 H196       -3.7674  -26.1488  -46.6151 H         1 UNK         0.0600 
    197 H197       -3.2440  -26.7208  -44.2316 H         1 UNK         0.0600 
    198 H198       -3.8373  -25.0751  -44.3934 H         1 UNK         0.0600 
    199 H199       -2.1172  -25.3711  -44.1524 H         1 UNK         0.0600 
    200 H200       -0.2644  -25.5462  -46.1301 H         1 UNK         0.3000 
    201 H201        0.5598  -28.2824  -46.3800 H         1 UNK         0.0600 
    202 H202        1.9546  -26.5533  -45.2754 H         1 UNK         0.0600 
    203 H203        2.1303  -25.6833  -46.7966 H         1 UNK         0.0600 
    204 H204        2.8298  -27.2864  -46.6119 H         1 UNK         0.0600 
    205 H205        0.2326  -25.6094  -48.7308 H         1 UNK         0.3000 
    206 H206        1.2438  -27.0661  -50.9959 H         1 UNK         0.0600 
    207 H207        1.3281  -24.5879  -50.8075 H         1 UNK         0.0600 
    208 H208        0.4291  -25.0595  -52.2407 H         1 UNK         0.0600 
    209 H209       -0.4332  -24.5059  -50.8111 H         1 UNK         0.0600 
    210 H210       -1.7919  -27.1518  -49.4288 H         1 UNK         0.3000 
    211 H211       -3.7820  -28.0346  -49.7701 H         1 UNK         0.0600 
    212 H212       -2.7114  -29.4574  -52.2641 H         1 UNK         0.0600 
    213 H213       -4.1827  -29.8394  -51.3843 H         1 UNK         0.0600 
    214 H214       -2.6213  -30.0870  -50.6193 H         1 UNK         0.0600 
    215 H215       -3.3785  -25.4908  -50.4222 H         1 UNK         0.3000 
    216 H216       -5.1560  -24.8978  -52.7527 H         1 UNK         0.0600 
    217 H217       -2.7449  -24.1091  -53.0348 H         1 UNK         0.0600 
    218 H218       -2.9130  -23.1585  -51.5628 H         1 UNK         0.0600 
    219 H219       -3.8880  -22.7823  -52.9794 H         1 UNK         0.0600 
    220 H220       -5.6348  -22.2512  -52.0547 H         1 UNK         0.3000 
    221 H221       -6.6900  -22.1780  -49.2904 H         1 UNK         0.0600 
    222 H222       -8.2129  -21.3018  -51.8202 H         1 UNK         0.0600 
    223 H223       -8.6498  -22.6648  -50.7918 H         1 UNK         0.0600 
    224 H224       -8.7329  -21.0267  -50.1609 H         1 UNK         0.0600 
    225 H225       -6.2947  -20.1753  -48.3679 H         1 UNK         0.3000 
    226 H226       -4.1813  -18.6266  -49.3322 H         1 UNK         0.0600 
    227 H227       -4.7422  -18.8061  -46.9491 H         1 UNK         0.0600 
    228 H228       -4.7291  -17.1169  -47.4203 H         1 UNK         0.0600 
    229 H229       -6.2641  -17.9490  -47.1976 H         1 UNK         0.0600 
    230 H230       -7.6515  -18.1138  -49.7346 H         1 UNK         0.3000 
    231 H231       -7.5142  -15.4588  -50.8352 H         1 UNK         0.0600 
    232 H232       -9.8888  -15.9274  -51.4520 H         1 UNK         0.0600 
    233 H233       -9.5710  -16.3755  -49.7842 H         1 UNK         0.0600 
    234 H234       -9.6803  -17.6222  -51.0280 H         1 UNK         0.0600 
    235 H235       -6.8447  -18.6138  -52.2007 H         1 UNK         0.3000 
    236 H236       -7.2903  -17.7411  -54.9902 H         1 UNK         0.0600 
    237 H237       -8.0038  -20.0336  -54.3174 H         1 UNK         0.0600 
    238 H238       -6.7563  -20.0681  -55.5535 H         1 UNK         0.0600 
    239 H239       -6.3434  -20.4372  -53.8881 H         1 UNK         0.0600 
    240 H240       -4.5994  -18.8677  -52.8319 H         1 UNK         0.3000 
    241 H241       -2.6168  -18.1724  -54.8487 H         1 UNK         0.0600 
    242 H242       -3.9867  -16.2907  -52.1373 H         1 UNK         0.3800 
    243 H243       -2.8729  -14.9752  -52.3824 H         1 UNK         0.3800 
    244 H244       -2.1264  -20.1245  -53.6282 H         1 UNK         0.0800 
    245 H245       -0.9164  -18.9544  -53.2307 H         1 UNK         0.0800 
    246 H246       -1.4065  -17.3410  -50.7628 H         1 UNK         0.0800 
    247 H247       -1.4126  -18.4342  -49.4058 H         1 UNK         0.0800 
@<TRIPOS>BOND
     1    1    2 1    
     2    1  127 1    
     3    1  128 1    
     4    1  129 1    
     5    2    3 2    
     6    2    4 am   BACKBONE|DICT|INTERRES
     7    4    5 1    
     8    4  130 1    
     9    5    6 1    
    10    5   65 1    
    11    5  131 1    
    12    6    7 1    
    13    6  132 1    
    14    6  133 1    
    15    7    8 1    
    16    8    9 1    
    17    8  134 1    
    18    8  135 1    
    19    9   10 ar   
    20    9   14 ar   
    21   10   11 ar   
    22   10  136 1    
    23   11   12 ar   
    24   11  126 1    
    25   12   13 ar   
    26   12  137 1    
    27   13   14 ar   
    28   13   15 1    
    29   14  138 1    
    30   15   16 1    
    31   15  139 1    
    32   15  140 1    
    33   16   17 1    
    34   17   18 1    
    35   17  141 1    
    36   17  142 1    
    37   18   19 1    
    38   18   67 1    
    39   18  143 1    
    40   19   20 am   BACKBONE|DICT|INTERRES
    41   19  144 1    
    42   20   21 2    
    43   20   22 1    
    44   22   23 1    
    45   22   24 1    
    46   22  145 1    
    47   23  146 1    
    48   23  147 1    
    49   23  148 1    
    50   24   25 am   BACKBONE|DICT|INTERRES
    51   24  149 1    
    52   25   26 2    
    53   25   27 1    
    54   27   28 1    
    55   27   29 1    
    56   27  150 1    
    57   28  151 1    
    58   28  152 1    
    59   28  153 1    
    60   29   30 am   BACKBONE|DICT|INTERRES
    61   29  154 1    
    62   30   31 2    
    63   30   32 1    
    64   32   33 1    
    65   32   34 1    
    66   32  155 1    
    67   33  156 1    
    68   33  157 1    
    69   33  158 1    
    70   34   35 am   BACKBONE|DICT|INTERRES
    71   34  159 1    
    72   35   36 2    
    73   35   37 1    
    74   37   38 1    
    75   37   39 1    
    76   37  160 1    
    77   38  161 1    
    78   38  162 1    
    79   38  163 1    
    80   39   40 am   BACKBONE|DICT|INTERRES
    81   39  164 1    
    82   40   41 2    
    83   40   42 1    
    84   42   43 1    
    85   42   44 1    
    86   42  165 1    
    87   43  166 1    
    88   43  167 1    
    89   43  168 1    
    90   44   45 am   BACKBONE|DICT|INTERRES
    91   44  169 1    
    92   45   46 2    
    93   45   47 1    
    94   47   48 1    
    95   47   49 1    
    96   47  170 1    
    97   48  171 1    
    98   48  172 1    
    99   48  173 1    
   100   49   50 am   BACKBONE|DICT|INTERRES
   101   49  174 1    
   102   50   51 2    
   103   50   52 1    
   104   52   53 1    
   105   52   54 1    
   106   52  175 1    
   107   53  176 1    
   108   53  177 1    
   109   53  178 1    
   110   54   55 am   BACKBONE|DICT|INTERRES
   111   54  179 1    
   112   55   56 2    
   113   55   57 1    
   114   57   58 1    
   115   57   59 1    
   116   57  180 1    
   117   58  181 1    
   118   58  182 1    
   119   58  183 1    
   120   59   60 am   BACKBONE|DICT|INTERRES
   121   59  184 1    
   122   60   61 2    
   123   60   62 1    
   124   62   63 1    
   125   62   64 1    
   126   62  185 1    
   127   63  186 1    
   128   63  187 1    
   129   63  188 1    
   130   64   65 am   BACKBONE|DICT|INTERRES
   131   64  189 1    
   132   65   66 2    
   133   67   68 2    
   134   67   69 am   BACKBONE|DICT|INTERRES
   135   69   70 1    
   136   69  190 1    
   137   70   71 1    
   138   70   72 1    
   139   70  191 1    
   140   71  192 1    
   141   71  193 1    
   142   71  194 1    
   143   72   73 2    
   144   72   74 am   BACKBONE|DICT|INTERRES
   145   74   75 1    
   146   74  195 1    
   147   75   76 1    
   148   75   77 1    
   149   75  196 1    
   150   76  197 1    
   151   76  198 1    
   152   76  199 1    
   153   77   78 2    
   154   77   79 am   BACKBONE|DICT|INTERRES
   155   79   80 1    
   156   79  200 1    
   157   80   81 1    
   158   80   82 1    
   159   80  201 1    
   160   81  202 1    
   161   81  203 1    
   162   81  204 1    
   163   82   83 2    
   164   82   84 am   BACKBONE|DICT|INTERRES
   165   84   85 1    
   166   84  205 1    
   167   85   86 1    
   168   85   87 1    
   169   85  206 1    
   170   86  207 1    
   171   86  208 1    
   172   86  209 1    
   173   87   88 2    
   174   87   89 am   BACKBONE|DICT|INTERRES
   175   89   90 1    
   176   89  210 1    
   177   90   91 1    
   178   90   92 1    
   179   90  211 1    
   180   91  212 1    
   181   91  213 1    
   182   91  214 1    
   183   92   93 2    
   184   92   94 am   BACKBONE|DICT|INTERRES
   185   94   95 1    
   186   94  215 1    
   187   95   96 1    
   188   95   97 1    
   189   95  216 1    
   190   96  217 1    
   191   96  218 1    
   192   96  219 1    
   193   97   98 2    
   194   97   99 am   BACKBONE|DICT|INTERRES
   195   99  100 1    
   196   99  220 1    
   197  100  101 1    
   198  100  102 1    
   199  100  221 1    
   200  101  222 1    
   201  101  223 1    
   202  101  224 1    
   203  102  103 2    
   204  102  104 am   BACKBONE|DICT|INTERRES
   205  104  105 1    
   206  104  225 1    
   207  105  106 1    
   208  105  107 1    
   209  105  226 1    
   210  106  227 1    
   211  106  228 1    
   212  106  229 1    
   213  107  108 2    
   214  107  109 am   BACKBONE|DICT|INTERRES
   215  109  110 1    
   216  109  230 1    
   217  110  111 1    
   218  110  112 1    
   219  110  231 1    
   220  111  232 1    
   221  111  233 1    
   222  111  234 1    
   223  112  113 2    
   224  112  114 am   BACKBONE|DICT|INTERRES
   225  114  115 1    
   226  114  235 1    
   227  115  116 1    
   228  115  117 1    
   229  115  236 1    
   230  116  237 1    
   231  116  238 1    
   232  116  239 1    
   233  117  118 2    
   234  117  119 am   BACKBONE|DICT|INTERRES
   235  119  120 1    
   236  119  240 1    
   237  120  121 1    
   238  120  124 1    
   239  120  241 1    
   240  121  122 am   BACKBONE|DICT|INTERRES
   241  121  123 2    
   242  122  242 1    
   243  122  243 1    
   244  124  125 1    
   245  124  244 1    
   246  124  245 1    
   247  125  126 1    
   248  126  246 1    
   249  126  247 1    
@<TRIPOS>SUBSTRUCTURE
     1 UNK         1 GROUP             0       ****    0 ROOT    
