@<TRIPOS>MOLECULE
3R540
247   249    1
SMALL
USER_CHARGES


@<TRIPOS>ATOM
      1 CA          3.1966   -9.5371  -48.2260 C.3       0 UNK        -0.1800 
      2 C           2.5926  -10.4642  -47.1825 C.2       0 UNK         0.5000 
      3 O           3.0889  -10.5258  -46.0589 O.2       0 UNK        -0.5000 
      4 N           1.5114  -11.1693  -47.5385 N.am      1 UNK        -0.5000 
      5 CA          0.8113  -12.1702  -46.7157 C.3       1 UNK         0.1400 
      6 C6         -0.2848  -12.8977  -47.5319 C.3       23 UNK        -0.0398 
      7 S7          0.4331  -13.8365  -48.9233 S.3       23 UNK        -0.2404 
      8 C8         -0.5636  -15.3569  -48.8969 C.3       23 UNK        -0.0205 
      9 C9          0.1136  -16.4618  -49.6905 C.ar      23 UNK        -0.0193 
     10 C10        -0.0545  -16.5517  -51.0765 C.ar      23 UNK        -0.1150 
     11 C11         0.5849  -17.5625  -51.8021 C.ar      23 UNK        -0.0193 
     12 C12         1.3829  -18.4928  -51.1303 C.ar      23 UNK        -0.1150 
     13 C13         1.5433  -18.4216  -49.7446 C.ar      23 UNK        -0.0193 
     14 C14         0.9172  -17.3966  -49.0326 C.ar      23 UNK        -0.1150 
     15 C15         2.3928  -19.4498  -49.0144 C.3       23 UNK        -0.0205 
     16 S16         1.6431  -21.1096  -49.0352 S.3       23 UNK        -0.2404 
     17 C17        -0.0308  -20.8244  -48.3587 C.3       23 UNK        -0.0398 
     18 CA         -0.4480  -21.9803  -47.4213 C.3       11 UNK         0.1400 
     19 N           0.1653  -21.8817  -46.0932 N.am      11 UNK        -0.5000 
     20 C           0.1854  -22.8773  -45.1972 C.2       10 UNK         0.5000 
     21 O          -0.3239  -23.9798  -45.3994 O.2       10 UNK        -0.5000 
     22 CA          0.8293  -22.5783  -43.8331 C.3       10 UNK         0.1400 
     23 CB          2.3597  -22.5068  -43.9439 C.3       10 UNK        -0.1800 
     24 N           0.3089  -21.3464  -43.2406 N.am      10 UNK        -0.5000 
     25 C          -0.9536  -21.1918  -42.8159 C.2       9 UNK         0.5000 
     26 O          -1.7911  -22.0942  -42.8240 O.2       9 UNK        -0.5000 
     27 CA         -1.3620  -19.7912  -42.3215 C.3       9 UNK         0.1400 
     28 CB         -0.9839  -19.6082  -40.8442 C.3       9 UNK        -0.1800 
     29 N          -0.7826  -18.7053  -43.1139 N.am      9 UNK        -0.5000 
     30 C          -1.0364  -18.4880  -44.4122 C.2       8 UNK         0.5000 
     31 O          -1.8107  -19.1692  -45.0807 O.2       8 UNK        -0.5000 
     32 CA         -0.2408  -17.3665  -45.1029 C.3       8 UNK         0.1400 
     33 CB         -0.8069  -15.9815  -44.7600 C.3       8 UNK        -0.1800 
     34 N           1.1851  -17.4133  -44.7814 N.am      8 UNK        -0.5000 
     35 C           1.9860  -18.4574  -45.0387 C.2       7 UNK         0.5000 
     36 O           1.6182  -19.4755  -45.6226 O.2       7 UNK        -0.5000 
     37 CA          3.4224  -18.3733  -44.5023 C.3       7 UNK         0.1400 
     38 CB          4.3071  -17.5312  -45.4336 C.3       7 UNK        -0.1800 
     39 N           3.4510  -17.8258  -43.1460 N.am      7 UNK        -0.5000 
     40 C           2.9997  -18.4791  -42.0649 C.2       6 UNK         0.5000 
     41 O           2.5639  -19.6300  -42.0946 O.2       6 UNK        -0.5000 
     42 CA          2.9957  -17.7002  -40.7366 C.3       6 UNK         0.1400 
     43 CB          4.3798  -17.7504  -40.0729 C.3       6 UNK        -0.1800 
     44 N           2.5878  -16.3048  -40.9065 N.am      6 UNK        -0.5000 
     45 C           1.3576  -15.9155  -41.2704 C.2       5 UNK         0.5000 
     46 O           0.4235  -16.6941  -41.4537 O.2       5 UNK        -0.5000 
     47 CA          1.1451  -14.4103  -41.5131 C.3       5 UNK         0.1400 
     48 CB          0.7002  -13.7076  -40.2226 C.3       5 UNK        -0.1800 
     49 N           2.3274  -13.7333  -42.0456 N.am      5 UNK        -0.5000 
     50 C           2.9065  -13.9952  -43.2238 C.2       4 UNK         0.5000 
     51 O           2.5369  -14.9009  -43.9741 O.2       4 UNK        -0.5000 
     52 CA          4.0920  -13.0881  -43.6128 C.3       4 UNK         0.1400 
     53 CB          4.6541  -13.4107  -45.0086 C.3       4 UNK        -0.1800 
     54 N           3.7206  -11.6740  -43.5714 N.am      4 UNK        -0.5000 
     55 C           3.6436  -10.9096  -42.4738 C.2       3 UNK         0.5000 
     56 O           3.8926  -11.3206  -41.3397 O.2       3 UNK        -0.5000 
     57 CA          3.1580   -9.4664  -42.6754 C.3       3 UNK         0.1400 
     58 CB          4.2579   -8.5993  -43.3084 C.3       3 UNK        -0.1800 
     59 N           1.9692   -9.4455  -43.5258 N.am      3 UNK        -0.5000 
     60 C           0.7084   -9.4923  -43.0733 C.2       2 UNK         0.5000 
     61 O           0.4085   -9.4791  -41.8789 O.2       2 UNK        -0.5000 
     62 CA         -0.4115   -9.5722  -44.1310 C.3       2 UNK         0.1400 
     63 CB         -0.8881   -8.1640  -44.5180 C.3       2 UNK        -0.1800 
     64 N          -0.0013  -10.2872  -45.3405 N.am      2 UNK        -0.5000 
     65 C           0.2259  -11.6071  -45.4006 C.2       1 UNK         0.5000 
     66 O           0.0099  -12.3733  -44.4620 O.2       1 UNK        -0.5000 
     67 C          -1.9792  -22.1602  -47.3593 C.2       11 UNK         0.5000 
     68 O          -2.5257  -22.8716  -48.2016 O.2       11 UNK        -0.5000 
     69 N          -2.6445  -21.6062  -46.3363 N.am      12 UNK        -0.5000 
     70 CA         -4.0658  -21.8343  -46.0544 C.3       12 UNK         0.1400 
     71 CB         -4.5344  -20.8821  -44.9439 C.3       12 UNK        -0.1800 
     72 C          -4.4119  -23.2959  -45.6966 C.2       12 UNK         0.5000 
     73 O          -5.5762  -23.6755  -45.8208 O.2       12 UNK        -0.5000 
     74 N          -3.4151  -24.0892  -45.2823 N.am      13 UNK        -0.5000 
     75 CA         -3.5410  -25.5284  -45.0688 C.3       13 UNK         0.1400 
     76 CB         -2.7822  -25.9218  -43.7912 C.3       13 UNK        -0.1800 
     77 C          -3.0167  -26.3165  -46.2823 C.2       13 UNK         0.5000 
     78 O          -3.6824  -27.2520  -46.7266 O.2       13 UNK        -0.5000 
     79 N          -1.8285  -25.9459  -46.7815 N.am      14 UNK        -0.5000 
     80 CA         -1.1063  -26.6742  -47.8260 C.3       14 UNK         0.1400 
     81 CB          0.3657  -26.2324  -47.8303 C.3       14 UNK        -0.1800 
     82 C          -1.7217  -26.5304  -49.2296 C.2       14 UNK         0.5000 
     83 O          -1.8567  -27.5328  -49.9328 O.2       14 UNK        -0.5000 
     84 N          -2.0686  -25.2970  -49.6163 N.am      15 UNK        -0.5000 
     85 CA         -2.6914  -24.9729  -50.9011 C.3       15 UNK         0.1400 
     86 CB         -2.0842  -23.6702  -51.4493 C.3       15 UNK        -0.1800 
     87 C          -4.2141  -24.8483  -50.7420 C.2       15 UNK         0.5000 
     88 O          -4.9582  -25.3564  -51.5833 O.2       15 UNK        -0.5000 
     89 N          -4.6381  -24.2033  -49.6444 N.am      16 UNK        -0.5000 
     90 CA         -6.0203  -24.0251  -49.1952 C.3       16 UNK         0.1400 
     91 CB         -6.5566  -25.3603  -48.6321 C.3       16 UNK        -0.1800 
     92 C          -6.9264  -23.3893  -50.2713 C.2       16 UNK         0.5000 
     93 O          -6.4718  -22.5136  -51.0089 O.2       16 UNK        -0.5000 
     94 N          -8.1883  -23.8308  -50.3431 N.am      17 UNK        -0.5000 
     95 CA         -9.1503  -23.4247  -51.3680 C.3       17 UNK         0.1400 
     96 CB        -10.5670  -23.7728  -50.8863 C.3       17 UNK        -0.1800 
     97 C          -8.8739  -24.0804  -52.7357 C.2       17 UNK         0.5000 
     98 O          -9.2573  -23.5201  -53.7627 O.2       17 UNK        -0.5000 
     99 N          -8.2297  -25.2569  -52.7246 N.am      18 UNK        -0.5000 
    100 CA        -7.9596  -26.0829  -53.9024 C.3       18 UNK         0.1400 
    101 CB        -7.4676  -27.4646  -53.4449 C.3       18 UNK        -0.1800 
    102 C         -6.9558  -25.4492  -54.8811 C.2       18 UNK         0.5000 
    103 O         -7.1312  -25.5774  -56.0936 O.2       18 UNK        -0.5000 
    104 N         -5.9363  -24.7738  -54.3398 N.am      19 UNK        -0.5000 
    105 CA        -4.8784  -24.1033  -55.0928 C.3       19 UNK         0.1400 
    106 CB        -3.5842  -24.9319  -54.9996 C.3       19 UNK        -0.1800 
    107 C         -4.7097  -22.6518  -54.6126 C.2       19 UNK         0.5000 
    108 O         -3.5867  -22.1519  -54.5433 O.2       19 UNK        -0.5000 
    109 N         -5.8350  -21.9866  -54.3112 N.am      20 UNK        -0.5000 
    110 CA        -5.9106  -20.6161  -53.7867 C.3       20 UNK         0.1400 
    111 CB        -7.3832  -20.2637  -53.5273 C.3       20 UNK        -0.1800 
    112 C         -5.2699  -19.5399  -54.6868 C.2       20 UNK         0.5000 
    113 O         -4.8383  -18.5035  -54.1814 O.2       20 UNK        -0.5000 
    114 N         -5.2162  -19.8055  -55.9985 N.am      21 UNK        -0.5000 
    115 CA        -4.5690  -18.9579  -57.0002 C.3       21 UNK         0.1400 
    116 CB        -5.1228  -19.3312  -58.3848 C.3       21 UNK        -0.1800 
    117 C         -3.0282  -19.0553  -56.9911 C.2       21 UNK         0.5000 
    118 O         -2.3791  -18.2243  -57.6275 O.2       21 UNK        -0.5000 
    119 N         -2.4726  -20.0644  -56.3029 N.am      22 UNK        -0.5000 
    120 CA        -1.0336  -20.3710  -56.2012 C.3       22 UNK         0.1400 
    121 C         -0.3753  -20.8560  -57.5313 C.2       22 UNK         0.5000 
    122 N         -1.1376  -21.2759  -58.5341 N.am      22 UNK        -0.7600 
    123 O          0.8467  -20.8867  -57.6522 O.2       22 UNK        -0.5000 
    124 C124       -0.2136  -19.2490  -55.5021 C.3       23 UNK        -0.0398 
    125 S125       -0.7654  -18.9256  -53.7937 S.3       23 UNK        -0.2404 
    126 C126        0.4389  -17.6498  -53.3125 C.3       23 UNK        -0.0205 
    127 H127        2.6482   -9.5737  -49.1675 H         1 UNK         0.0600 
    128 H128        4.2307   -9.8199  -48.4224 H         1 UNK         0.0600 
    129 H129        3.1860   -8.5090  -47.8642 H         1 UNK         0.0600 
    130 H130        1.1598  -11.0744  -48.4809 H         1 UNK         0.3000 
    131 H131        1.5540  -12.9127  -46.4160 H         1 UNK         0.0600 
    132 H132       -0.8472  -13.5807  -46.8937 H         1 UNK         0.0800 
    133 H133       -1.0112  -12.1853  -47.9269 H         1 UNK         0.0800 
    134 H134       -1.5537  -15.1503  -49.3061 H         1 UNK         0.0800 
    135 H135       -0.7159  -15.6850  -47.8682 H         1 UNK         0.0800 
    136 H136       -0.6715  -15.8274  -51.5897 H         1 UNK         0.1150 
    137 H137        1.8713  -19.2817  -51.6853 H         1 UNK         0.1150 
    138 H138        1.0583  -17.3264  -47.9642 H         1 UNK         0.1150 
    139 H139        3.3745  -19.5019  -49.4867 H         1 UNK         0.0800 
    140 H140        2.5712  -19.1466  -47.9839 H         1 UNK         0.0800 
    141 H141       -0.7053  -20.7390  -49.2132 H         1 UNK         0.0800 
    142 H142       -0.0783  -19.8698  -47.8326 H         1 UNK         0.0800 
    143 H143       -0.0793  -22.9063  -47.8662 H         1 UNK         0.0600 
    144 H144        0.6230  -21.0004  -45.8664 H         1 UNK         0.3000 
    145 H145        0.5817  -23.4040  -43.1626 H         1 UNK         0.0600 
    146 H146        2.8181  -22.3601  -42.9658 H         1 UNK         0.0600 
    147 H147        2.7633  -23.4318  -44.3573 H         1 UNK         0.0600 
    148 H148        2.6845  -21.6912  -44.5895 H         1 UNK         0.0600 
    149 H149        0.9536  -20.5687  -43.1604 H         1 UNK         0.3000 
    150 H150       -2.4481  -19.7167  -42.4043 H         1 UNK         0.0600 
    151 H151       -1.4125  -20.4003  -40.2289 H         1 UNK         0.0600 
    152 H152       -1.3555  -18.6592  -40.4574 H         1 UNK         0.0600 
    153 H153        0.0969  -19.6274  -40.7005 H         1 UNK         0.0600 
    154 H154       -0.1667  -18.0642  -42.6203 H         1 UNK         0.3000 
    155 H155       -0.3404  -17.5138  -46.1787 H         1 UNK         0.0600 
    156 H156       -0.8310  -15.8086  -43.6849 H         1 UNK         0.0600 
    157 H157       -0.2097  -15.1885  -45.2098 H         1 UNK         0.0600 
    158 H158       -1.8272  -15.8763  -45.1302 H         1 UNK         0.0600 
    159 H159        1.5837  -16.5944  -44.3316 H         1 UNK         0.3000 
    160 H160        3.8317  -19.3853  -44.4713 H         1 UNK         0.0600 
    161 H161        4.3667  -17.9849  -46.4236 H         1 UNK         0.0600 
    162 H162        3.9163  -16.5224  -45.5636 H         1 UNK         0.0600 
    163 H163        5.3245  -17.4526  -45.0503 H         1 UNK         0.0600 
    164 H164        3.7329  -16.8613  -43.0512 H         1 UNK         0.3000 
    165 H165        2.2795  -18.1846  -40.0694 H         1 UNK         0.0600 
    166 H166        4.3661  -17.2670  -39.0959 H         1 UNK         0.0600 
    167 H167        4.7010  -18.7816  -39.9195 H         1 UNK         0.0600 
    168 H168        5.1387  -17.2572  -40.6816 H         1 UNK         0.0600 
    169 H169        3.2960  -15.5982  -40.7734 H         1 UNK         0.3000 
    170 H170        0.3474  -14.3029  -42.2503 H         1 UNK         0.0600 
    171 H171       -0.1967  -14.1742  -39.8131 H         1 UNK         0.0600 
    172 H172        1.4735  -13.7484  -39.4545 H         1 UNK         0.0600 
    173 H173        0.4651  -12.6590  -40.4075 H         1 UNK         0.0600 
    174 H174        2.7018  -12.9635  -41.5016 H         1 UNK         0.3000 
    175 H175        4.8876  -13.2649  -42.8863 H         1 UNK         0.0600 
    176 H176        3.8962  -13.3022  -45.7849 H         1 UNK         0.0600 
    177 H177        5.4851  -12.7517  -45.2605 H         1 UNK         0.0600 
    178 H178        5.0290  -14.4333  -45.0523 H         1 UNK         0.0600 
    179 H179        3.4801  -11.2553  -44.4682 H         1 UNK         0.3000 
    180 H180        2.9237   -9.0466  -41.6948 H         1 UNK         0.0600 
    181 H181        4.5432   -8.9590  -44.2976 H         1 UNK         0.0600 
    182 H182        5.1556   -8.5957  -42.6889 H         1 UNK         0.0600 
    183 H183        3.9303   -7.5648  -43.4118 H         1 UNK         0.0600 
    184 H184        2.1331   -9.5283  -44.5221 H         1 UNK         0.3000 
    185 H185       -1.2527  -10.1067  -43.6844 H         1 UNK         0.0600 
    186 H186       -1.7267   -8.2083  -45.2131 H         1 UNK         0.0600 
    187 H187       -1.2242   -7.6109  -43.6398 H         1 UNK         0.0600 
    188 H188       -0.0924   -7.5836  -44.9867 H         1 UNK         0.0600 
    189 H189        0.1951   -9.7288  -46.1583 H         1 UNK         0.3000 
    190 H190       -2.1574  -20.9664  -45.7150 H         1 UNK         0.3000 
    191 H191       -4.6227  -21.5887  -46.9608 H         1 UNK         0.0600 
    192 H192       -3.9775  -21.0369  -44.0203 H         1 UNK         0.0600 
    193 H193       -5.5911  -21.0314  -44.7185 H         1 UNK         0.0600 
    194 H194       -4.4137  -19.8404  -45.2405 H         1 UNK         0.0600 
    195 H195       -2.4849  -23.6994  -45.1961 H         1 UNK         0.3000 
    196 H196       -4.5890  -25.7993  -44.9243 H         1 UNK         0.0600 
    197 H197       -2.8715  -26.9916  -43.5987 H         1 UNK         0.0600 
    198 H198       -3.1825  -25.3997  -42.9219 H         1 UNK         0.0600 
    199 H199       -1.7193  -25.6880  -43.8577 H         1 UNK         0.0600 
    200 H200       -1.3212  -25.1904  -46.3261 H         1 UNK         0.3000 
    201 H201       -1.1293  -27.7350  -47.5669 H         1 UNK         0.0600 
    202 H202        0.8305  -26.4008  -46.8587 H         1 UNK         0.0600 
    203 H203        0.4709  -25.1750  -48.0711 H         1 UNK         0.0600 
    204 H204        0.9399  -26.7949  -48.5675 H         1 UNK         0.0600 
    205 H205       -1.9897  -24.5305  -48.9561 H         1 UNK         0.3000 
    206 H206       -2.4928  -25.7642  -51.6269 H         1 UNK         0.0600 
    207 H207       -1.0053  -23.7613  -51.5747 H         1 UNK         0.0600 
    208 H208       -2.5035  -23.4231  -52.4236 H         1 UNK         0.0600 
    209 H209       -2.2731  -22.8192  -50.7955 H         1 UNK         0.0600 
    210 H210       -3.9307  -23.7620  -49.0635 H         1 UNK         0.3000 
    211 H211       -5.9849  -23.3028  -48.3809 H         1 UNK         0.0600 
    212 H212       -6.6859  -26.1098  -49.4139 H         1 UNK         0.0600 
    213 H213       -7.5134  -25.2273  -48.1263 H         1 UNK         0.0600 
    214 H214       -5.8687  -25.7721  -47.8933 H         1 UNK         0.0600 
    215 H215       -8.4936  -24.5364  -49.6886 H         1 UNK         0.3000 
    216 H216       -9.0953  -22.3423  -51.4927 H         1 UNK         0.0600 
    217 H217      -11.3152  -23.4585  -51.6153 H         1 UNK         0.0600 
    218 H218      -10.7992  -23.2698  -49.9474 H         1 UNK         0.0600 
    219 H219      -10.6892  -24.8458  -50.7326 H         1 UNK         0.0600 
    220 H220       -7.9144  -25.6217  -51.8382 H         1 UNK         0.3000 
    221 H221       -8.9014  -26.2184  -54.4384 H         1 UNK         0.0600 
    222 H222       -6.5421  -27.3926  -52.8717 H         1 UNK         0.0600 
    223 H223       -8.2109  -27.9622  -52.8217 H         1 UNK         0.0600 
    224 H224       -7.2745  -28.1136  -54.3000 H         1 UNK         0.0600 
    225 H225       -5.8449  -24.7549  -53.3279 H         1 UNK         0.3000 
    226 H226       -5.1498  -24.0307  -56.1477 H         1 UNK         0.0600 
    227 H227       -3.7264  -25.9257  -55.4242 H         1 UNK         0.0600 
    228 H228       -2.7687  -24.4603  -55.5494 H         1 UNK         0.0600 
    229 H229       -3.2611  -25.0573  -53.9671 H         1 UNK         0.0600 
    230 H230       -6.7121  -22.4812  -54.3932 H         1 UNK         0.3000 
    231 H231       -5.3784  -20.6014  -52.8335 H         1 UNK         0.0600 
    232 H232       -7.4811  -19.2552  -53.1233 H         1 UNK         0.0600 
    233 H233       -7.8277  -20.9430  -52.8031 H         1 UNK         0.0600 
    234 H234       -7.9764  -20.3126  -54.4412 H         1 UNK         0.0600 
    235 H235       -5.6079  -20.6765  -56.3244 H         1 UNK         0.3000 
    236 H236       -4.8306  -17.9171  -56.7979 H         1 UNK         0.0600 
    237 H237       -6.2043  -19.2002  -58.4253 H         1 UNK         0.0600 
    238 H238       -4.6923  -18.6994  -59.1629 H         1 UNK         0.0600 
    239 H239       -4.8995  -20.3672  -58.6423 H         1 UNK         0.0600 
    240 H240       -3.0742  -20.6914  -55.7785 H         1 UNK         0.3000 
    241 H241       -0.9816  -21.2466  -55.5531 H         1 UNK         0.0600 
    242 H242       -0.7044  -21.5976  -59.3856 H         1 UNK         0.3800 
    243 H243       -2.1410  -21.2718  -58.4515 H         1 UNK         0.3800 
    244 H244        0.8396  -19.5293  -55.4484 H         1 UNK         0.0800 
    245 H245       -0.2515  -18.3215  -56.0743 H         1 UNK         0.0800 
    246 H246        1.4133  -17.8745  -53.7491 H         1 UNK         0.0800 
    247 H247        0.1305  -16.6891  -53.7277 H         1 UNK         0.0800 
@<TRIPOS>BOND
     1    1    2 1    
     2    1  127 1    
     3    1  128 1    
     4    1  129 1    
     5    2    3 2    
     6    2    4 am   BACKBONE|DICT|INTERRES
     7    4    5 1    
     8    4  130 1    
     9    5    6 1    
    10    5   65 1    
    11    5  131 1    
    12    6    7 1    
    13    6  132 1    
    14    6  133 1    
    15    7    8 1    
    16    8    9 1    
    17    8  134 1    
    18    8  135 1    
    19    9   10 ar   
    20    9   14 ar   
    21   10   11 ar   
    22   10  136 1    
    23   11   12 ar   
    24   11  126 1    
    25   12   13 ar   
    26   12  137 1    
    27   13   14 ar   
    28   13   15 1    
    29   14  138 1    
    30   15   16 1    
    31   15  139 1    
    32   15  140 1    
    33   16   17 1    
    34   17   18 1    
    35   17  141 1    
    36   17  142 1    
    37   18   19 1    
    38   18   67 1    
    39   18  143 1    
    40   19   20 am   BACKBONE|DICT|INTERRES
    41   19  144 1    
    42   20   21 2    
    43   20   22 1    
    44   22   23 1    
    45   22   24 1    
    46   22  145 1    
    47   23  146 1    
    48   23  147 1    
    49   23  148 1    
    50   24   25 am   BACKBONE|DICT|INTERRES
    51   24  149 1    
    52   25   26 2    
    53   25   27 1    
    54   27   28 1    
    55   27   29 1    
    56   27  150 1    
    57   28  151 1    
    58   28  152 1    
    59   28  153 1    
    60   29   30 am   BACKBONE|DICT|INTERRES
    61   29  154 1    
    62   30   31 2    
    63   30   32 1    
    64   32   33 1    
    65   32   34 1    
    66   32  155 1    
    67   33  156 1    
    68   33  157 1    
    69   33  158 1    
    70   34   35 am   BACKBONE|DICT|INTERRES
    71   34  159 1    
    72   35   36 2    
    73   35   37 1    
    74   37   38 1    
    75   37   39 1    
    76   37  160 1    
    77   38  161 1    
    78   38  162 1    
    79   38  163 1    
    80   39   40 am   BACKBONE|DICT|INTERRES
    81   39  164 1    
    82   40   41 2    
    83   40   42 1    
    84   42   43 1    
    85   42   44 1    
    86   42  165 1    
    87   43  166 1    
    88   43  167 1    
    89   43  168 1    
    90   44   45 am   BACKBONE|DICT|INTERRES
    91   44  169 1    
    92   45   46 2    
    93   45   47 1    
    94   47   48 1    
    95   47   49 1    
    96   47  170 1    
    97   48  171 1    
    98   48  172 1    
    99   48  173 1    
   100   49   50 am   BACKBONE|DICT|INTERRES
   101   49  174 1    
   102   50   51 2    
   103   50   52 1    
   104   52   53 1    
   105   52   54 1    
   106   52  175 1    
   107   53  176 1    
   108   53  177 1    
   109   53  178 1    
   110   54   55 am   BACKBONE|DICT|INTERRES
   111   54  179 1    
   112   55   56 2    
   113   55   57 1    
   114   57   58 1    
   115   57   59 1    
   116   57  180 1    
   117   58  181 1    
   118   58  182 1    
   119   58  183 1    
   120   59   60 am   BACKBONE|DICT|INTERRES
   121   59  184 1    
   122   60   61 2    
   123   60   62 1    
   124   62   63 1    
   125   62   64 1    
   126   62  185 1    
   127   63  186 1    
   128   63  187 1    
   129   63  188 1    
   130   64   65 am   BACKBONE|DICT|INTERRES
   131   64  189 1    
   132   65   66 2    
   133   67   68 2    
   134   67   69 am   BACKBONE|DICT|INTERRES
   135   69   70 1    
   136   69  190 1    
   137   70   71 1    
   138   70   72 1    
   139   70  191 1    
   140   71  192 1    
   141   71  193 1    
   142   71  194 1    
   143   72   73 2    
   144   72   74 am   BACKBONE|DICT|INTERRES
   145   74   75 1    
   146   74  195 1    
   147   75   76 1    
   148   75   77 1    
   149   75  196 1    
   150   76  197 1    
   151   76  198 1    
   152   76  199 1    
   153   77   78 2    
   154   77   79 am   BACKBONE|DICT|INTERRES
   155   79   80 1    
   156   79  200 1    
   157   80   81 1    
   158   80   82 1    
   159   80  201 1    
   160   81  202 1    
   161   81  203 1    
   162   81  204 1    
   163   82   83 2    
   164   82   84 am   BACKBONE|DICT|INTERRES
   165   84   85 1    
   166   84  205 1    
   167   85   86 1    
   168   85   87 1    
   169   85  206 1    
   170   86  207 1    
   171   86  208 1    
   172   86  209 1    
   173   87   88 2    
   174   87   89 am   BACKBONE|DICT|INTERRES
   175   89   90 1    
   176   89  210 1    
   177   90   91 1    
   178   90   92 1    
   179   90  211 1    
   180   91  212 1    
   181   91  213 1    
   182   91  214 1    
   183   92   93 2    
   184   92   94 am   BACKBONE|DICT|INTERRES
   185   94   95 1    
   186   94  215 1    
   187   95   96 1    
   188   95   97 1    
   189   95  216 1    
   190   96  217 1    
   191   96  218 1    
   192   96  219 1    
   193   97   98 2    
   194   97   99 am   BACKBONE|DICT|INTERRES
   195   99  100 1    
   196   99  220 1    
   197  100  101 1    
   198  100  102 1    
   199  100  221 1    
   200  101  222 1    
   201  101  223 1    
   202  101  224 1    
   203  102  103 2    
   204  102  104 am   BACKBONE|DICT|INTERRES
   205  104  105 1    
   206  104  225 1    
   207  105  106 1    
   208  105  107 1    
   209  105  226 1    
   210  106  227 1    
   211  106  228 1    
   212  106  229 1    
   213  107  108 2    
   214  107  109 am   BACKBONE|DICT|INTERRES
   215  109  110 1    
   216  109  230 1    
   217  110  111 1    
   218  110  112 1    
   219  110  231 1    
   220  111  232 1    
   221  111  233 1    
   222  111  234 1    
   223  112  113 2    
   224  112  114 am   BACKBONE|DICT|INTERRES
   225  114  115 1    
   226  114  235 1    
   227  115  116 1    
   228  115  117 1    
   229  115  236 1    
   230  116  237 1    
   231  116  238 1    
   232  116  239 1    
   233  117  118 2    
   234  117  119 am   BACKBONE|DICT|INTERRES
   235  119  120 1    
   236  119  240 1    
   237  120  121 1    
   238  120  124 1    
   239  120  241 1    
   240  121  122 am   BACKBONE|DICT|INTERRES
   241  121  123 2    
   242  122  242 1    
   243  122  243 1    
   244  124  125 1    
   245  124  244 1    
   246  124  245 1    
   247  125  126 1    
   248  126  246 1    
   249  126  247 1    
@<TRIPOS>SUBSTRUCTURE
     1 UNK         1 GROUP             0       ****    0 ROOT    
