@<TRIPOS>MOLECULE
3R540
247   249    1
SMALL
USER_CHARGES


@<TRIPOS>ATOM
      1 CA          1.3986  -12.3596  -48.9813 C.3       0 UNK        -0.1800 
      2 C           0.6286  -12.9917  -47.8317 C.2       0 UNK         0.5000 
      3 O           1.0271  -12.8515  -46.6764 O.2       0 UNK        -0.5000 
      4 N          -0.4876  -13.6670  -48.1376 N.am      1 UNK        -0.5000 
      5 CA         -1.3265  -14.4220  -47.1907 C.3       1 UNK         0.1400 
      6 C6         -2.3969  -15.2842  -47.9059 C.3       23 UNK        -0.0398 
      7 S7         -1.7303  -16.2971  -49.2677 S.3       23 UNK        -0.2404 
      8 C8         -1.2363  -17.8031  -48.3815 C.3       23 UNK        -0.0205 
      9 C9         -0.6156  -18.8049  -49.3391 C.ar      23 UNK        -0.0193 
     10 C10        -1.4282  -19.6960  -50.0446 C.ar      23 UNK        -0.1150 
     11 C11        -0.8675  -20.6126  -50.9388 C.ar      23 UNK        -0.0193 
     12 C12         0.5182  -20.6398  -51.1178 C.ar      23 UNK        -0.1150 
     13 C13         1.3422  -19.7578  -50.4116 C.ar      23 UNK        -0.0193 
     14 C14         0.7689  -18.8394  -49.5266 C.ar      23 UNK        -0.1150 
     15 C15         2.8519  -19.7995  -50.6061 C.3       23 UNK        -0.0205 
     16 S16         3.7328  -20.3638  -49.1144 S.3       23 UNK        -0.2404 
     17 C17         2.9260  -21.9704  -48.8017 C.3       23 UNK        -0.0398 
     18 CA          3.7481  -22.8868  -47.8613 C.3       11 UNK         0.1400 
     19 N           3.9971  -22.2403  -46.5689 N.am      11 UNK        -0.5000 
     20 C           5.1318  -22.3211  -45.8640 C.2       10 UNK         0.5000 
     21 O           6.1324  -22.9300  -46.2440 O.2       10 UNK        -0.5000 
     22 CA          5.1460  -21.6230  -44.4875 C.3       10 UNK         0.1400 
     23 CB          5.7177  -20.2032  -44.6182 C.3       10 UNK        -0.1800 
     24 N           3.8288  -21.5502  -43.8477 N.am      10 UNK        -0.5000 
     25 C           3.0854  -22.6074  -43.4906 C.2       9 UNK         0.5000 
     26 O           3.4561  -23.7745  -43.6118 O.2       9 UNK        -0.5000 
     27 CA          1.6604  -22.3234  -42.9830 C.3       9 UNK         0.1400 
     28 CB          1.6639  -22.0944  -41.4656 C.3       9 UNK        -0.1800 
     29 N           1.0178  -21.1894  -43.6508 N.am      9 UNK        -0.5000 
     30 C           0.7679  -21.1072  -44.9659 C.2       8 UNK         0.5000 
     31 O           1.0865  -21.9760  -45.7774 O.2       8 UNK        -0.5000 
     32 CA          0.0822  -19.8250  -45.4606 C.3       8 UNK         0.1400 
     33 CB         -1.4210  -19.8543  -45.1556 C.3       8 UNK        -0.1800 
     34 N           0.6804  -18.6395  -44.8528 N.am      8 UNK        -0.5000 
     35 C           1.8276  -18.0842  -45.2654 C.2       7 UNK         0.5000 
     36 O           2.4505  -18.4582  -46.2576 O.2       7 UNK        -0.5000 
     37 CA          2.3885  -16.9313  -44.4131 C.3       7 UNK         0.1400 
     38 CB          1.8513  -15.5819  -44.9086 C.3       7 UNK        -0.1800 
     39 N           2.0926  -17.0758  -42.9869 N.am      7 UNK        -0.5000 
     40 C           2.6078  -18.0346  -42.2026 C.2       6 UNK         0.5000 
     41 O           3.3948  -18.8928  -42.6008 O.2       6 UNK        -0.5000 
     42 CA          2.1290  -18.0734  -40.7383 C.3       6 UNK         0.1400 
     43 CB          2.9852  -17.1391  -39.8707 C.3       6 UNK        -0.1800 
     44 N           0.7196  -17.7173  -40.5742 N.am      6 UNK        -0.5000 
     45 C          -0.3188  -18.3173  -41.1746 C.2       5 UNK         0.5000 
     46 O          -0.2085  -19.2982  -41.9089 O.2       5 UNK        -0.5000 
     47 CA         -1.7086  -17.6850  -40.9625 C.3       5 UNK         0.1400 
     48 CB         -2.4939  -18.4609  -39.8952 C.3       5 UNK        -0.1800 
     49 N          -1.6563  -16.2666  -40.5900 N.am      5 UNK        -0.5000 
     50 C          -1.1589  -15.2915  -41.3645 C.2       4 UNK         0.5000 
     51 O          -0.7279  -15.4946  -42.5016 O.2       4 UNK        -0.5000 
     52 CA         -1.1341  -13.8808  -40.7372 C.3       4 UNK         0.1400 
     53 CB         -0.3482  -13.8585  -39.4078 C.3       4 UNK        -0.1800 
     54 N          -0.6383  -12.8403  -41.6437 N.am      4 UNK        -0.5000 
     55 C           0.5839  -12.7033  -42.1778 C.2       3 UNK         0.5000 
     56 O           1.5347  -13.4474  -41.9279 O.2       3 UNK        -0.5000 
     57 CA          0.7578  -11.5186  -43.1557 C.3       3 UNK         0.1400 
     58 CB          2.1600  -11.4642  -43.7882 C.3       3 UNK        -0.1800 
     59 N          -0.2467  -11.5260  -44.2243 N.am      3 UNK        -0.5000 
     60 C          -1.5155  -11.1048  -44.1018 C.2       2 UNK         0.5000 
     61 O          -1.9743  -10.6516  -43.0522 O.2       2 UNK        -0.5000 
     62 CA         -2.4406  -11.2226  -45.3305 C.3       2 UNK         0.1400 
     63 CB         -2.5664   -9.8653  -46.0389 C.3       2 UNK        -0.1800 
     64 N          -1.9930  -12.2207  -46.2997 N.am      2 UNK        -0.5000 
     65 C          -1.9941  -13.5467  -46.1039 C.2       1 UNK         0.5000 
     66 O          -2.4920  -14.0840  -45.1152 O.2       1 UNK        -0.5000 
     67 C           3.0232  -24.2408  -47.6832 C.2       11 UNK         0.5000 
     68 O           2.8061  -24.9360  -48.6764 O.2       11 UNK        -0.5000 
     69 N           2.6294  -24.5732  -46.4420 N.am      12 UNK        -0.5000 
     70 CA          1.7492  -25.6770  -46.0406 C.3       12 UNK         0.1400 
     71 CB          2.4268  -27.0408  -46.2871 C.3       12 UNK        -0.1800 
     72 C           0.3386  -25.5757  -46.6659 C.2       12 UNK         0.5000 
     73 O          -0.2897  -26.5983  -46.9473 O.2       12 UNK        -0.5000 
     74 N          -0.1268  -24.3404  -46.8893 N.am      13 UNK        -0.5000 
     75 CA         -1.4023  -24.0280  -47.5227 C.3       13 UNK         0.1400 
     76 CB         -1.2806  -22.6659  -48.2168 C.3       13 UNK        -0.1800 
     77 C          -2.5530  -24.0023  -46.5065 C.2       13 UNK         0.5000 
     78 O          -2.3480  -23.6645  -45.3372 O.2       13 UNK        -0.5000 
     79 N          -3.7620  -24.3074  -46.9919 N.am      14 UNK        -0.5000 
     80 CA         -5.0183  -24.2424  -46.2465 C.3       14 UNK         0.1400 
     81 CB         -6.0316  -25.1961  -46.9053 C.3       14 UNK        -0.1800 
     82 C          -5.5322  -22.7903  -46.1677 C.2       14 UNK         0.5000 
     83 O          -6.5440  -22.4554  -46.7870 O.2       14 UNK        -0.5000 
     84 N          -4.7965  -21.9552  -45.4217 N.am      15 UNK        -0.5000 
     85 CA         -4.9953  -20.5137  -45.2456 C.3       15 UNK         0.1400 
     86 CB         -6.3272  -20.2251  -44.5161 C.3       15 UNK        -0.1800 
     87 C          -4.8216  -19.7352  -46.5700 C.2       15 UNK         0.5000 
     88 O          -4.0458  -20.1555  -47.4326 O.2       15 UNK        -0.5000 
     89 N          -5.5161  -18.5984  -46.7037 N.am      16 UNK        -0.5000 
     90 CA         -5.4983  -17.7196  -47.8733 C.3       16 UNK         0.1400 
     91 CB         -5.9570  -16.3151  -47.4399 C.3       16 UNK        -0.1800 
     92 C          -6.3410  -18.2916  -49.0323 C.2       16 UNK         0.5000 
     93 O          -7.3736  -17.7230  -49.3938 O.2       16 UNK        -0.5000 
     94 N          -5.8922  -19.4279  -49.5763 N.am      17 UNK        -0.5000 
     95 CA         -6.4589  -20.0901  -50.7503 C.3       17 UNK         0.1400 
     96 CB         -5.8333  -21.4884  -50.8696 C.3       17 UNK        -0.1800 
     97 C          -6.2601  -19.2712  -52.0444 C.2       17 UNK         0.5000 
     98 O          -5.4080  -18.3799  -52.0962 O.2       17 UNK        -0.5000 
     99 N          -7.0690  -19.5835  -53.0648 N.am      18 UNK        -0.5000 
    100 CA        -7.0590  -18.9218  -54.3697 C.3       18 UNK         0.1400 
    101 CB        -8.2767  -19.3972  -55.1774 C.3       18 UNK        -0.1800 
    102 C         -5.7668  -19.1951  -55.1588 C.2       18 UNK         0.5000 
    103 O         -5.2705  -20.3236  -55.1513 O.2       18 UNK        -0.5000 
    104 N         -5.2877  -18.1787  -55.8889 N.am      19 UNK        -0.5000 
    105 CA        -4.0730  -18.2281  -56.7114 C.3       19 UNK         0.1400 
    106 CB        -3.8230  -16.8433  -57.3265 C.3       19 UNK        -0.1800 
    107 C         -4.0992  -19.3088  -57.8104 C.2       19 UNK         0.5000 
    108 O         -3.0480  -19.8469  -58.1573 O.2       19 UNK        -0.5000 
    109 N         -5.3019  -19.6412  -58.2997 N.am      20 UNK        -0.5000 
    110 CA        -5.5529  -20.7294  -59.2453 C.3       20 UNK         0.1400 
    111 CB        -7.0128  -20.6510  -59.7174 C.3       20 UNK        -0.1800 
    112 C         -5.2469  -22.1279  -58.6701 C.2       20 UNK         0.5000 
    113 O         -4.9023  -23.0279  -59.4371 O.2       20 UNK        -0.5000 
    114 N         -5.3673  -22.2861  -57.3442 N.am      21 UNK        -0.5000 
    115 CA        -4.9966  -23.5024  -56.6245 C.3       21 UNK         0.1400 
    116 CB        -5.9056  -23.6733  -55.3959 C.3       21 UNK        -0.1800 
    117 C         -3.5164  -23.4667  -56.2092 C.2       21 UNK         0.5000 
    118 O         -2.8343  -24.4861  -56.3230 O.2       21 UNK        -0.5000 
    119 N         -3.0494  -22.3038  -55.7336 N.am      22 UNK        -0.5000 
    120 CA        -1.6696  -22.0968  -55.2601 C.3       22 UNK         0.1400 
    121 C         -0.5951  -22.1035  -56.3833 C.2       22 UNK         0.5000 
    122 N         -0.9014  -21.6543  -57.5936 N.am      22 UNK        -0.7600 
    123 O          0.5336  -22.5283  -56.1526 O.2       22 UNK        -0.5000 
    124 C124       -1.5246  -20.8258  -54.3858 C.3       23 UNK        -0.0398 
    125 S125       -2.7094  -20.7886  -53.0016 S.3       23 UNK        -0.2404 
    126 C126       -1.7611  -21.5953  -51.6787 C.3       23 UNK        -0.0205 
    127 H127        1.4594  -11.2802  -48.8431 H         1 UNK         0.0600 
    128 H128        0.9237  -12.5546  -49.9431 H         1 UNK         0.0600 
    129 H129        2.4126  -12.7579  -49.0152 H         1 UNK         0.0600 
    130 H130       -0.7609  -13.7496  -49.1069 H         1 UNK         0.3000 
    131 H131       -0.6589  -15.1051  -46.6629 H         1 UNK         0.0600 
    132 H132       -2.8934  -15.9415  -47.1902 H         1 UNK         0.0800 
    133 H133       -3.1780  -14.6481  -48.3266 H         1 UNK         0.0800 
    134 H134       -0.5281  -17.5466  -47.5921 H         1 UNK         0.0800 
    135 H135       -2.1041  -18.2467  -47.8929 H         1 UNK         0.0800 
    136 H136       -2.4996  -19.6746  -49.9006 H         1 UNK         0.1150 
    137 H137        0.9558  -21.3539  -51.8010 H         1 UNK         0.1150 
    138 H138        1.4041  -18.1575  -48.9781 H         1 UNK         0.1150 
    139 H139        3.1180  -20.4483  -51.4420 H         1 UNK         0.0800 
    140 H140        3.2058  -18.8018  -50.8687 H         1 UNK         0.0800 
    141 H141        1.9360  -21.7777  -48.3836 H         1 UNK         0.0800 
    142 H142        2.7639  -22.4606  -49.7634 H         1 UNK         0.0800 
    143 H143        4.6997  -23.1007  -48.3523 H         1 UNK         0.0600 
    144 H144        3.2136  -21.7308  -46.1794 H         1 UNK         0.3000 
    145 H145        5.8027  -22.1998  -43.8333 H         1 UNK         0.0600 
    146 H146        5.8389  -19.7356  -43.6409 H         1 UNK         0.0600 
    147 H147        5.0679  -19.5637  -45.2176 H         1 UNK         0.0600 
    148 H148        6.6986  -20.2164  -45.0950 H         1 UNK         0.0600 
    149 H149        3.4734  -20.6194  -43.6521 H         1 UNK         0.3000 
    150 H150        1.0536  -23.2068  -43.1923 H         1 UNK         0.0600 
    151 H151        2.0576  -22.9659  -40.9412 H         1 UNK         0.0600 
    152 H152        0.6571  -21.9139  -41.0883 H         1 UNK         0.0600 
    153 H153        2.2846  -21.2417  -41.1934 H         1 UNK         0.0600 
    154 H154        0.6835  -20.4426  -43.0461 H         1 UNK         0.3000 
    155 H155        0.2073  -19.7755  -46.5444 H         1 UNK         0.0600 
    156 H156       -1.8943  -20.7123  -45.6335 H         1 UNK         0.0600 
    157 H157       -1.9163  -18.9578  -45.5274 H         1 UNK         0.0600 
    158 H158       -1.6205  -19.9270  -44.0865 H         1 UNK         0.0600 
    159 H159        0.2604  -18.3029  -43.9976 H         1 UNK         0.3000 
    160 H160        3.4738  -16.9306  -44.5347 H         1 UNK         0.0600 
    161 H161        0.7741  -15.4981  -44.7638 H         1 UNK         0.0600 
    162 H162        2.0534  -15.4436  -45.9715 H         1 UNK         0.0600 
    163 H163        2.3222  -14.7550  -44.3782 H         1 UNK         0.0600 
    164 H164        1.4267  -16.4210  -42.5948 H         1 UNK         0.3000 
    165 H165        2.2567  -19.0917  -40.3698 H         1 UNK         0.0600 
    166 H166        2.7164  -17.2209  -38.8174 H         1 UNK         0.0600 
    167 H167        4.0437  -17.3889  -39.9551 H         1 UNK         0.0600 
    168 H168        2.8689  -16.0956  -40.1676 H         1 UNK         0.0600 
    169 H169        0.5254  -16.9157  -39.9937 H         1 UNK         0.3000 
    170 H170       -2.2475  -17.7634  -41.9091 H         1 UNK         0.0600 
    171 H171       -2.5712  -19.5169  -40.1581 H         1 UNK         0.0600 
    172 H172       -2.0131  -18.4002  -38.9180 H         1 UNK         0.0600 
    173 H173       -3.5096  -18.0777  -39.7956 H         1 UNK         0.0600 
    174 H174       -2.0066  -16.0328  -39.6722 H         1 UNK         0.3000 
    175 H175       -2.1705  -13.6169  -40.5220 H         1 UNK         0.0600 
    176 H176        0.6719  -14.2240  -39.5308 H         1 UNK         0.0600 
    177 H177       -0.2929  -12.8487  -39.0010 H         1 UNK         0.0600 
    178 H178       -0.8267  -14.4795  -38.6503 H         1 UNK         0.0600 
    179 H179       -1.3337  -12.1681  -41.9516 H         1 UNK         0.3000 
    180 H180        0.6339  -10.6060  -42.5690 H         1 UNK         0.0600 
    181 H181        2.9329  -11.3877  -43.0226 H         1 UNK         0.0600 
    182 H182        2.2645  -10.5981  -44.4418 H         1 UNK         0.0600 
    183 H183        2.3703  -12.3552  -44.3795 H         1 UNK         0.0600 
    184 H184        0.0509  -11.9349  -45.1044 H         1 UNK         0.3000 
    185 H185       -3.4293  -11.5153  -44.9710 H         1 UNK         0.0600 
    186 H186       -2.9276   -9.0981  -45.3526 H         1 UNK         0.0600 
    187 H187       -1.6075   -9.5272  -46.4340 H         1 UNK         0.0600 
    188 H188       -3.2730   -9.9162  -46.8676 H         1 UNK         0.0600 
    189 H189       -1.5628  -11.8710  -47.1433 H         1 UNK         0.3000 
    190 H190        2.8901  -23.9472  -45.6906 H         1 UNK         0.3000 
    191 H191        1.6071  -25.5715  -44.9643 H         1 UNK         0.0600 
    192 H192        1.8412  -27.8519  -45.8531 H         1 UNK         0.0600 
    193 H193        3.4161  -27.0766  -45.8309 H         1 UNK         0.0600 
    194 H194        2.5391  -27.2528  -47.3506 H         1 UNK         0.0600 
    195 H195        0.4115  -23.5452  -46.5546 H         1 UNK         0.3000 
    196 H196       -1.6202  -24.7818  -48.2825 H         1 UNK         0.0600 
    197 H197       -1.0006  -21.8759  -47.5216 H         1 UNK         0.0600 
    198 H198       -0.5278  -22.6970  -49.0040 H         1 UNK         0.0600 
    199 H199       -2.2266  -22.3708  -48.6710 H         1 UNK         0.0600 
    200 H200       -3.8470  -24.5326  -47.9724 H         1 UNK         0.3000 
    201 H201       -4.8496  -24.5910  -45.2252 H         1 UNK         0.0600 
    202 H202       -6.9821  -25.1853  -46.3704 H         1 UNK         0.0600 
    203 H203       -5.6677  -26.2237  -46.8973 H         1 UNK         0.0600 
    204 H204       -6.2336  -24.9202  -47.9411 H         1 UNK         0.0600 
    205 H205       -3.9389  -22.3317  -45.0323 H         1 UNK         0.3000 
    206 H206       -4.1914  -20.1793  -44.5900 H         1 UNK         0.0600 
    207 H207       -6.4283  -20.8478  -43.6271 H         1 UNK         0.0600 
    208 H208       -6.3817  -19.1886  -44.1818 H         1 UNK         0.0600 
    209 H209       -7.1920  -20.4151  -45.1529 H         1 UNK         0.0600 
    210 H210       -6.1546  -18.3390  -45.9661 H         1 UNK         0.3000 
    211 H211       -4.4722  -17.6347  -48.2353 H         1 UNK         0.0600 
    212 H212       -6.9824  -16.3217  -47.0683 H         1 UNK         0.0600 
    213 H213       -5.9140  -15.6162  -48.2762 H         1 UNK         0.0600 
    214 H214       -5.3198  -15.9155  -46.6508 H         1 UNK         0.0600 
    215 H215       -5.0605  -19.8435  -49.1717 H         1 UNK         0.3000 
    216 H216       -7.5324  -20.2048  -50.5865 H         1 UNK         0.0600 
    217 H217       -6.0686  -22.0995  -49.9976 H         1 UNK         0.0600 
    218 H218       -4.7493  -21.4315  -50.9513 H         1 UNK         0.0600 
    219 H219       -6.2024  -22.0180  -51.7487 H         1 UNK         0.0600 
    220 H220       -7.7169  -20.3498  -52.9591 H         1 UNK         0.3000 
    221 H221       -7.1499  -17.8465  -54.2024 H         1 UNK         0.0600 
    222 H222       -9.2082  -19.1741  -54.6566 H         1 UNK         0.0600 
    223 H223       -8.3225  -18.9008  -56.1476 H         1 UNK         0.0600 
    224 H224       -8.2432  -20.4723  -55.3608 H         1 UNK         0.0600 
    225 H225       -5.7661  -17.2899  -55.8574 H         1 UNK         0.3000 
    226 H226       -3.2392  -18.4606  -56.0471 H         1 UNK         0.0600 
    227 H227       -3.7039  -16.0835  -56.5540 H         1 UNK         0.0600 
    228 H228       -2.9111  -16.8406  -57.9254 H         1 UNK         0.0600 
    229 H229       -4.6437  -16.5375  -57.9766 H         1 UNK         0.0600 
    230 H230       -6.1096  -19.1434  -57.9562 H         1 UNK         0.3000 
    231 H231       -4.9033  -20.5797  -60.1102 H         1 UNK         0.0600 
    232 H232       -7.2306  -21.4339  -60.4451 H         1 UNK         0.0600 
    233 H233       -7.2217  -19.6953  -60.1985 H         1 UNK         0.0600 
    234 H234       -7.7108  -20.7704  -58.8877 H         1 UNK         0.0600 
    235 H235       -5.5977  -21.4835  -56.7694 H         1 UNK         0.3000 
    236 H236       -5.1464  -24.3703  -57.2703 H         1 UNK         0.0600 
    237 H237       -5.7813  -22.8625  -54.6777 H         1 UNK         0.0600 
    238 H238       -6.9561  -23.7064  -55.6848 H         1 UNK         0.0600 
    239 H239       -5.6814  -24.6051  -54.8755 H         1 UNK         0.0600 
    240 H240       -3.6930  -21.5301  -55.6086 H         1 UNK         0.3000 
    241 H241       -1.4330  -22.9467  -54.6168 H         1 UNK         0.0600 
    242 H242       -1.7963  -21.2080  -57.7776 H         1 UNK         0.3800 
    243 H243       -0.2004  -21.6693  -58.3167 H         1 UNK         0.3800 
    244 H244       -1.6869  -19.9325  -54.9895 H         1 UNK         0.0800 
    245 H245       -0.5117  -20.7412  -53.9883 H         1 UNK         0.0800 
    246 H246       -1.1810  -22.4236  -52.0879 H         1 UNK         0.0800 
    247 H247       -2.4622  -22.0413  -50.9744 H         1 UNK         0.0800 
@<TRIPOS>BOND
     1    1    2 1    
     2    1  127 1    
     3    1  128 1    
     4    1  129 1    
     5    2    3 2    
     6    2    4 am   BACKBONE|DICT|INTERRES
     7    4    5 1    
     8    4  130 1    
     9    5    6 1    
    10    5   65 1    
    11    5  131 1    
    12    6    7 1    
    13    6  132 1    
    14    6  133 1    
    15    7    8 1    
    16    8    9 1    
    17    8  134 1    
    18    8  135 1    
    19    9   10 ar   
    20    9   14 ar   
    21   10   11 ar   
    22   10  136 1    
    23   11   12 ar   
    24   11  126 1    
    25   12   13 ar   
    26   12  137 1    
    27   13   14 ar   
    28   13   15 1    
    29   14  138 1    
    30   15   16 1    
    31   15  139 1    
    32   15  140 1    
    33   16   17 1    
    34   17   18 1    
    35   17  141 1    
    36   17  142 1    
    37   18   19 1    
    38   18   67 1    
    39   18  143 1    
    40   19   20 am   BACKBONE|DICT|INTERRES
    41   19  144 1    
    42   20   21 2    
    43   20   22 1    
    44   22   23 1    
    45   22   24 1    
    46   22  145 1    
    47   23  146 1    
    48   23  147 1    
    49   23  148 1    
    50   24   25 am   BACKBONE|DICT|INTERRES
    51   24  149 1    
    52   25   26 2    
    53   25   27 1    
    54   27   28 1    
    55   27   29 1    
    56   27  150 1    
    57   28  151 1    
    58   28  152 1    
    59   28  153 1    
    60   29   30 am   BACKBONE|DICT|INTERRES
    61   29  154 1    
    62   30   31 2    
    63   30   32 1    
    64   32   33 1    
    65   32   34 1    
    66   32  155 1    
    67   33  156 1    
    68   33  157 1    
    69   33  158 1    
    70   34   35 am   BACKBONE|DICT|INTERRES
    71   34  159 1    
    72   35   36 2    
    73   35   37 1    
    74   37   38 1    
    75   37   39 1    
    76   37  160 1    
    77   38  161 1    
    78   38  162 1    
    79   38  163 1    
    80   39   40 am   BACKBONE|DICT|INTERRES
    81   39  164 1    
    82   40   41 2    
    83   40   42 1    
    84   42   43 1    
    85   42   44 1    
    86   42  165 1    
    87   43  166 1    
    88   43  167 1    
    89   43  168 1    
    90   44   45 am   BACKBONE|DICT|INTERRES
    91   44  169 1    
    92   45   46 2    
    93   45   47 1    
    94   47   48 1    
    95   47   49 1    
    96   47  170 1    
    97   48  171 1    
    98   48  172 1    
    99   48  173 1    
   100   49   50 am   BACKBONE|DICT|INTERRES
   101   49  174 1    
   102   50   51 2    
   103   50   52 1    
   104   52   53 1    
   105   52   54 1    
   106   52  175 1    
   107   53  176 1    
   108   53  177 1    
   109   53  178 1    
   110   54   55 am   BACKBONE|DICT|INTERRES
   111   54  179 1    
   112   55   56 2    
   113   55   57 1    
   114   57   58 1    
   115   57   59 1    
   116   57  180 1    
   117   58  181 1    
   118   58  182 1    
   119   58  183 1    
   120   59   60 am   BACKBONE|DICT|INTERRES
   121   59  184 1    
   122   60   61 2    
   123   60   62 1    
   124   62   63 1    
   125   62   64 1    
   126   62  185 1    
   127   63  186 1    
   128   63  187 1    
   129   63  188 1    
   130   64   65 am   BACKBONE|DICT|INTERRES
   131   64  189 1    
   132   65   66 2    
   133   67   68 2    
   134   67   69 am   BACKBONE|DICT|INTERRES
   135   69   70 1    
   136   69  190 1    
   137   70   71 1    
   138   70   72 1    
   139   70  191 1    
   140   71  192 1    
   141   71  193 1    
   142   71  194 1    
   143   72   73 2    
   144   72   74 am   BACKBONE|DICT|INTERRES
   145   74   75 1    
   146   74  195 1    
   147   75   76 1    
   148   75   77 1    
   149   75  196 1    
   150   76  197 1    
   151   76  198 1    
   152   76  199 1    
   153   77   78 2    
   154   77   79 am   BACKBONE|DICT|INTERRES
   155   79   80 1    
   156   79  200 1    
   157   80   81 1    
   158   80   82 1    
   159   80  201 1    
   160   81  202 1    
   161   81  203 1    
   162   81  204 1    
   163   82   83 2    
   164   82   84 am   BACKBONE|DICT|INTERRES
   165   84   85 1    
   166   84  205 1    
   167   85   86 1    
   168   85   87 1    
   169   85  206 1    
   170   86  207 1    
   171   86  208 1    
   172   86  209 1    
   173   87   88 2    
   174   87   89 am   BACKBONE|DICT|INTERRES
   175   89   90 1    
   176   89  210 1    
   177   90   91 1    
   178   90   92 1    
   179   90  211 1    
   180   91  212 1    
   181   91  213 1    
   182   91  214 1    
   183   92   93 2    
   184   92   94 am   BACKBONE|DICT|INTERRES
   185   94   95 1    
   186   94  215 1    
   187   95   96 1    
   188   95   97 1    
   189   95  216 1    
   190   96  217 1    
   191   96  218 1    
   192   96  219 1    
   193   97   98 2    
   194   97   99 am   BACKBONE|DICT|INTERRES
   195   99  100 1    
   196   99  220 1    
   197  100  101 1    
   198  100  102 1    
   199  100  221 1    
   200  101  222 1    
   201  101  223 1    
   202  101  224 1    
   203  102  103 2    
   204  102  104 am   BACKBONE|DICT|INTERRES
   205  104  105 1    
   206  104  225 1    
   207  105  106 1    
   208  105  107 1    
   209  105  226 1    
   210  106  227 1    
   211  106  228 1    
   212  106  229 1    
   213  107  108 2    
   214  107  109 am   BACKBONE|DICT|INTERRES
   215  109  110 1    
   216  109  230 1    
   217  110  111 1    
   218  110  112 1    
   219  110  231 1    
   220  111  232 1    
   221  111  233 1    
   222  111  234 1    
   223  112  113 2    
   224  112  114 am   BACKBONE|DICT|INTERRES
   225  114  115 1    
   226  114  235 1    
   227  115  116 1    
   228  115  117 1    
   229  115  236 1    
   230  116  237 1    
   231  116  238 1    
   232  116  239 1    
   233  117  118 2    
   234  117  119 am   BACKBONE|DICT|INTERRES
   235  119  120 1    
   236  119  240 1    
   237  120  121 1    
   238  120  124 1    
   239  120  241 1    
   240  121  122 am   BACKBONE|DICT|INTERRES
   241  121  123 2    
   242  122  242 1    
   243  122  243 1    
   244  124  125 1    
   245  124  244 1    
   246  124  245 1    
   247  125  126 1    
   248  126  246 1    
   249  126  247 1    
@<TRIPOS>SUBSTRUCTURE
     1 UNK         1 GROUP             0       ****    0 ROOT    
