@<TRIPOS>MOLECULE
3R540
247   249    1
SMALL
USER_CHARGES


@<TRIPOS>ATOM
      1 CA          5.9943  -11.0610  -49.7593 C.3       0 UNK        -0.1800 
      2 C           4.7883  -11.1445  -48.8350 C.2       0 UNK         0.5000 
      3 O           4.3505  -10.1248  -48.3005 O.2       0 UNK        -0.5000 
      4 N           4.2385  -12.3507  -48.6510 N.am      1 UNK        -0.5000 
      5 CA          3.0734  -12.6572  -47.8116 C.3       1 UNK         0.1400 
      6 C6          3.1092  -14.1230  -47.2975 C.3       23 UNK        -0.0398 
      7 S7          3.2792  -15.3868  -48.6109 S.3       23 UNK        -0.2404 
      8 C8          1.7381  -16.3204  -48.3775 C.3       23 UNK        -0.0205 
      9 C9          1.4168  -17.1880  -49.5809 C.ar      23 UNK        -0.0193 
     10 C10         0.7630  -16.6285  -50.6819 C.ar      23 UNK        -0.1150 
     11 C11         0.4272  -17.4103  -51.7904 C.ar      23 UNK        -0.0193 
     12 C12         0.7530  -18.7731  -51.7773 C.ar      23 UNK        -0.1150 
     13 C13         1.4057  -19.3476  -50.6829 C.ar      23 UNK        -0.0193 
     14 C14         1.7412  -18.5473  -49.5867 C.ar      23 UNK        -0.1150 
     15 C15         1.7480  -20.8316  -50.6969 C.3       23 UNK        -0.0205 
     16 S16         0.3212  -21.8685  -50.2370 S.3       23 UNK        -0.2404 
     17 C17         0.1932  -21.5462  -48.4468 C.3       23 UNK        -0.0398 
     18 CA          0.0556  -22.8415  -47.6101 C.3       11 UNK         0.1400 
     19 N           0.5274  -22.6523  -46.2347 N.am      11 UNK        -0.5000 
     20 C           0.6382  -23.6271  -45.3205 C.2       10 UNK         0.5000 
     21 O           0.4036  -24.8122  -45.5509 O.2       10 UNK        -0.5000 
     22 CA          1.0205  -23.2014  -43.8929 C.3       10 UNK         0.1400 
     23 CB          2.5348  -22.9726  -43.7781 C.3       10 UNK        -0.1800 
     24 N           0.3013  -22.0039  -43.4578 N.am      10 UNK        -0.5000 
     25 C          -1.0290  -21.9285  -43.3065 C.2       9 UNK         0.5000 
     26 O          -1.7882  -22.8850  -43.4592 O.2       9 UNK        -0.5000 
     27 CA         -1.6152  -20.5406  -42.9863 C.3       9 UNK         0.1400 
     28 CB         -1.4652  -20.2094  -41.4946 C.3       9 UNK        -0.1800 
     29 N          -1.0101  -19.4778  -43.7902 N.am      9 UNK        -0.5000 
     30 C          -1.0870  -19.3988  -45.1268 C.2       8 UNK         0.5000 
     31 O          -1.7147  -20.1909  -45.8277 O.2       8 UNK        -0.5000 
     32 CA         -0.2767  -18.2794  -45.7971 C.3       8 UNK         0.1400 
     33 CB         -1.0435  -16.9480  -45.7656 C.3       8 UNK        -0.1800 
     34 N           1.0327  -18.1187  -45.1647 N.am      8 UNK        -0.5000 
     35 C           2.0384  -18.9967  -45.2911 C.2       7 UNK         0.5000 
     36 O           1.9690  -20.0206  -45.9697 O.2       7 UNK        -0.5000 
     37 CA          3.3248  -18.6931  -44.5022 C.3       7 UNK         0.1400 
     38 CB          4.1846  -17.6688  -45.2593 C.3       7 UNK        -0.1800 
     39 N           3.0562  -18.1976  -43.1512 N.am      7 UNK        -0.5000 
     40 C           2.4431  -18.9010  -42.1878 C.2       6 UNK         0.5000 
     41 O           2.0881  -20.0709  -42.3185 O.2       6 UNK        -0.5000 
     42 CA          2.1201  -18.1569  -40.8771 C.3       6 UNK         0.1400 
     43 CB          3.2742  -18.3080  -39.8753 C.3       6 UNK        -0.1800 
     44 N           1.8234  -16.7331  -41.0646 N.am      6 UNK        -0.5000 
     45 C           0.8460  -16.2471  -41.8409 C.2       5 UNK         0.5000 
     46 O           0.0717  -16.9558  -42.4931 O.2       5 UNK        -0.5000 
     47 CA          0.7610  -14.7185  -41.9484 C.3       5 UNK         0.1400 
     48 CB          2.0130  -14.1474  -42.6470 C.3       5 UNK        -0.1800 
     49 N          -0.4283  -14.3732  -42.7170 N.am      5 UNK        -0.5000 
     50 C          -1.0050  -13.1710  -42.7695 C.2       4 UNK         0.5000 
     51 O          -0.6544  -12.2062  -42.0850 O.2       4 UNK        -0.5000 
     52 CA         -2.1728  -13.0224  -43.7642 C.3       4 UNK         0.1400 
     53 CB         -3.5228  -13.0938  -43.0345 C.3       4 UNK        -0.1800 
     54 N          -2.0945  -11.7673  -44.5153 N.am      4 UNK        -0.5000 
     55 C          -1.0864  -11.4308  -45.3309 C.2       3 UNK         0.5000 
     56 O          -0.1279  -12.1690  -45.5772 O.2       3 UNK        -0.5000 
     57 CA         -1.1493  -10.0225  -45.9487 C.3       3 UNK         0.1400 
     58 CB         -0.6647   -8.9702  -44.9383 C.3       3 UNK        -0.1800 
     59 N          -0.2899   -9.9651  -47.1278 N.am      3 UNK        -0.5000 
     60 C          -0.6870  -10.1968  -48.3848 C.2       2 UNK         0.5000 
     61 O          -1.8652  -10.3096  -48.7261 O.2       2 UNK        -0.5000 
     62 CA          0.4320  -10.3540  -49.4333 C.3       2 UNK         0.1400 
     63 CB          0.7976   -8.9947  -50.0486 C.3       2 UNK        -0.1800 
     64 N           1.6383  -10.9672  -48.8714 N.am      2 UNK        -0.5000 
     65 C           1.7422  -12.2484  -48.4918 C.2       1 UNK         0.5000 
     66 O           0.8451  -13.0724  -48.6706 O.2       1 UNK        -0.5000 
     67 C          -1.3852  -23.3948  -47.6477 C.2       11 UNK         0.5000 
     68 O          -1.6451  -24.3709  -48.3523 O.2       11 UNK        -0.5000 
     69 N          -2.2752  -22.7979  -46.8408 N.am      12 UNK        -0.5000 
     70 CA         -3.6720  -23.2030  -46.6958 C.3       12 UNK         0.1400 
     71 CB         -4.4315  -22.1723  -45.8476 C.3       12 UNK        -0.1800 
     72 C          -3.8321  -24.6175  -46.1143 C.2       12 UNK         0.5000 
     73 O          -4.6994  -25.3620  -46.5682 O.2       12 UNK        -0.5000 
     74 N          -2.9837  -24.9761  -45.1431 N.am      13 UNK        -0.5000 
     75 CA         -2.9295  -26.3147  -44.5595 C.3       13 UNK         0.1400 
     76 CB         -2.0756  -26.2812  -43.2826 C.3       13 UNK        -0.1800 
     77 C          -2.3966  -27.3699  -45.5473 C.2       13 UNK         0.5000 
     78 O          -2.9418  -28.4726  -45.6085 O.2       13 UNK        -0.5000 
     79 N          -1.3394  -27.0193  -46.2910 N.am      14 UNK        -0.5000 
     80 CA         -0.6421  -27.9197  -47.2060 C.3       14 UNK         0.1400 
     81 CB          0.7665  -27.3708  -47.4829 C.3       14 UNK        -0.1800 
     82 C          -1.3845  -28.1613  -48.5311 C.2       14 UNK         0.5000 
     83 O          -1.4191  -29.3026  -48.9942 O.2       14 UNK        -0.5000 
     84 N          -1.9175  -27.0936  -49.1393 N.am      15 UNK        -0.5000 
     85 CA         -2.3611  -27.0877  -50.5366 C.3       15 UNK         0.1400 
     86 CB         -1.2813  -26.3859  -51.3808 C.3       15 UNK        -0.1800 
     87 C          -3.7580  -26.4715  -50.7415 C.2       15 UNK         0.5000 
     88 O          -4.1327  -26.2173  -51.8870 O.2       15 UNK        -0.5000 
     89 N          -4.5124  -26.2792  -49.6496 N.am      16 UNK        -0.5000 
     90 CA         -5.8489  -25.6732  -49.5705 C.3       16 UNK         0.1400 
     91 CB         -6.8541  -26.3534  -50.5249 C.3       16 UNK        -0.1800 
     92 C          -5.8318  -24.1432  -49.7589 C.2       16 UNK         0.5000 
     93 O          -4.8425  -23.5622  -50.2123 O.2       16 UNK        -0.5000 
     94 N          -6.9492  -23.5020  -49.3908 N.am      17 UNK        -0.5000 
     95 CA         -7.1281  -22.0463  -49.4032 C.3       17 UNK         0.1400 
     96 CB         -8.4953  -21.7008  -48.7958 C.3       17 UNK        -0.1800 
     97 C          -6.9760  -21.4001  -50.7937 C.2       17 UNK         0.5000 
     98 O          -6.5598  -20.2462  -50.8783 O.2       17 UNK        -0.5000 
     99 N          -7.2724  -22.1603  -51.8572 N.am      18 UNK        -0.5000 
    100 CA        -7.0842  -21.7521  -53.2504 C.3       18 UNK         0.1400 
    101 CB        -7.7043  -22.8100  -54.1750 C.3       18 UNK        -0.1800 
    102 C         -5.6065  -21.5136  -53.6165 C.2       18 UNK         0.5000 
    103 O         -5.3169  -20.6022  -54.3945 O.2       18 UNK        -0.5000 
    104 N         -4.6994  -22.3089  -53.0292 N.am      19 UNK        -0.5000 
    105 CA        -3.2556  -22.1463  -53.1840 C.3       19 UNK         0.1400 
    106 CB        -2.5268  -23.4317  -52.7778 C.3       19 UNK        -0.1800 
    107 C         -2.7391  -20.9513  -52.3735 C.2       19 UNK         0.5000 
    108 O         -1.9457  -20.1777  -52.9009 O.2       19 UNK        -0.5000 
    109 N         -3.2422  -20.7822  -51.1416 N.am      20 UNK        -0.5000 
    110 CA        -2.9172  -19.6531  -50.2619 C.3       20 UNK         0.1400 
    111 CB        -3.5073  -19.9104  -48.8701 C.3       20 UNK        -0.1800 
    112 C         -3.3968  -18.2936  -50.8074 C.2       20 UNK         0.5000 
    113 O         -2.7806  -17.2689  -50.5187 O.2       20 UNK        -0.5000 
    114 N         -4.4757  -18.3116  -51.5991 N.am      21 UNK        -0.5000 
    115 CA        -4.9805  -17.1714  -52.3610 C.3       21 UNK         0.1400 
    116 CB        -6.4788  -17.3888  -52.6261 C.3       21 UNK        -0.1800 
    117 C         -4.2285  -16.9549  -53.6911 C.2       21 UNK         0.5000 
    118 O         -4.4090  -15.9049  -54.3093 O.2       21 UNK        -0.5000 
    119 N         -3.4192  -17.9373  -54.1162 N.am      22 UNK        -0.5000 
    120 CA        -2.7155  -17.9979  -55.4086 C.3       22 UNK         0.1400 
    121 C         -3.6867  -17.9907  -56.6288 C.2       22 UNK         0.5000 
    122 N         -4.8029  -18.7070  -56.5540 N.am      22 UNK        -0.7600 
    123 O         -3.4360  -17.3551  -57.6497 O.2       22 UNK        -0.5000 
    124 C124       -1.5396  -16.9793  -55.5064 C.3       23 UNK        -0.0398 
    125 S125       -0.0729  -17.5402  -54.5727 S.3       23 UNK        -0.2404 
    126 C126       -0.3430  -16.7647  -52.9438 C.3       23 UNK        -0.0205 
    127 H127        6.8538  -10.6639  -49.2192 H         1 UNK         0.0600 
    128 H128        5.7795  -10.3970  -50.5966 H         1 UNK         0.0600 
    129 H129        6.2659  -12.0378  -50.1602 H         1 UNK         0.0600 
    130 H130        4.6198  -13.1466  -49.1438 H         1 UNK         0.3000 
    131 H131        3.1394  -12.0297  -46.9200 H         1 UNK         0.0600 
    132 H132        3.9621  -14.2415  -46.6280 H         1 UNK         0.0800 
    133 H133        2.2333  -14.3299  -46.6796 H         1 UNK         0.0800 
    134 H134        0.9067  -15.6376  -48.2004 H         1 UNK         0.0800 
    135 H135        1.8328  -16.9311  -47.4817 H         1 UNK         0.0800 
    136 H136        0.5017  -15.5792  -50.6651 H         1 UNK         0.1150 
    137 H137        0.4843  -19.4032  -52.6122 H         1 UNK         0.1150 
    138 H138        2.2459  -18.9814  -48.7349 H         1 UNK         0.1150 
    139 H139        2.5891  -21.0419  -50.0344 H         1 UNK         0.0800 
    140 H140        2.0753  -21.1153  -51.6982 H         1 UNK         0.0800 
    141 H141       -0.6252  -20.8496  -48.2605 H         1 UNK         0.0800 
    142 H142        1.0979  -21.0223  -48.1445 H         1 UNK         0.0800 
    143 H143        0.7062  -23.6011  -48.0491 H         1 UNK         0.0600 
    144 H144        0.7812  -21.7069  -45.9693 H         1 UNK         0.3000 
    145 H145        0.7486  -24.0167  -43.2193 H         1 UNK         0.0600 
    146 H146        2.8232  -22.7610  -42.7484 H         1 UNK         0.0600 
    147 H147        3.0890  -23.8566  -44.0959 H         1 UNK         0.0600 
    148 H148        2.8650  -22.1368  -44.3956 H         1 UNK         0.0600 
    149 H149        0.8683  -21.1865  -43.2482 H         1 UNK         0.3000 
    150 H150       -2.6809  -20.5667  -43.2226 H         1 UNK         0.0600 
    151 H151       -1.9822  -20.9470  -40.8797 H         1 UNK         0.0600 
    152 H152       -1.8907  -19.2332  -41.2610 H         1 UNK         0.0600 
    153 H153       -0.4204  -20.2025  -41.1861 H         1 UNK         0.0600 
    154 H154       -0.4930  -18.7606  -43.2930 H         1 UNK         0.3000 
    155 H155       -0.1218  -18.5554  -46.8428 H         1 UNK         0.0600 
    156 H156       -1.3115  -16.6562  -44.7507 H         1 UNK         0.0600 
    157 H157       -0.4590  -16.1390  -46.2033 H         1 UNK         0.0600 
    158 H158       -1.9697  -17.0248  -46.3365 H         1 UNK         0.0600 
    159 H159        1.1341  -17.3495  -44.5186 H         1 UNK         0.3000 
    160 H160        3.8907  -19.6231  -44.4163 H         1 UNK         0.0600 
    161 H161        4.4019  -18.0127  -46.2717 H         1 UNK         0.0600 
    162 H162        3.6845  -16.7031  -45.3433 H         1 UNK         0.0600 
    163 H163        5.1401  -17.5096  -44.7593 H         1 UNK         0.0600 
    164 H164        3.3214  -17.2446  -42.9527 H         1 UNK         0.3000 
    165 H165        1.2323  -18.6223  -40.4455 H         1 UNK         0.0600 
    166 H166        3.0208  -17.8665  -38.9113 H         1 UNK         0.0600 
    167 H167        3.5026  -19.3600  -39.6988 H         1 UNK         0.0600 
    168 H168        4.1859  -17.8299  -40.2356 H         1 UNK         0.0600 
    169 H169        2.4173  -16.0855  -40.5667 H         1 UNK         0.3000 
    170 H170        0.6735  -14.3079  -40.9405 H         1 UNK         0.0600 
    171 H171        2.9226  -14.3798  -42.0924 H         1 UNK         0.0600 
    172 H172        2.1281  -14.5497  -43.6545 H         1 UNK         0.0600 
    173 H173        1.9623  -13.0617  -42.7298 H         1 UNK         0.0600 
    174 H174       -0.8113  -15.1504  -43.2397 H         1 UNK         0.3000 
    175 H175       -2.1274  -13.8416  -44.4854 H         1 UNK         0.0600 
    176 H176       -3.6360  -12.2797  -42.3174 H         1 UNK         0.0600 
    177 H177       -4.3552  -13.0423  -43.7366 H         1 UNK         0.0600 
    178 H178       -3.6199  -14.0311  -42.4850 H         1 UNK         0.0600 
    179 H179       -2.8240  -11.0932  -44.3352 H         1 UNK         0.3000 
    180 H180       -2.1829   -9.8006  -46.2227 H         1 UNK         0.0600 
    181 H181        0.3581   -9.1647  -44.6128 H         1 UNK         0.0600 
    182 H182       -1.2952   -8.9605  -44.0483 H         1 UNK         0.0600 
    183 H183       -0.6951   -7.9687  -45.3679 H         1 UNK         0.0600 
    184 H184        0.7027   -9.9518  -46.9464 H         1 UNK         0.3000 
    185 H185        0.0561  -11.0005  -50.2291 H         1 UNK         0.0600 
    186 H186        1.5425   -9.1067  -50.8367 H         1 UNK         0.0600 
    187 H187       -0.0777   -8.5199  -50.4938 H         1 UNK         0.0600 
    188 H188        1.1999   -8.3092  -49.3016 H         1 UNK         0.0600 
    189 H189        2.4410  -10.3644  -48.7170 H         1 UNK         0.3000 
    190 H190       -1.9872  -21.9761  -46.3147 H         1 UNK         0.3000 
    191 H191       -4.1105  -23.2026  -47.6925 H         1 UNK         0.0600 
    192 H192       -4.0280  -22.1065  -44.8372 H         1 UNK         0.0600 
    193 H193       -5.4862  -22.4377  -45.7646 H         1 UNK         0.0600 
    194 H194       -4.3815  -21.1782  -46.2912 H         1 UNK         0.0600 
    195 H195       -2.3401  -24.2838  -44.7721 H         1 UNK         0.3000 
    196 H196       -3.9444  -26.6037  -44.2781 H         1 UNK         0.0600 
    197 H197       -2.0347  -27.2650  -42.8136 H         1 UNK         0.0600 
    198 H198       -2.4899  -25.5879  -42.5505 H         1 UNK         0.0600 
    199 H199       -1.0506  -25.9727  -43.4903 H         1 UNK         0.0600 
    200 H200       -0.9182  -26.1058  -46.1465 H         1 UNK         0.3000 
    201 H201       -0.5278  -28.8867  -46.7112 H         1 UNK         0.0600 
    202 H202        1.3454  -27.2901  -46.5627 H         1 UNK         0.0600 
    203 H203        0.7293  -26.3819  -47.9422 H         1 UNK         0.0600 
    204 H204        1.3183  -28.0267  -48.1574 H         1 UNK         0.0600 
    205 H205       -1.8368  -26.1763  -48.7017 H         1 UNK         0.3000 
    206 H206       -2.4527  -28.1099  -50.9084 H         1 UNK         0.0600 
    207 H207       -0.3304  -26.9149  -51.3175 H         1 UNK         0.0600 
    208 H208       -1.5569  -26.3477  -52.4352 H         1 UNK         0.0600 
    209 H209       -1.1135  -25.3633  -51.0414 H         1 UNK         0.0600 
    210 H210       -4.0926  -26.4957  -48.7559 H         1 UNK         0.3000 
    211 H211       -6.1987  -25.8648  -48.5565 H         1 UNK         0.0600 
    212 H212       -6.6811  -26.0833  -51.5669 H         1 UNK         0.0600 
    213 H213       -7.8776  -26.0633  -50.2863 H         1 UNK         0.0600 
    214 H214       -6.8022  -27.4393  -50.4455 H         1 UNK         0.0600 
    215 H215       -7.7228  -24.0411  -49.0292 H         1 UNK         0.3000 
    216 H216       -6.3548  -21.6186  -48.7620 H         1 UNK         0.0600 
    217 H217       -8.6485  -20.6210  -48.7675 H         1 UNK         0.0600 
    218 H218       -8.5759  -22.0651  -47.7715 H         1 UNK         0.0600 
    219 H219       -9.3131  -22.1335  -49.3733 H         1 UNK         0.0600 
    220 H220       -7.6063  -23.0989  -51.6966 H         1 UNK         0.3000 
    221 H221       -7.6174  -20.8109  -53.3998 H         1 UNK         0.0600 
    222 H222       -7.2286  -23.7836  -54.0495 H         1 UNK         0.0600 
    223 H223       -8.7703  -22.9286  -53.9800 H         1 UNK         0.0600 
    224 H224       -7.5964  -22.5241  -55.2222 H         1 UNK         0.0600 
    225 H225       -5.0043  -22.9986  -52.3534 H         1 UNK         0.3000 
    226 H226       -3.0386  -21.9586  -54.2380 H         1 UNK         0.0600 
    227 H227       -2.8609  -24.2796  -53.3753 H         1 UNK         0.0600 
    228 H228       -1.4504  -23.3324  -52.9237 H         1 UNK         0.0600 
    229 H229       -2.6910  -23.6712  -51.7273 H         1 UNK         0.0600 
    230 H230       -3.8864  -21.4764  -50.7854 H         1 UNK         0.3000 
    231 H231       -1.8301  -19.6042  -50.1717 H         1 UNK         0.0600 
    232 H232       -3.1852  -19.1461  -48.1616 H         1 UNK         0.0600 
    233 H233       -3.1794  -20.8717  -48.4820 H         1 UNK         0.0600 
    234 H234       -4.5971  -19.9075  -48.8858 H         1 UNK         0.0600 
    235 H235       -4.9925  -19.1794  -51.6881 H         1 UNK         0.3000 
    236 H236       -4.8665  -16.2640  -51.7645 H         1 UNK         0.0600 
    237 H237       -7.0327  -17.4966  -51.6933 H         1 UNK         0.0600 
    238 H238       -6.9098  -16.5437  -53.1642 H         1 UNK         0.0600 
    239 H239       -6.6540  -18.2839  -53.2243 H         1 UNK         0.0600 
    240 H240       -3.2836  -18.7466  -53.5232 H         1 UNK         0.3000 
    241 H241       -2.2747  -18.9946  -55.4511 H         1 UNK         0.0600 
    242 H242       -5.4404  -18.7159  -57.3339 H         1 UNK         0.3800 
    243 H243       -4.9998  -19.2793  -55.7361 H         1 UNK         0.3800 
    244 H244       -1.2061  -16.8666  -56.5387 H         1 UNK         0.0800 
    245 H245       -1.8413  -15.9831  -55.1813 H         1 UNK         0.0800 
    246 H246       -0.0841  -15.7079  -53.0230 H         1 UNK         0.0800 
    247 H247       -1.4017  -16.8041  -52.6980 H         1 UNK         0.0800 
@<TRIPOS>BOND
     1    1    2 1    
     2    1  127 1    
     3    1  128 1    
     4    1  129 1    
     5    2    3 2    
     6    2    4 am   BACKBONE|DICT|INTERRES
     7    4    5 1    
     8    4  130 1    
     9    5    6 1    
    10    5   65 1    
    11    5  131 1    
    12    6    7 1    
    13    6  132 1    
    14    6  133 1    
    15    7    8 1    
    16    8    9 1    
    17    8  134 1    
    18    8  135 1    
    19    9   10 ar   
    20    9   14 ar   
    21   10   11 ar   
    22   10  136 1    
    23   11   12 ar   
    24   11  126 1    
    25   12   13 ar   
    26   12  137 1    
    27   13   14 ar   
    28   13   15 1    
    29   14  138 1    
    30   15   16 1    
    31   15  139 1    
    32   15  140 1    
    33   16   17 1    
    34   17   18 1    
    35   17  141 1    
    36   17  142 1    
    37   18   19 1    
    38   18   67 1    
    39   18  143 1    
    40   19   20 am   BACKBONE|DICT|INTERRES
    41   19  144 1    
    42   20   21 2    
    43   20   22 1    
    44   22   23 1    
    45   22   24 1    
    46   22  145 1    
    47   23  146 1    
    48   23  147 1    
    49   23  148 1    
    50   24   25 am   BACKBONE|DICT|INTERRES
    51   24  149 1    
    52   25   26 2    
    53   25   27 1    
    54   27   28 1    
    55   27   29 1    
    56   27  150 1    
    57   28  151 1    
    58   28  152 1    
    59   28  153 1    
    60   29   30 am   BACKBONE|DICT|INTERRES
    61   29  154 1    
    62   30   31 2    
    63   30   32 1    
    64   32   33 1    
    65   32   34 1    
    66   32  155 1    
    67   33  156 1    
    68   33  157 1    
    69   33  158 1    
    70   34   35 am   BACKBONE|DICT|INTERRES
    71   34  159 1    
    72   35   36 2    
    73   35   37 1    
    74   37   38 1    
    75   37   39 1    
    76   37  160 1    
    77   38  161 1    
    78   38  162 1    
    79   38  163 1    
    80   39   40 am   BACKBONE|DICT|INTERRES
    81   39  164 1    
    82   40   41 2    
    83   40   42 1    
    84   42   43 1    
    85   42   44 1    
    86   42  165 1    
    87   43  166 1    
    88   43  167 1    
    89   43  168 1    
    90   44   45 am   BACKBONE|DICT|INTERRES
    91   44  169 1    
    92   45   46 2    
    93   45   47 1    
    94   47   48 1    
    95   47   49 1    
    96   47  170 1    
    97   48  171 1    
    98   48  172 1    
    99   48  173 1    
   100   49   50 am   BACKBONE|DICT|INTERRES
   101   49  174 1    
   102   50   51 2    
   103   50   52 1    
   104   52   53 1    
   105   52   54 1    
   106   52  175 1    
   107   53  176 1    
   108   53  177 1    
   109   53  178 1    
   110   54   55 am   BACKBONE|DICT|INTERRES
   111   54  179 1    
   112   55   56 2    
   113   55   57 1    
   114   57   58 1    
   115   57   59 1    
   116   57  180 1    
   117   58  181 1    
   118   58  182 1    
   119   58  183 1    
   120   59   60 am   BACKBONE|DICT|INTERRES
   121   59  184 1    
   122   60   61 2    
   123   60   62 1    
   124   62   63 1    
   125   62   64 1    
   126   62  185 1    
   127   63  186 1    
   128   63  187 1    
   129   63  188 1    
   130   64   65 am   BACKBONE|DICT|INTERRES
   131   64  189 1    
   132   65   66 2    
   133   67   68 2    
   134   67   69 am   BACKBONE|DICT|INTERRES
   135   69   70 1    
   136   69  190 1    
   137   70   71 1    
   138   70   72 1    
   139   70  191 1    
   140   71  192 1    
   141   71  193 1    
   142   71  194 1    
   143   72   73 2    
   144   72   74 am   BACKBONE|DICT|INTERRES
   145   74   75 1    
   146   74  195 1    
   147   75   76 1    
   148   75   77 1    
   149   75  196 1    
   150   76  197 1    
   151   76  198 1    
   152   76  199 1    
   153   77   78 2    
   154   77   79 am   BACKBONE|DICT|INTERRES
   155   79   80 1    
   156   79  200 1    
   157   80   81 1    
   158   80   82 1    
   159   80  201 1    
   160   81  202 1    
   161   81  203 1    
   162   81  204 1    
   163   82   83 2    
   164   82   84 am   BACKBONE|DICT|INTERRES
   165   84   85 1    
   166   84  205 1    
   167   85   86 1    
   168   85   87 1    
   169   85  206 1    
   170   86  207 1    
   171   86  208 1    
   172   86  209 1    
   173   87   88 2    
   174   87   89 am   BACKBONE|DICT|INTERRES
   175   89   90 1    
   176   89  210 1    
   177   90   91 1    
   178   90   92 1    
   179   90  211 1    
   180   91  212 1    
   181   91  213 1    
   182   91  214 1    
   183   92   93 2    
   184   92   94 am   BACKBONE|DICT|INTERRES
   185   94   95 1    
   186   94  215 1    
   187   95   96 1    
   188   95   97 1    
   189   95  216 1    
   190   96  217 1    
   191   96  218 1    
   192   96  219 1    
   193   97   98 2    
   194   97   99 am   BACKBONE|DICT|INTERRES
   195   99  100 1    
   196   99  220 1    
   197  100  101 1    
   198  100  102 1    
   199  100  221 1    
   200  101  222 1    
   201  101  223 1    
   202  101  224 1    
   203  102  103 2    
   204  102  104 am   BACKBONE|DICT|INTERRES
   205  104  105 1    
   206  104  225 1    
   207  105  106 1    
   208  105  107 1    
   209  105  226 1    
   210  106  227 1    
   211  106  228 1    
   212  106  229 1    
   213  107  108 2    
   214  107  109 am   BACKBONE|DICT|INTERRES
   215  109  110 1    
   216  109  230 1    
   217  110  111 1    
   218  110  112 1    
   219  110  231 1    
   220  111  232 1    
   221  111  233 1    
   222  111  234 1    
   223  112  113 2    
   224  112  114 am   BACKBONE|DICT|INTERRES
   225  114  115 1    
   226  114  235 1    
   227  115  116 1    
   228  115  117 1    
   229  115  236 1    
   230  116  237 1    
   231  116  238 1    
   232  116  239 1    
   233  117  118 2    
   234  117  119 am   BACKBONE|DICT|INTERRES
   235  119  120 1    
   236  119  240 1    
   237  120  121 1    
   238  120  124 1    
   239  120  241 1    
   240  121  122 am   BACKBONE|DICT|INTERRES
   241  121  123 2    
   242  122  242 1    
   243  122  243 1    
   244  124  125 1    
   245  124  244 1    
   246  124  245 1    
   247  125  126 1    
   248  126  246 1    
   249  126  247 1    
@<TRIPOS>SUBSTRUCTURE
     1 UNK         1 GROUP             0       ****    0 ROOT    
