@<TRIPOS>MOLECULE
3R540
247   249    1
SMALL
USER_CHARGES


@<TRIPOS>ATOM
      1 CA         -0.9110  -12.6148  -47.1727 C.3       0 UNK        -0.1800 
      2 C           0.5097  -13.1572  -47.2267 C.2       0 UNK         0.5000 
      3 O           0.8357  -14.1171  -46.5260 O.2       0 UNK        -0.5000 
      4 N           1.3474  -12.5312  -48.0613 N.am      1 UNK        -0.5000 
      5 CA          2.7470  -12.8516  -48.3855 C.3       1 UNK         0.1400 
      6 C6          2.9611  -14.2611  -48.9994 C.3       23 UNK        -0.0398 
      7 S7          1.9779  -14.5363  -50.5154 S.3       23 UNK        -0.2404 
      8 C8          0.5915  -15.5263  -49.8706 C.3       23 UNK        -0.0205 
      9 C9          0.5038  -16.8986  -50.5171 C.ar      23 UNK        -0.0193 
     10 C10        -0.6007  -17.2355  -51.3052 C.ar      23 UNK        -0.1150 
     11 C11        -0.7208  -18.5142  -51.8576 C.ar      23 UNK        -0.0193 
     12 C12         0.2829  -19.4580  -51.6137 C.ar      23 UNK        -0.1150 
     13 C13         1.4001  -19.1290  -50.8406 C.ar      23 UNK        -0.0193 
     14 C14         1.5025  -17.8493  -50.2896 C.ar      23 UNK        -0.1150 
     15 C15         2.4900  -20.1621  -50.5941 C.3       23 UNK        -0.0205 
     16 S16         2.4359  -20.8282  -48.9012 S.3       23 UNK        -0.2404 
     17 C17         0.7151  -21.4241  -48.8108 C.3       23 UNK        -0.0398 
     18 CA          0.5126  -22.4778  -47.7015 C.3       11 UNK         0.1400 
     19 N           0.6952  -21.9350  -46.3531 N.am      11 UNK        -0.5000 
     20 C           0.7340  -22.6772  -45.2378 C.2       10 UNK         0.5000 
     21 O           0.6642  -23.9069  -45.2324 O.2       10 UNK        -0.5000 
     22 CA          0.8088  -21.9196  -43.9004 C.3       10 UNK         0.1400 
     23 CB          2.2396  -21.4369  -43.6200 C.3       10 UNK        -0.1800 
     24 N          -0.1202  -20.7897  -43.8418 N.am      10 UNK        -0.5000 
     25 C          -1.4551  -20.9052  -43.8957 C.2       9 UNK         0.5000 
     26 O          -2.0444  -21.9840  -43.9619 O.2       9 UNK        -0.5000 
     27 CA         -2.2715  -19.6002  -43.9196 C.3       9 UNK         0.1400 
     28 CB         -2.4144  -19.0181  -42.5057 C.3       9 UNK        -0.1800 
     29 N          -1.7081  -18.5904  -44.8163 N.am      9 UNK        -0.5000 
     30 C          -1.5824  -18.7391  -46.1435 C.2       8 UNK         0.5000 
     31 O          -1.9591  -19.7343  -46.7612 O.2       8 UNK        -0.5000 
     32 CA         -0.8684  -17.6072  -46.9046 C.3       8 UNK         0.1400 
     33 CB         -1.8211  -16.4220  -47.1153 C.3       8 UNK        -0.1800 
     34 N           0.3566  -17.1586  -46.2363 N.am      8 UNK        -0.5000 
     35 C           1.3936  -17.9631  -45.9569 C.2       7 UNK         0.5000 
     36 O           1.4432  -19.1491  -46.2752 O.2       7 UNK        -0.5000 
     37 CA          2.5330  -17.3734  -45.1116 C.3       7 UNK         0.1400 
     38 CB          3.4948  -16.5296  -45.9559 C.3       7 UNK        -0.1800 
     39 N           2.0300  -16.5949  -43.9805 N.am      7 UNK        -0.5000 
     40 C           1.3900  -17.1396  -42.9362 C.2       6 UNK         0.5000 
     41 O           1.1956  -18.3479  -42.8047 O.2       6 UNK        -0.5000 
     42 CA          0.8451  -16.1685  -41.8793 C.3       6 UNK         0.1400 
     43 CB          1.9510  -15.7629  -40.8949 C.3       6 UNK        -0.1800 
     44 N           0.2588  -14.9697  -42.4738 N.am      6 UNK        -0.5000 
     45 C          -0.8733  -14.9470  -43.1892 C.2       5 UNK         0.5000 
     46 O          -1.5181  -15.9583  -43.4714 O.2       5 UNK        -0.5000 
     47 CA         -1.3493  -13.5602  -43.6681 C.3       5 UNK         0.1400 
     48 CB         -2.8328  -13.5353  -44.0910 C.3       5 UNK        -0.1800 
     49 N          -1.0615  -12.4837  -42.7151 N.am      5 UNK        -0.5000 
     50 C          -1.5125  -12.3574  -41.4590 C.2       4 UNK         0.5000 
     51 O          -2.2949  -13.1463  -40.9263 O.2       4 UNK        -0.5000 
     52 CA         -0.9543  -11.1579  -40.6621 C.3       4 UNK         0.1400 
     53 CB         -1.4587  -11.1201  -39.2080 C.3       4 UNK        -0.1800 
     54 N           0.5101  -11.1677  -40.6496 N.am      4 UNK        -0.5000 
     55 C           1.3022  -10.7347  -41.6385 C.2       3 UNK         0.5000 
     56 O           0.8675  -10.2006  -42.6619 O.2       3 UNK        -0.5000 
     57 CA          2.8235  -10.9527  -41.4751 C.3       3 UNK         0.1400 
     58 CB          3.1909  -11.9965  -40.3974 C.3       3 UNK        -0.1800 
     59 N           3.4924  -11.2881  -42.7376 N.am      3 UNK        -0.5000 
     60 C           3.1891  -12.2809  -43.5863 C.2       2 UNK         0.5000 
     61 O           2.2566  -13.0765  -43.4368 O.2       2 UNK        -0.5000 
     62 CA          4.1277  -12.4377  -44.7877 C.3       2 UNK         0.1400 
     63 CB          5.1753  -13.5291  -44.5048 C.3       2 UNK        -0.1800 
     64 N           3.3470  -12.7654  -45.9771 N.am      2 UNK        -0.5000 
     65 C           3.7471  -12.5706  -47.2394 C.2       1 UNK         0.5000 
     66 O           4.8663  -12.1440  -47.5284 O.2       1 UNK        -0.5000 
     67 C          -0.8569  -23.1631  -47.8578 C.2       11 UNK         0.5000 
     68 O          -0.9113  -24.2625  -48.4045 O.2       11 UNK        -0.5000 
     69 N          -1.9287  -22.5372  -47.3501 N.am      12 UNK        -0.5000 
     70 CA         -3.2814  -23.0944  -47.3567 C.3       12 UNK         0.1400 
     71 CB         -4.2910  -22.0398  -46.8836 C.3       12 UNK        -0.1800 
     72 C          -3.4077  -24.3873  -46.5349 C.2       12 UNK         0.5000 
     73 O          -4.0808  -25.3160  -46.9819 O.2       12 UNK        -0.5000 
     74 N          -2.7355  -24.4453  -45.3782 N.am      13 UNK        -0.5000 
     75 CA         -2.6449  -25.6409  -44.5411 C.3       13 UNK         0.1400 
     76 CB         -2.0076  -25.2806  -43.1906 C.3       13 UNK        -0.1800 
     77 C          -1.8736  -26.7825  -45.2293 C.2       13 UNK         0.5000 
     78 O          -2.3224  -27.9281  -45.1833 O.2       13 UNK        -0.5000 
     79 N          -0.7476  -26.4475  -45.8751 N.am      14 UNK        -0.5000 
     80 CA          0.0955  -27.3862  -46.6172 C.3       14 UNK         0.1400 
     81 CB          1.4319  -26.7102  -46.9605 C.3       14 UNK        -0.1800 
     82 C          -0.5818  -27.9316  -47.8887 C.2       14 UNK         0.5000 
     83 O          -0.5034  -29.1321  -48.1521 O.2       14 UNK        -0.5000 
     84 N          -1.2376  -27.0449  -48.6489 N.am      15 UNK        -0.5000 
     85 CA         -1.9358  -27.3663  -49.8952 C.3       15 UNK         0.1400 
     86 CB         -2.1538  -26.0694  -50.6916 C.3       15 UNK        -0.1800 
     87 C          -3.2851  -28.0771  -49.6849 C.2       15 UNK         0.5000 
     88 O          -3.7885  -28.6809  -50.6326 O.2       15 UNK        -0.5000 
     89 N          -3.8495  -27.9676  -48.4721 N.am      16 UNK        -0.5000 
     90 CA         -5.2092  -28.3574  -48.0861 C.3       16 UNK         0.1400 
     91 CB         -5.4234  -29.8809  -48.2100 C.3       16 UNK        -0.1800 
     92 C          -6.2444  -27.5160  -48.8601 C.2       16 UNK         0.5000 
     93 O          -7.0272  -28.0533  -49.6453 O.2       16 UNK        -0.5000 
     94 N          -6.1739  -26.1993  -48.6190 N.am      17 UNK        -0.5000 
     95 CA         -6.8311  -25.0863  -49.3057 C.3       17 UNK         0.1400 
     96 CB         -8.3471  -25.2958  -49.4987 C.3       17 UNK        -0.1800 
     97 C          -6.0960  -24.7596  -50.6173 C.2       17 UNK         0.5000 
     98 O          -6.2641  -25.4557  -51.6203 O.2       17 UNK        -0.5000 
     99 N          -5.2740  -23.7040  -50.5692 N.am      18 UNK        -0.5000 
    100 CA        -4.5593  -23.1413  -51.7156 C.3       18 UNK         0.1400 
    101 CB        -3.3694  -22.3140  -51.1956 C.3       18 UNK        -0.1800 
    102 C         -5.4907  -22.2815  -52.5951 C.2       18 UNK         0.5000 
    103 O         -6.6175  -21.9741  -52.1945 O.2       18 UNK        -0.5000 
    104 N         -4.9980  -21.9018  -53.7808 N.am      19 UNK        -0.5000 
    105 CA        -5.6949  -21.0353  -54.7334 C.3       19 UNK         0.1400 
    106 CB        -4.9123  -21.0207  -56.0569 C.3       19 UNK        -0.1800 
    107 C         -5.8819  -19.5985  -54.2064 C.2       19 UNK         0.5000 
    108 O         -5.1126  -19.1385  -53.3605 O.2       19 UNK        -0.5000 
    109 N         -6.8860  -18.8995  -54.7501 N.am      20 UNK        -0.5000 
    110 CA        -7.1987  -17.5060  -54.4167 C.3       20 UNK         0.1400 
    111 CB        -8.6027  -17.1721  -54.9450 C.3       20 UNK        -0.1800 
    112 C         -6.1663  -16.4955  -54.9581 C.2       20 UNK         0.5000 
    113 O         -6.0765  -15.3841  -54.4348 O.2       20 UNK        -0.5000 
    114 N         -5.4150  -16.8924  -55.9914 N.am      21 UNK        -0.5000 
    115 CA        -4.3825  -16.0979  -56.6429 C.3       21 UNK         0.1400 
    116 CB        -5.0070  -15.2640  -57.7783 C.3       21 UNK        -0.1800 
    117 C         -3.2826  -17.0511  -57.1292 C.2       21 UNK         0.5000 
    118 O         -3.2524  -17.4118  -58.3074 O.2       21 UNK        -0.5000 
    119 N         -2.4287  -17.4830  -56.1943 N.am      22 UNK        -0.5000 
    120 CA        -1.2383  -18.3077  -56.4596 C.3       22 UNK         0.1400 
    121 C         -0.1990  -17.5879  -57.3665 C.2       22 UNK         0.5000 
    122 N          0.4669  -18.3133  -58.2547 N.am      22 UNK        -0.7600 
    123 O          0.0390  -16.3883  -57.2421 O.2       22 UNK        -0.5000 
    124 C124       -0.5586  -18.7681  -55.1460 C.3       23 UNK        -0.0398 
    125 S125       -1.6118  -19.8825  -54.1571 S.3       23 UNK        -0.2404 
    126 C126       -1.9576  -18.8659  -52.6810 C.3       23 UNK        -0.0205 
    127 H127       -1.2060  -12.1848  -48.1301 H         1 UNK         0.0600 
    128 H128       -0.9905  -11.8400  -46.4104 H         1 UNK         0.0600 
    129 H129       -1.6176  -13.4078  -46.9319 H         1 UNK         0.0600 
    130 H130        0.9888  -11.7348  -48.5692 H         1 UNK         0.3000 
    131 H131        3.0079  -12.1345  -49.1659 H         1 UNK         0.0600 
    132 H132        2.7467  -15.0430  -48.2748 H         1 UNK         0.0800 
    133 H133        4.0095  -14.3934  -49.2721 H         1 UNK         0.0800 
    134 H134        0.6860  -15.6672  -48.7954 H         1 UNK         0.0800 
    135 H135       -0.3320  -14.9657  -50.0217 H         1 UNK         0.0800 
    136 H136       -1.3792  -16.5048  -51.4743 H         1 UNK         0.1150 
    137 H137        0.1940  -20.4532  -52.0253 H         1 UNK         0.1150 
    138 H138        2.3546  -17.5969  -49.6740 H         1 UNK         0.1150 
    139 H139        2.4097  -20.9853  -51.3057 H         1 UNK         0.0800 
    140 H140        3.4662  -19.7060  -50.7643 H         1 UNK         0.0800 
    141 H141        0.4555  -21.8452  -49.7841 H         1 UNK         0.0800 
    142 H142        0.0550  -20.5685  -48.6554 H         1 UNK         0.0800 
    143 H143        1.2684  -23.2541  -47.8396 H         1 UNK         0.0600 
    144 H144        0.8107  -20.9261  -46.2826 H         1 UNK         0.3000 
    145 H145        0.5288  -22.6186  -43.1097 H         1 UNK         0.0600 
    146 H146        2.3119  -20.9693  -42.6380 H         1 UNK         0.0600 
    147 H147        2.9427  -22.2706  -43.6364 H         1 UNK         0.0600 
    148 H148        2.5741  -20.7108  -44.3610 H         1 UNK         0.0600 
    149 H149        0.2912  -19.8662  -43.7493 H         1 UNK         0.3000 
    150 H150       -3.2709  -19.8439  -44.2855 H         1 UNK         0.0600 
    151 H151       -2.8467  -19.7507  -41.8230 H         1 UNK         0.0600 
    152 H152       -3.0684  -18.1458  -42.5036 H         1 UNK         0.0600 
    153 H153       -1.4514  -18.7136  -42.0952 H         1 UNK         0.0600 
    154 H154       -1.4105  -17.7188  -44.3880 H         1 UNK         0.3000 
    155 H155       -0.5858  -17.9966  -47.8850 H         1 UNK         0.0600 
    156 H156       -2.0929  -15.9555  -46.1696 H         1 UNK         0.0600 
    157 H157       -1.3768  -15.6585  -47.7496 H         1 UNK         0.0600 
    158 H158       -2.7435  -16.7444  -47.6000 H         1 UNK         0.0600 
    159 H159        0.4068  -16.1827  -45.9700 H         1 UNK         0.3000 
    160 H160        3.1030  -18.2170  -44.7159 H         1 UNK         0.0600 
    161 H161        3.0983  -15.5318  -46.1277 H         1 UNK         0.0600 
    162 H162        3.6858  -16.9908  -46.9260 H         1 UNK         0.0600 
    163 H163        4.4577  -16.4254  -45.4574 H         1 UNK         0.0600 
    164 H164        2.1191  -15.5888  -44.0260 H         1 UNK         0.3000 
    165 H165        0.0627  -16.6859  -41.3202 H         1 UNK         0.0600 
    166 H166        1.5611  -15.1159  -40.1090 H         1 UNK         0.0600 
    167 H167        2.3811  -16.6400  -40.4097 H         1 UNK         0.0600 
    168 H168        2.7628  -15.2356  -41.3976 H         1 UNK         0.0600 
    169 H169        0.7926  -14.1115  -42.3972 H         1 UNK         0.3000 
    170 H170       -0.7457  -13.3387  -44.5436 H         1 UNK         0.0600 
    171 H171       -3.4934  -13.8016  -43.2656 H         1 UNK         0.0600 
    172 H172       -3.1232  -12.5478  -44.4491 H         1 UNK         0.0600 
    173 H173       -3.0258  -14.2394  -44.8996 H         1 UNK         0.0600 
    174 H174       -0.3927  -11.7876  -43.0289 H         1 UNK         0.3000 
    175 H175       -1.3034  -10.2494  -41.1575 H         1 UNK         0.0600 
    176 H176       -1.0791  -10.2438  -38.6822 H         1 UNK         0.0600 
    177 H177       -1.1502  -12.0055  -38.6505 H         1 UNK         0.0600 
    178 H178       -2.5477  -11.0709  -39.1724 H         1 UNK         0.0600 
    179 H179        0.9419  -11.6187  -39.8561 H         1 UNK         0.3000 
    180 H180        3.2320   -9.9920  -41.1589 H         1 UNK         0.0600 
    181 H181        2.7390  -12.9655  -40.6049 H         1 UNK         0.0600 
    182 H182        2.8679  -11.6797  -39.4052 H         1 UNK         0.0600 
    183 H183        4.2701  -12.1412  -40.3455 H         1 UNK         0.0600 
    184 H184        4.2652  -10.6837  -42.9784 H         1 UNK         0.3000 
    185 H185        4.6389  -11.4878  -44.9592 H         1 UNK         0.0600 
    186 H186        5.8233  -13.2370  -43.6778 H         1 UNK         0.0600 
    187 H187        4.7042  -14.4716  -44.2273 H         1 UNK         0.0600 
    188 H188        5.8145  -13.7113  -45.3685 H         1 UNK         0.0600 
    189 H189        2.4134  -13.1292  -45.8071 H         1 UNK         0.3000 
    190 H190       -1.8217  -21.6069  -46.9520 H         1 UNK         0.3000 
    191 H191       -3.5213  -23.3507  -48.3884 H         1 UNK         0.0600 
    192 H192       -4.2777  -21.1639  -47.5325 H         1 UNK         0.0600 
    193 H193       -5.3070  -22.4365  -46.8918 H         1 UNK         0.0600 
    194 H194       -4.0764  -21.7064  -45.8681 H         1 UNK         0.0600 
    195 H195       -2.2552  -23.6142  -45.0454 H         1 UNK         0.3000 
    196 H196       -3.6607  -25.9940  -44.3507 H         1 UNK         0.0600 
    197 H197       -1.9466  -26.1549  -42.5415 H         1 UNK         0.0600 
    198 H198       -2.5959  -24.5267  -42.6672 H         1 UNK         0.0600 
    199 H199       -0.9973  -24.8892  -43.3114 H         1 UNK         0.0600 
    200 H200       -0.4253  -25.4855  -45.8286 H         1 UNK         0.3000 
    201 H201        0.3063  -28.2355  -45.9640 H         1 UNK         0.0600 
    202 H202        1.9560  -26.3939  -46.0584 H         1 UNK         0.0600 
    203 H203        1.2890  -25.8304  -47.5885 H         1 UNK         0.0600 
    204 H204        2.0903  -27.3945  -47.4970 H         1 UNK         0.0600 
    205 H205       -1.2023  -26.0588  -48.3958 H         1 UNK         0.3000 
    206 H206       -1.3009  -28.0286  -50.4873 H         1 UNK         0.0600 
    207 H207       -1.2083  -25.5705  -50.9046 H         1 UNK         0.0600 
    208 H208       -2.6390  -26.2699  -51.6476 H         1 UNK         0.0600 
    209 H209       -2.7870  -25.3705  -50.1441 H         1 UNK         0.0600 
    210 H210       -3.3516  -27.4171  -47.7847 H         1 UNK         0.3000 
    211 H211       -5.3155  -28.0991  -47.0312 H         1 UNK         0.0600 
    212 H212       -5.3832  -30.2226  -49.2442 H         1 UNK         0.0600 
    213 H213       -6.3985  -30.1657  -47.8135 H         1 UNK         0.0600 
    214 H214       -4.6696  -30.4301  -47.6460 H         1 UNK         0.0600 
    215 H215       -5.4470  -25.9060  -47.9666 H         1 UNK         0.3000 
    216 H216       -6.7207  -24.2313  -48.6365 H         1 UNK         0.0600 
    217 H217       -8.8165  -24.3785  -49.8556 H         1 UNK         0.0600 
    218 H218       -8.8319  -25.5673  -48.5611 H         1 UNK         0.0600 
    219 H219       -8.5688  -26.0722  -50.2311 H         1 UNK         0.0600 
    220 H220       -5.2486  -23.1521  -49.7263 H         1 UNK         0.3000 
    221 H221       -4.1726  -23.9594  -52.3271 H         1 UNK         0.0600 
    222 H222       -3.6969  -21.4789  -50.5750 H         1 UNK         0.0600 
    223 H223       -2.6879  -22.9256  -50.6050 H         1 UNK         0.0600 
    224 H224       -2.7861  -21.9013  -52.0189 H         1 UNK         0.0600 
    225 H225       -4.0497  -22.1514  -54.0197 H         1 UNK         0.3000 
    226 H226       -6.6817  -21.4657  -54.9171 H         1 UNK         0.0600 
    227 H227       -4.7841  -22.0286  -56.4520 H         1 UNK         0.0600 
    228 H228       -5.4362  -20.4413  -56.8180 H         1 UNK         0.0600 
    229 H229       -3.9227  -20.5792  -55.9364 H         1 UNK         0.0600 
    230 H230       -7.4780  -19.3402  -55.4398 H         1 UNK         0.3000 
    231 H231       -7.2120  -17.4086  -53.3290 H         1 UNK         0.0600 
    232 H232       -8.6568  -17.2639  -56.0305 H         1 UNK         0.0600 
    233 H233       -8.8842  -16.1500  -54.6880 H         1 UNK         0.0600 
    234 H234       -9.3548  -17.8324  -54.5129 H         1 UNK         0.0600 
    235 H235       -5.5369  -17.8306  -56.3450 H         1 UNK         0.3000 
    236 H236       -3.9277  -15.4126  -55.9240 H         1 UNK         0.0600 
    237 H237       -5.7319  -14.5493  -57.3885 H         1 UNK         0.0600 
    238 H238       -4.2431  -14.6952  -58.3096 H         1 UNK         0.0600 
    239 H239       -5.5183  -15.8932  -58.5077 H         1 UNK         0.0600 
    240 H240       -2.5410  -17.1611  -55.2452 H         1 UNK         0.3000 
    241 H241       -1.5808  -19.1974  -56.9922 H         1 UNK         0.0600 
    242 H242        0.2939  -19.3002  -58.3704 H         1 UNK         0.3800 
    243 H243        1.1540  -17.8621  -58.8389 H         1 UNK         0.3800 
    244 H244        0.3594  -19.3169  -55.3639 H         1 UNK         0.0800 
    245 H245       -0.2557  -17.9056  -54.5501 H         1 UNK         0.0800 
    246 H246       -2.4795  -17.9622  -52.9987 H         1 UNK         0.0800 
    247 H247       -2.6537  -19.4077  -52.0403 H         1 UNK         0.0800 
@<TRIPOS>BOND
     1    1    2 1    
     2    1  127 1    
     3    1  128 1    
     4    1  129 1    
     5    2    3 2    
     6    2    4 am   BACKBONE|DICT|INTERRES
     7    4    5 1    
     8    4  130 1    
     9    5    6 1    
    10    5   65 1    
    11    5  131 1    
    12    6    7 1    
    13    6  132 1    
    14    6  133 1    
    15    7    8 1    
    16    8    9 1    
    17    8  134 1    
    18    8  135 1    
    19    9   10 ar   
    20    9   14 ar   
    21   10   11 ar   
    22   10  136 1    
    23   11   12 ar   
    24   11  126 1    
    25   12   13 ar   
    26   12  137 1    
    27   13   14 ar   
    28   13   15 1    
    29   14  138 1    
    30   15   16 1    
    31   15  139 1    
    32   15  140 1    
    33   16   17 1    
    34   17   18 1    
    35   17  141 1    
    36   17  142 1    
    37   18   19 1    
    38   18   67 1    
    39   18  143 1    
    40   19   20 am   BACKBONE|DICT|INTERRES
    41   19  144 1    
    42   20   21 2    
    43   20   22 1    
    44   22   23 1    
    45   22   24 1    
    46   22  145 1    
    47   23  146 1    
    48   23  147 1    
    49   23  148 1    
    50   24   25 am   BACKBONE|DICT|INTERRES
    51   24  149 1    
    52   25   26 2    
    53   25   27 1    
    54   27   28 1    
    55   27   29 1    
    56   27  150 1    
    57   28  151 1    
    58   28  152 1    
    59   28  153 1    
    60   29   30 am   BACKBONE|DICT|INTERRES
    61   29  154 1    
    62   30   31 2    
    63   30   32 1    
    64   32   33 1    
    65   32   34 1    
    66   32  155 1    
    67   33  156 1    
    68   33  157 1    
    69   33  158 1    
    70   34   35 am   BACKBONE|DICT|INTERRES
    71   34  159 1    
    72   35   36 2    
    73   35   37 1    
    74   37   38 1    
    75   37   39 1    
    76   37  160 1    
    77   38  161 1    
    78   38  162 1    
    79   38  163 1    
    80   39   40 am   BACKBONE|DICT|INTERRES
    81   39  164 1    
    82   40   41 2    
    83   40   42 1    
    84   42   43 1    
    85   42   44 1    
    86   42  165 1    
    87   43  166 1    
    88   43  167 1    
    89   43  168 1    
    90   44   45 am   BACKBONE|DICT|INTERRES
    91   44  169 1    
    92   45   46 2    
    93   45   47 1    
    94   47   48 1    
    95   47   49 1    
    96   47  170 1    
    97   48  171 1    
    98   48  172 1    
    99   48  173 1    
   100   49   50 am   BACKBONE|DICT|INTERRES
   101   49  174 1    
   102   50   51 2    
   103   50   52 1    
   104   52   53 1    
   105   52   54 1    
   106   52  175 1    
   107   53  176 1    
   108   53  177 1    
   109   53  178 1    
   110   54   55 am   BACKBONE|DICT|INTERRES
   111   54  179 1    
   112   55   56 2    
   113   55   57 1    
   114   57   58 1    
   115   57   59 1    
   116   57  180 1    
   117   58  181 1    
   118   58  182 1    
   119   58  183 1    
   120   59   60 am   BACKBONE|DICT|INTERRES
   121   59  184 1    
   122   60   61 2    
   123   60   62 1    
   124   62   63 1    
   125   62   64 1    
   126   62  185 1    
   127   63  186 1    
   128   63  187 1    
   129   63  188 1    
   130   64   65 am   BACKBONE|DICT|INTERRES
   131   64  189 1    
   132   65   66 2    
   133   67   68 2    
   134   67   69 am   BACKBONE|DICT|INTERRES
   135   69   70 1    
   136   69  190 1    
   137   70   71 1    
   138   70   72 1    
   139   70  191 1    
   140   71  192 1    
   141   71  193 1    
   142   71  194 1    
   143   72   73 2    
   144   72   74 am   BACKBONE|DICT|INTERRES
   145   74   75 1    
   146   74  195 1    
   147   75   76 1    
   148   75   77 1    
   149   75  196 1    
   150   76  197 1    
   151   76  198 1    
   152   76  199 1    
   153   77   78 2    
   154   77   79 am   BACKBONE|DICT|INTERRES
   155   79   80 1    
   156   79  200 1    
   157   80   81 1    
   158   80   82 1    
   159   80  201 1    
   160   81  202 1    
   161   81  203 1    
   162   81  204 1    
   163   82   83 2    
   164   82   84 am   BACKBONE|DICT|INTERRES
   165   84   85 1    
   166   84  205 1    
   167   85   86 1    
   168   85   87 1    
   169   85  206 1    
   170   86  207 1    
   171   86  208 1    
   172   86  209 1    
   173   87   88 2    
   174   87   89 am   BACKBONE|DICT|INTERRES
   175   89   90 1    
   176   89  210 1    
   177   90   91 1    
   178   90   92 1    
   179   90  211 1    
   180   91  212 1    
   181   91  213 1    
   182   91  214 1    
   183   92   93 2    
   184   92   94 am   BACKBONE|DICT|INTERRES
   185   94   95 1    
   186   94  215 1    
   187   95   96 1    
   188   95   97 1    
   189   95  216 1    
   190   96  217 1    
   191   96  218 1    
   192   96  219 1    
   193   97   98 2    
   194   97   99 am   BACKBONE|DICT|INTERRES
   195   99  100 1    
   196   99  220 1    
   197  100  101 1    
   198  100  102 1    
   199  100  221 1    
   200  101  222 1    
   201  101  223 1    
   202  101  224 1    
   203  102  103 2    
   204  102  104 am   BACKBONE|DICT|INTERRES
   205  104  105 1    
   206  104  225 1    
   207  105  106 1    
   208  105  107 1    
   209  105  226 1    
   210  106  227 1    
   211  106  228 1    
   212  106  229 1    
   213  107  108 2    
   214  107  109 am   BACKBONE|DICT|INTERRES
   215  109  110 1    
   216  109  230 1    
   217  110  111 1    
   218  110  112 1    
   219  110  231 1    
   220  111  232 1    
   221  111  233 1    
   222  111  234 1    
   223  112  113 2    
   224  112  114 am   BACKBONE|DICT|INTERRES
   225  114  115 1    
   226  114  235 1    
   227  115  116 1    
   228  115  117 1    
   229  115  236 1    
   230  116  237 1    
   231  116  238 1    
   232  116  239 1    
   233  117  118 2    
   234  117  119 am   BACKBONE|DICT|INTERRES
   235  119  120 1    
   236  119  240 1    
   237  120  121 1    
   238  120  124 1    
   239  120  241 1    
   240  121  122 am   BACKBONE|DICT|INTERRES
   241  121  123 2    
   242  122  242 1    
   243  122  243 1    
   244  124  125 1    
   245  124  244 1    
   246  124  245 1    
   247  125  126 1    
   248  126  246 1    
   249  126  247 1    
@<TRIPOS>SUBSTRUCTURE
     1 UNK         1 GROUP             0       ****    0 ROOT    
