@<TRIPOS>MOLECULE
3R540
247   249    1
SMALL
USER_CHARGES


@<TRIPOS>ATOM
      1 CA          3.0489  -10.1728  -48.2315 C.3       0 UNK        -0.1800 
      2 C           1.5645   -9.8974  -48.4685 C.2       0 UNK         0.5000 
      3 O           1.1396   -8.7501  -48.3501 O.2       0 UNK        -0.5000 
      4 N           0.7372  -10.8982  -48.8046 N.am      1 UNK        -0.5000 
      5 CA          1.0729  -12.3224  -48.9548 C.3       1 UNK         0.1400 
      6 C6         -0.0824  -13.1280  -49.5955 C.3       23 UNK        -0.0398 
      7 S7         -0.6582  -12.4998  -51.2067 S.3       23 UNK        -0.2404 
      8 C8         -2.3712  -13.1282  -51.2117 C.3       23 UNK        -0.0205 
      9 C9         -2.4259  -14.6445  -51.3541 C.ar      23 UNK        -0.0193 
     10 C10        -2.5999  -15.2253  -52.6132 C.ar      23 UNK        -0.1150 
     11 C11        -2.6548  -16.6151  -52.7544 C.ar      23 UNK        -0.0193 
     12 C12        -2.5020  -17.4265  -51.6250 C.ar      23 UNK        -0.1150 
     13 C13        -2.3459  -16.8607  -50.3565 C.ar      23 UNK        -0.0193 
     14 C14        -2.3215  -15.4691  -50.2285 C.ar      23 UNK        -0.1150 
     15 C15        -2.2222  -17.7447  -49.1219 C.3       23 UNK        -0.0205 
     16 S16        -0.5928  -18.5524  -49.0376 S.3       23 UNK        -0.2404 
     17 C17        -0.5000  -19.0328  -47.2791 C.3       23 UNK        -0.0398 
     18 CA         -0.6845  -20.5486  -47.0138 C.3       11 UNK         0.1400 
     19 N          -0.2065  -20.9170  -45.6762 N.am      11 UNK        -0.5000 
     20 C          -0.1749  -22.1590  -45.1705 C.2       10 UNK         0.5000 
     21 O          -0.4989  -23.1641  -45.8008 O.2       10 UNK        -0.5000 
     22 CA          0.2379  -22.3000  -43.6938 C.3       10 UNK         0.1400 
     23 CB          1.7661  -22.2683  -43.5462 C.3       10 UNK        -0.1800 
     24 N          -0.3684  -21.2810  -42.8345 N.am      10 UNK        -0.5000 
     25 C          -1.6876  -21.1467  -42.6326 C.2       9 UNK         0.5000 
     26 O          -2.5328  -21.8938  -43.1217 O.2       9 UNK        -0.5000 
     27 CA         -2.1511  -19.9465  -41.7896 C.3       9 UNK         0.1400 
     28 CB         -1.9800  -20.2274  -40.2896 C.3       9 UNK        -0.1800 
     29 N          -1.4592  -18.7096  -42.1494 N.am      9 UNK        -0.5000 
     30 C          -1.5257  -18.1265  -43.3555 C.2       8 UNK         0.5000 
     31 O          -2.2197  -18.5455  -44.2836 O.2       8 UNK        -0.5000 
     32 CA         -0.6223  -16.8996  -43.5756 C.3       8 UNK         0.1400 
     33 CB         -1.2357  -15.6517  -42.9255 C.3       8 UNK        -0.1800 
     34 N           0.7312  -17.1062  -43.0585 N.am      8 UNK        -0.5000 
     35 C           1.5812  -18.0436  -43.5010 C.2       7 UNK         0.5000 
     36 O           1.3344  -18.7975  -44.4420 O.2       7 UNK        -0.5000 
     37 CA          2.8944  -18.2214  -42.7185 C.3       7 UNK         0.1400 
     38 CB          3.9639  -17.2109  -43.1553 C.3       7 UNK        -0.1800 
     39 N           2.6898  -18.1266  -41.2740 N.am      7 UNK        -0.5000 
     40 C           2.0504  -19.0476  -40.5407 C.2       6 UNK         0.5000 
     41 O           1.5935  -20.0923  -41.0031 O.2       6 UNK        -0.5000 
     42 CA          1.8607  -18.7295  -39.0467 C.3       6 UNK         0.1400 
     43 CB          3.1068  -19.1331  -38.2448 C.3       6 UNK        -0.1800 
     44 N           1.5661  -17.3159  -38.8074 N.am      6 UNK        -0.5000 
     45 C           0.4319  -16.7074  -39.1817 C.2       5 UNK         0.5000 
     46 O          -0.4984  -17.2822  -39.7464 O.2       5 UNK        -0.5000 
     47 CA          0.3485  -15.1907  -38.9255 C.3       5 UNK         0.1400 
     48 CB         -0.1071  -14.9079  -37.4863 C.3       5 UNK        -0.1800 
     49 N           1.6102  -14.4883  -39.1871 N.am      5 UNK        -0.5000 
     50 C           2.2020  -14.4326  -40.3867 C.2       4 UNK         0.5000 
     51 O           1.7586  -15.0001  -41.3875 O.2       4 UNK        -0.5000 
     52 CA          3.5183  -13.6490  -40.4794 C.3       4 UNK         0.1400 
     53 CB          4.7048  -14.5096  -40.0126 C.3       4 UNK        -0.1800 
     54 N           3.7141  -13.2522  -41.8680 N.am      4 UNK        -0.5000 
     55 C           4.3788  -12.1826  -42.3121 C.2       3 UNK         0.5000 
     56 O           4.9939  -11.4125  -41.5734 O.2       3 UNK        -0.5000 
     57 CA          4.3279  -11.8938  -43.8298 C.3       3 UNK         0.1400 
     58 CB          5.4159  -12.6807  -44.5857 C.3       3 UNK        -0.1800 
     59 N           3.0013  -12.0761  -44.4423 N.am      3 UNK        -0.5000 
     60 C           2.3069  -13.2113  -44.6091 C.2       2 UNK         0.5000 
     61 O           2.7259  -14.3286  -44.3160 O.2       2 UNK        -0.5000 
     62 CA          0.8866  -13.0651  -45.1753 C.3       2 UNK         0.1400 
     63 CB         -0.0013  -12.2305  -44.2352 C.3       2 UNK        -0.1800 
     64 N           0.8440  -12.4871  -46.5171 N.am      2 UNK        -0.5000 
     65 C           1.4257  -12.9982  -47.6127 C.2       1 UNK         0.5000 
     66 O           2.1699  -13.9780  -47.6115 O.2       1 UNK        -0.5000 
     67 C          -2.1444  -20.9954  -47.2370 C.2       11 UNK         0.5000 
     68 O          -2.4372  -21.6389  -48.2476 O.2       11 UNK        -0.5000 
     69 N          -3.0159  -20.6823  -46.2673 N.am      12 UNK        -0.5000 
     70 CA         -4.4254  -21.0689  -46.2563 C.3       12 UNK         0.1400 
     71 CB         -5.1497  -20.3274  -45.1227 C.3       12 UNK        -0.1800 
     72 C          -4.6284  -22.5909  -46.1410 C.2       12 UNK         0.5000 
     73 O          -5.3956  -23.1573  -46.9204 O.2       12 UNK        -0.5000 
     74 N          -3.9158  -23.2320  -45.2024 N.am      13 UNK        -0.5000 
     75 CA         -3.9571  -24.6774  -44.9509 C.3       13 UNK         0.1400 
     76 CB         -3.1258  -25.0065  -43.7022 C.3       13 UNK        -0.1800 
     77 C          -3.4848  -25.5241  -46.1470 C.2       13 UNK         0.5000 
     78 O          -4.0013  -26.6214  -46.3583 O.2       13 UNK        -0.5000 
     79 N          -2.5495  -24.9784  -46.9338 N.am      14 UNK        -0.5000 
     80 CA         -2.0600  -25.5409  -48.1912 C.3       14 UNK         0.1400 
     81 CB         -0.6668  -24.9566  -48.4782 C.3       14 UNK        -0.1800 
     82 C          -3.0140  -25.3195  -49.3858 C.2       14 UNK         0.5000 
     83 O          -2.6145  -25.5983  -50.5147 O.2       14 UNK        -0.5000 
     84 N          -4.2332  -24.8110  -49.1470 N.am      15 UNK        -0.5000 
     85 CA         -5.2711  -24.5068  -50.1390 C.3       15 UNK         0.1400 
     86 CB         -5.7749  -25.7895  -50.8344 C.3       15 UNK        -0.1800 
     87 C          -4.8130  -23.4206  -51.1298 C.2       15 UNK         0.5000 
     88 O          -4.9592  -23.5799  -52.3447 O.2       15 UNK        -0.5000 
     89 N          -4.2519  -22.3410  -50.5672 N.am      16 UNK        -0.5000 
     90 CA         -3.6121  -21.2151  -51.2452 C.3       16 UNK         0.1400 
     91 CB         -4.5610  -20.5461  -52.2578 C.3       16 UNK        -0.1800 
     92 C          -2.2640  -21.6427  -51.8497 C.2       16 UNK         0.5000 
     93 O          -2.0950  -21.6285  -53.0688 O.2       16 UNK        -0.5000 
     94 N          -1.3378  -22.0406  -50.9651 N.am      17 UNK        -0.5000 
     95 CA          0.0656  -22.3800  -51.2469 C.3       17 UNK         0.1400 
     96 CB          0.8577  -21.1030  -51.5962 C.3       17 UNK        -0.1800 
     97 C           0.2530  -23.4913  -52.3046 C.2       17 UNK         0.5000 
     98 O           1.1771  -23.4195  -53.1163 O.2       17 UNK        -0.5000 
     99 N          -0.6420  -24.4894  -52.2872 N.am      18 UNK        -0.5000 
    100 CA        -0.7266  -25.6342  -53.2014 C.3       18 UNK         0.1400 
    101 CB         0.5366  -26.5159  -53.1104 C.3       18 UNK        -0.1800 
    102 C         -1.0917  -25.2687  -54.6565 C.2       18 UNK         0.5000 
    103 O         -1.0153  -26.1355  -55.5289 O.2       18 UNK        -0.5000 
    104 N         -1.5163  -24.0205  -54.9039 N.am      19 UNK        -0.5000 
    105 CA        -1.9683  -23.5514  -56.2154 C.3       19 UNK         0.1400 
    106 CB        -1.7414  -22.0358  -56.3150 C.3       19 UNK        -0.1800 
    107 C         -3.4424  -23.9012  -56.4981 C.2       19 UNK         0.5000 
    108 O         -3.8723  -23.7571  -57.6419 O.2       19 UNK        -0.5000 
    109 N         -4.1775  -24.3466  -55.4653 N.am      20 UNK        -0.5000 
    110 CA        -5.6029  -24.6858  -55.4542 C.3       20 UNK         0.1400 
    111 CB        -5.9241  -25.8356  -56.4322 C.3       20 UNK        -0.1800 
    112 C         -6.4592  -23.4298  -55.6894 C.2       20 UNK         0.5000 
    113 O         -6.9257  -23.1880  -56.8045 O.2       20 UNK        -0.5000 
    114 N         -6.5972  -22.6265  -54.6253 N.am      21 UNK        -0.5000 
    115 CA        -7.3257  -21.3503  -54.5760 C.3       21 UNK         0.1400 
    116 CB        -8.8395  -21.5723  -54.7782 C.3       21 UNK        -0.1800 
    117 C         -6.7340  -20.2870  -55.5288 C.2       21 UNK         0.5000 
    118 O         -7.4760  -19.5332  -56.1607 O.2       21 UNK        -0.5000 
    119 N         -5.3968  -20.2659  -55.6112 N.am      22 UNK        -0.5000 
    120 CA        -4.5734  -19.3852  -56.4595 C.3       22 UNK         0.1400 
    121 C         -4.6327  -19.7128  -57.9837 C.2       22 UNK         0.5000 
    122 N         -5.2211  -20.8243  -58.4095 N.am      22 UNK        -0.7600 
    123 O         -4.1067  -18.9605  -58.7994 O.2       22 UNK        -0.5000 
    124 C124       -4.7621  -17.8648  -56.1804 C.3       23 UNK        -0.0398 
    125 S125       -4.6972  -17.4021  -54.4147 S.3       23 UNK        -0.2404 
    126 C126       -2.9084  -17.2288  -54.1235 C.3       23 UNK        -0.0205 
    127 H127        3.2030  -10.6585  -47.2682 H         1 UNK         0.0600 
    128 H128        3.6105   -9.2384  -48.2252 H         1 UNK         0.0600 
    129 H129        3.4720  -10.8004  -49.0150 H         1 UNK         0.0600 
    130 H130       -0.2291  -10.6716  -48.9921 H         1 UNK         0.3000 
    131 H131        1.9405  -12.4050  -49.6116 H         1 UNK         0.0600 
    132 H132       -0.9344  -13.1446  -48.9135 H         1 UNK         0.0800 
    133 H133        0.2181  -14.1678  -49.7416 H         1 UNK         0.0800 
    134 H134       -2.9114  -12.6588  -52.0353 H         1 UNK         0.0800 
    135 H135       -2.8851  -12.8161  -50.3012 H         1 UNK         0.0800 
    136 H136       -2.7070  -14.5945  -53.4846 H         1 UNK         0.1150 
    137 H137       -2.5095  -18.4997  -51.7268 H         1 UNK         0.1150 
    138 H138       -2.2138  -15.0289  -49.2482 H         1 UNK         0.1150 
    139 H139       -2.3817  -17.1481  -48.2225 H         1 UNK         0.0800 
    140 H140       -3.0059  -18.5028  -49.1284 H         1 UNK         0.0800 
    141 H141       -1.1970  -18.4387  -46.6881 H         1 UNK         0.0800 
    142 H142        0.4923  -18.7292  -46.9442 H         1 UNK         0.0800 
    143 H143       -0.0636  -21.0962  -47.7260 H         1 UNK         0.0600 
    144 H144        0.1335  -20.1549  -45.0957 H         1 UNK         0.3000 
    145 H145       -0.1117  -23.2737  -43.3455 H         1 UNK         0.0600 
    146 H146        2.0657  -22.4472  -42.5135 H         1 UNK         0.0600 
    147 H147        2.2330  -23.0406  -44.1587 H         1 UNK         0.0600 
    148 H148        2.1825  -21.3094  -43.8537 H         1 UNK         0.0600 
    149 H149        0.2690  -20.6546  -42.3522 H         1 UNK         0.3000 
    150 H150       -3.2151  -19.7976  -41.9851 H         1 UNK         0.0600 
    151 H151       -2.5081  -21.1368  -40.0004 H         1 UNK         0.0600 
    152 H152       -2.3828  -19.4122  -39.6883 H         1 UNK         0.0600 
    153 H153       -0.9323  -20.3559  -40.0188 H         1 UNK         0.0600 
    154 H154       -0.9023  -18.2716  -41.4220 H         1 UNK         0.3000 
    155 H155       -0.5441  -16.7242  -44.6504 H         1 UNK         0.0600 
    156 H156       -1.3845  -15.7840  -41.8538 H         1 UNK         0.0600 
    157 H157       -2.2050  -15.4173  -43.3668 H         1 UNK         0.0600 
    158 H158       -0.5935  -14.7845  -43.0621 H         1 UNK         0.0600 
    159 H159        1.0403  -16.4784  -42.3207 H         1 UNK         0.3000 
    160 H160        3.2731  -19.2206  -42.9437 H         1 UNK         0.0600 
    161 H161        3.7170  -16.2001  -42.8349 H         1 UNK         0.0600 
    162 H162        4.0722  -17.1951  -44.2405 H         1 UNK         0.0600 
    163 H163        4.9368  -17.4628  -42.7334 H         1 UNK         0.0600 
    164 H164        2.9864  -17.2724  -40.8277 H         1 UNK         0.3000 
    165 H165        1.0162  -19.3199  -38.6850 H         1 UNK         0.0600 
    166 H166        2.9537  -18.9818  -37.1761 H         1 UNK         0.0600 
    167 H167        3.3402  -20.1884  -38.3923 H         1 UNK         0.0600 
    168 H168        3.9840  -18.5578  -38.5436 H         1 UNK         0.0600 
    169 H169        2.2800  -16.7684  -38.3501 H         1 UNK         0.3000 
    170 H170       -0.4042  -14.7857  -39.6053 H         1 UNK         0.0600 
    171 H171       -1.0533  -15.4066  -37.2716 H         1 UNK         0.0600 
    172 H172        0.6222  -15.2585  -36.7551 H         1 UNK         0.0600 
    173 H173       -0.2601  -13.8409  -37.3236 H         1 UNK         0.0600 
    174 H174        2.0313  -14.0074  -38.4051 H         1 UNK         0.3000 
    175 H175        3.4361  -12.7583  -39.8532 H         1 UNK         0.0600 
    176 H176        4.8167  -15.4061  -40.6236 H         1 UNK         0.0600 
    177 H177        5.6402  -13.9523  -40.0657 H         1 UNK         0.0600 
    178 H178        4.5772  -14.8289  -38.9776 H         1 UNK         0.0600 
    179 H179        3.2187  -13.8280  -42.5471 H         1 UNK         0.3000 
    180 H180        4.5571  -10.8337  -43.9494 H         1 UNK         0.0600 
    181 H181        5.2910  -13.7587  -44.4799 H         1 UNK         0.0600 
    182 H182        6.4074  -12.4319  -44.2059 H         1 UNK         0.0600 
    183 H183        5.4055  -12.4444  -45.6498 H         1 UNK         0.0600 
    184 H184        2.5396  -11.2169  -44.7040 H         1 UNK         0.3000 
    185 H185        0.4610  -14.0690  -45.2369 H         1 UNK         0.0600 
    186 H186        0.0946  -12.5617  -43.2002 H         1 UNK         0.0600 
    187 H187        0.2603  -11.1722  -44.2606 H         1 UNK         0.0600 
    188 H188       -1.0529  -12.3200  -44.5083 H         1 UNK         0.0600 
    189 H189        0.2584  -11.6727  -46.6345 H         1 UNK         0.3000 
    190 H190       -2.6892  -20.1395  -45.4738 H         1 UNK         0.3000 
    191 H191       -4.8648  -20.7478  -47.2031 H         1 UNK         0.0600 
    192 H192       -4.7342  -20.5766  -44.1459 H         1 UNK         0.0600 
    193 H193       -6.2102  -20.5811  -45.1043 H         1 UNK         0.0600 
    194 H194       -5.0748  -19.2472  -45.2493 H         1 UNK         0.0600 
    195 H195       -3.3266  -22.6863  -44.5762 H         1 UNK         0.3000 
    196 H196       -4.9957  -24.9466  -44.7491 H         1 UNK         0.0600 
    197 H197       -3.1528  -26.0746  -43.4829 H         1 UNK         0.0600 
    198 H198       -3.5088  -24.4855  -42.8247 H         1 UNK         0.0600 
    199 H199       -2.0809  -24.7231  -43.8318 H         1 UNK         0.0600 
    200 H200       -2.1317  -24.0993  -46.6460 H         1 UNK         0.3000 
    201 H201       -1.9519  -26.6205  -48.0712 H         1 UNK         0.0600 
    202 H202        0.0292  -25.1920  -47.6729 H         1 UNK         0.0600 
    203 H203       -0.7056  -23.8719  -48.5755 H         1 UNK         0.0600 
    204 H204       -0.2409  -25.3616  -49.3969 H         1 UNK         0.0600 
    205 H205       -4.4657  -24.5564  -48.1940 H         1 UNK         0.3000 
    206 H206       -6.1100  -24.0829  -49.5854 H         1 UNK         0.0600 
    207 H207       -6.6317  -25.5733  -51.4736 H         1 UNK         0.0600 
    208 H208       -6.0939  -26.5335  -50.1046 H         1 UNK         0.0600 
    209 H209       -5.0083  -26.2429  -51.4632 H         1 UNK         0.0600 
    210 H210       -4.1275  -22.3491  -49.5623 H         1 UNK         0.3000 
    211 H211       -3.3922  -20.4752  -50.4756 H         1 UNK         0.0600 
    212 H212       -4.1236  -19.6399  -52.6671 H         1 UNK         0.0600 
    213 H213       -5.5089  -20.2719  -51.7955 H         1 UNK         0.0600 
    214 H214       -4.7659  -21.1954  -53.1037 H         1 UNK         0.0600 
    215 H215       -1.6057  -22.0330  -49.9851 H         1 UNK         0.3000 
    216 H216        0.4821  -22.7754  -50.3204 H         1 UNK         0.0600 
    217 H217        1.9194  -21.3175  -51.7230 H         1 UNK         0.0600 
    218 H218        0.7788  -20.3615  -50.8040 H         1 UNK         0.0600 
    219 H219        0.5016  -20.6466  -52.5205 H         1 UNK         0.0600 
    220 H220       -1.3705  -24.4785  -51.5800 H         1 UNK         0.3000 
    221 H221       -1.5613  -26.2366  -52.8419 H         1 UNK         0.0600 
    222 H222        1.4103  -26.0225  -53.5362 H         1 UNK         0.0600 
    223 H223        0.7643  -26.7714  -52.0755 H         1 UNK         0.0600 
    224 H224        0.3989  -27.4532  -53.6505 H         1 UNK         0.0600 
    225 H225       -1.5574  -23.3472  -54.1455 H         1 UNK         0.3000 
    226 H226       -1.3653  -24.0278  -56.9914 H         1 UNK         0.0600 
    227 H227       -0.7006  -21.7769  -56.1202 H         1 UNK         0.0600 
    228 H228       -1.9893  -21.6673  -57.3113 H         1 UNK         0.0600 
    229 H229       -2.3606  -21.4940  -55.6027 H         1 UNK         0.0600 
    230 H230       -3.7262  -24.3803  -54.5616 H         1 UNK         0.3000 
    231 H231       -5.8284  -25.0511  -54.4511 H         1 UNK         0.0600 
    232 H232       -5.3103  -26.7117  -56.2234 H         1 UNK         0.0600 
    233 H233       -5.7627  -25.5545  -57.4730 H         1 UNK         0.0600 
    234 H234       -6.9674  -26.1389  -56.3388 H         1 UNK         0.0600 
    235 H235       -6.1272  -22.9044  -53.7666 H         1 UNK         0.3000 
    236 H236       -7.1926  -20.9592  -53.5670 H         1 UNK         0.0600 
    237 H237       -9.3956  -20.6507  -54.6028 H         1 UNK         0.0600 
    238 H238       -9.0710  -21.9044  -55.7905 H         1 UNK         0.0600 
    239 H239       -9.2244  -22.3189  -54.0836 H         1 UNK         0.0600 
    240 H240       -4.8840  -20.9423  -55.0663 H         1 UNK         0.3000 
    241 H241       -3.5465  -19.6141  -56.1793 H         1 UNK         0.0600 
    242 H242       -5.6484  -21.4744  -57.7641 H         1 UNK         0.3800 
    243 H243       -5.2317  -21.0289  -59.3958 H         1 UNK         0.3800 
    244 H244       -4.0095  -17.2827  -56.7148 H         1 UNK         0.0800 
    245 H245       -5.7241  -17.5309  -56.5717 H         1 UNK         0.0800 
    246 H246       -2.4653  -16.6032  -54.8998 H         1 UNK         0.0800 
    247 H247       -2.4294  -18.2067  -54.1967 H         1 UNK         0.0800 
@<TRIPOS>BOND
     1    1    2 1    
     2    1  127 1    
     3    1  128 1    
     4    1  129 1    
     5    2    3 2    
     6    2    4 am   BACKBONE|DICT|INTERRES
     7    4    5 1    
     8    4  130 1    
     9    5    6 1    
    10    5   65 1    
    11    5  131 1    
    12    6    7 1    
    13    6  132 1    
    14    6  133 1    
    15    7    8 1    
    16    8    9 1    
    17    8  134 1    
    18    8  135 1    
    19    9   10 ar   
    20    9   14 ar   
    21   10   11 ar   
    22   10  136 1    
    23   11   12 ar   
    24   11  126 1    
    25   12   13 ar   
    26   12  137 1    
    27   13   14 ar   
    28   13   15 1    
    29   14  138 1    
    30   15   16 1    
    31   15  139 1    
    32   15  140 1    
    33   16   17 1    
    34   17   18 1    
    35   17  141 1    
    36   17  142 1    
    37   18   19 1    
    38   18   67 1    
    39   18  143 1    
    40   19   20 am   BACKBONE|DICT|INTERRES
    41   19  144 1    
    42   20   21 2    
    43   20   22 1    
    44   22   23 1    
    45   22   24 1    
    46   22  145 1    
    47   23  146 1    
    48   23  147 1    
    49   23  148 1    
    50   24   25 am   BACKBONE|DICT|INTERRES
    51   24  149 1    
    52   25   26 2    
    53   25   27 1    
    54   27   28 1    
    55   27   29 1    
    56   27  150 1    
    57   28  151 1    
    58   28  152 1    
    59   28  153 1    
    60   29   30 am   BACKBONE|DICT|INTERRES
    61   29  154 1    
    62   30   31 2    
    63   30   32 1    
    64   32   33 1    
    65   32   34 1    
    66   32  155 1    
    67   33  156 1    
    68   33  157 1    
    69   33  158 1    
    70   34   35 am   BACKBONE|DICT|INTERRES
    71   34  159 1    
    72   35   36 2    
    73   35   37 1    
    74   37   38 1    
    75   37   39 1    
    76   37  160 1    
    77   38  161 1    
    78   38  162 1    
    79   38  163 1    
    80   39   40 am   BACKBONE|DICT|INTERRES
    81   39  164 1    
    82   40   41 2    
    83   40   42 1    
    84   42   43 1    
    85   42   44 1    
    86   42  165 1    
    87   43  166 1    
    88   43  167 1    
    89   43  168 1    
    90   44   45 am   BACKBONE|DICT|INTERRES
    91   44  169 1    
    92   45   46 2    
    93   45   47 1    
    94   47   48 1    
    95   47   49 1    
    96   47  170 1    
    97   48  171 1    
    98   48  172 1    
    99   48  173 1    
   100   49   50 am   BACKBONE|DICT|INTERRES
   101   49  174 1    
   102   50   51 2    
   103   50   52 1    
   104   52   53 1    
   105   52   54 1    
   106   52  175 1    
   107   53  176 1    
   108   53  177 1    
   109   53  178 1    
   110   54   55 am   BACKBONE|DICT|INTERRES
   111   54  179 1    
   112   55   56 2    
   113   55   57 1    
   114   57   58 1    
   115   57   59 1    
   116   57  180 1    
   117   58  181 1    
   118   58  182 1    
   119   58  183 1    
   120   59   60 am   BACKBONE|DICT|INTERRES
   121   59  184 1    
   122   60   61 2    
   123   60   62 1    
   124   62   63 1    
   125   62   64 1    
   126   62  185 1    
   127   63  186 1    
   128   63  187 1    
   129   63  188 1    
   130   64   65 am   BACKBONE|DICT|INTERRES
   131   64  189 1    
   132   65   66 2    
   133   67   68 2    
   134   67   69 am   BACKBONE|DICT|INTERRES
   135   69   70 1    
   136   69  190 1    
   137   70   71 1    
   138   70   72 1    
   139   70  191 1    
   140   71  192 1    
   141   71  193 1    
   142   71  194 1    
   143   72   73 2    
   144   72   74 am   BACKBONE|DICT|INTERRES
   145   74   75 1    
   146   74  195 1    
   147   75   76 1    
   148   75   77 1    
   149   75  196 1    
   150   76  197 1    
   151   76  198 1    
   152   76  199 1    
   153   77   78 2    
   154   77   79 am   BACKBONE|DICT|INTERRES
   155   79   80 1    
   156   79  200 1    
   157   80   81 1    
   158   80   82 1    
   159   80  201 1    
   160   81  202 1    
   161   81  203 1    
   162   81  204 1    
   163   82   83 2    
   164   82   84 am   BACKBONE|DICT|INTERRES
   165   84   85 1    
   166   84  205 1    
   167   85   86 1    
   168   85   87 1    
   169   85  206 1    
   170   86  207 1    
   171   86  208 1    
   172   86  209 1    
   173   87   88 2    
   174   87   89 am   BACKBONE|DICT|INTERRES
   175   89   90 1    
   176   89  210 1    
   177   90   91 1    
   178   90   92 1    
   179   90  211 1    
   180   91  212 1    
   181   91  213 1    
   182   91  214 1    
   183   92   93 2    
   184   92   94 am   BACKBONE|DICT|INTERRES
   185   94   95 1    
   186   94  215 1    
   187   95   96 1    
   188   95   97 1    
   189   95  216 1    
   190   96  217 1    
   191   96  218 1    
   192   96  219 1    
   193   97   98 2    
   194   97   99 am   BACKBONE|DICT|INTERRES
   195   99  100 1    
   196   99  220 1    
   197  100  101 1    
   198  100  102 1    
   199  100  221 1    
   200  101  222 1    
   201  101  223 1    
   202  101  224 1    
   203  102  103 2    
   204  102  104 am   BACKBONE|DICT|INTERRES
   205  104  105 1    
   206  104  225 1    
   207  105  106 1    
   208  105  107 1    
   209  105  226 1    
   210  106  227 1    
   211  106  228 1    
   212  106  229 1    
   213  107  108 2    
   214  107  109 am   BACKBONE|DICT|INTERRES
   215  109  110 1    
   216  109  230 1    
   217  110  111 1    
   218  110  112 1    
   219  110  231 1    
   220  111  232 1    
   221  111  233 1    
   222  111  234 1    
   223  112  113 2    
   224  112  114 am   BACKBONE|DICT|INTERRES
   225  114  115 1    
   226  114  235 1    
   227  115  116 1    
   228  115  117 1    
   229  115  236 1    
   230  116  237 1    
   231  116  238 1    
   232  116  239 1    
   233  117  118 2    
   234  117  119 am   BACKBONE|DICT|INTERRES
   235  119  120 1    
   236  119  240 1    
   237  120  121 1    
   238  120  124 1    
   239  120  241 1    
   240  121  122 am   BACKBONE|DICT|INTERRES
   241  121  123 2    
   242  122  242 1    
   243  122  243 1    
   244  124  125 1    
   245  124  244 1    
   246  124  245 1    
   247  125  126 1    
   248  126  246 1    
   249  126  247 1    
@<TRIPOS>SUBSTRUCTURE
     1 UNK         1 GROUP             0       ****    0 ROOT    
