@<TRIPOS>MOLECULE
3R540
247   249    1
SMALL
USER_CHARGES


@<TRIPOS>ATOM
      1 CA         -3.2783  -16.2924  -46.9541 C.3       0 UNK        -0.1800 
      2 C          -2.8326  -15.1628  -47.8687 C.2       0 UNK         0.5000 
      3 O          -3.6173  -14.2634  -48.1671 O.2       0 UNK        -0.5000 
      4 N          -1.5642  -15.1963  -48.2935 N.am      1 UNK        -0.5000 
      5 CA         -0.9504  -14.2116  -49.1994 C.3       1 UNK         0.1400 
      6 C6          0.0654  -14.8773  -50.1595 C.3       23 UNK        -0.0398 
      7 S7         -0.7876  -15.9708  -51.3455 S.3       23 UNK        -0.2404 
      8 C8         -0.2669  -17.6201  -50.7882 C.3       23 UNK        -0.0205 
      9 C9          1.1331  -17.9635  -51.2692 C.ar      23 UNK        -0.0193 
     10 C10         1.3499  -18.2625  -52.6180 C.ar      23 UNK        -0.1150 
     11 C11         2.6265  -18.5993  -53.0730 C.ar      23 UNK        -0.0193 
     12 C12         3.6890  -18.6422  -52.1663 C.ar      23 UNK        -0.1150 
     13 C13         3.4855  -18.3495  -50.8149 C.ar      23 UNK        -0.0193 
     14 C14         2.2041  -18.0049  -50.3716 C.ar      23 UNK        -0.1150 
     15 C15         4.6612  -18.3855  -49.8491 C.3       23 UNK        -0.0205 
     16 S16         5.0550  -20.0795  -49.3051 S.3       23 UNK        -0.2404 
     17 C17         3.7593  -20.3559  -48.0505 C.3       23 UNK        -0.0398 
     18 CA          3.1708  -21.7878  -47.9864 C.3       11 UNK         0.1400 
     19 N           2.2142  -21.8787  -46.8775 N.am      11 UNK        -0.5000 
     20 C           1.5378  -22.9716  -46.4980 C.2       10 UNK         0.5000 
     21 O           1.7595  -24.1004  -46.9361 O.2       10 UNK        -0.5000 
     22 CA          0.3864  -22.7704  -45.4931 C.3       10 UNK         0.1400 
     23 CB          0.8174  -23.1929  -44.0816 C.3       10 UNK        -0.1800 
     24 N          -0.1703  -21.4134  -45.4395 N.am      10 UNK        -0.5000 
     25 C          -0.7328  -20.7449  -46.4596 C.2       9 UNK         0.5000 
     26 O          -0.7297  -21.1354  -47.6270 O.2       9 UNK        -0.5000 
     27 CA         -1.3682  -19.3902  -46.1203 C.3       9 UNK         0.1400 
     28 CB         -2.6065  -19.5690  -45.2277 C.3       9 UNK        -0.1800 
     29 N          -0.3913  -18.5493  -45.4392 N.am      9 UNK        -0.5000 
     30 C           0.3664  -17.6227  -46.0391 C.2       8 UNK         0.5000 
     31 O           0.1953  -17.2424  -47.1979 O.2       8 UNK        -0.5000 
     32 CA          1.5021  -16.9962  -45.2076 C.3       8 UNK         0.1400 
     33 CB          1.1317  -15.5645  -44.7985 C.3       8 UNK        -0.1800 
     34 N           1.8489  -17.7668  -44.0105 N.am      8 UNK        -0.5000 
     35 C           2.4712  -18.9557  -44.0302 C.2       7 UNK         0.5000 
     36 O           2.8075  -19.5283  -45.0650 O.2       7 UNK        -0.5000 
     37 CA          2.7063  -19.6524  -42.6761 C.3       7 UNK         0.1400 
     38 CB          4.0588  -19.2282  -42.0855 C.3       7 UNK        -0.1800 
     39 N           1.6539  -19.3952  -41.6923 N.am      7 UNK        -0.5000 
     40 C           0.3481  -19.6529  -41.8550 C.2       6 UNK         0.5000 
     41 O          -0.1212  -20.1953  -42.8561 O.2       6 UNK        -0.5000 
     42 CA         -0.5981  -19.1643  -40.7406 C.3       6 UNK         0.1400 
     43 CB         -0.9028  -20.3061  -39.7603 C.3       6 UNK        -0.1800 
     44 N          -0.0905  -18.0051  -39.9939 N.am      6 UNK        -0.5000 
     45 C           0.1932  -16.8125  -40.5345 C.2       5 UNK         0.5000 
     46 O           0.0771  -16.5618  -41.7390 O.2       5 UNK        -0.5000 
     47 CA          0.7410  -15.7370  -39.5866 C.3       5 UNK         0.1400 
     48 CB          2.2204  -15.9956  -39.2505 C.3       5 UNK        -0.1800 
     49 N           0.6050  -14.4579  -40.2655 N.am      5 UNK        -0.5000 
     50 C           0.5042  -13.2491  -39.7059 C.2       4 UNK         0.5000 
     51 O           0.6060  -13.0399  -38.4966 O.2       4 UNK        -0.5000 
     52 CA          0.2237  -12.0770  -40.6689 C.3       4 UNK         0.1400 
     53 CB          1.5302  -11.3566  -41.0362 C.3       4 UNK        -0.1800 
     54 N          -0.4414  -12.5087  -41.9026 N.am      4 UNK        -0.5000 
     55 C          -1.7202  -12.9042  -41.9859 C.2       3 UNK         0.5000 
     56 O          -2.4976  -12.8794  -41.0306 O.2       3 UNK        -0.5000 
     57 CA         -2.1966  -13.4595  -43.3468 C.3       3 UNK         0.1400 
     58 CB         -3.6772  -13.1386  -43.6386 C.3       3 UNK        -0.1800 
     59 N          -1.3464  -13.0918  -44.4880 N.am      3 UNK        -0.5000 
     60 C          -1.1376  -11.8639  -44.9936 C.2       2 UNK         0.5000 
     61 O          -1.6092  -10.8293  -44.5235 O.2       2 UNK        -0.5000 
     62 CA         -0.2697  -11.7958  -46.2580 C.3       2 UNK         0.1400 
     63 CB          1.2285  -11.7643  -45.9026 C.3       2 UNK        -0.1800 
     64 N          -0.5888  -12.9258  -47.1302 N.am      2 UNK        -0.5000 
     65 C          -0.3430  -13.0062  -48.4424 C.2       1 UNK         0.5000 
     66 O           0.3047  -12.1605  -49.0611 O.2       1 UNK        -0.5000 
     67 C           2.5543  -22.2448  -49.3337 C.2       11 UNK         0.5000 
     68 O           3.2469  -22.8808  -50.1299 O.2       11 UNK        -0.5000 
     69 N           1.2596  -21.9647  -49.5355 N.am      12 UNK        -0.5000 
     70 CA          0.4697  -22.4548  -50.6583 C.3       12 UNK         0.1400 
     71 CB         -0.4724  -21.3437  -51.1355 C.3       12 UNK        -0.1800 
     72 C          -0.3199  -23.7077  -50.2523 C.2       12 UNK         0.5000 
     73 O          -0.1061  -24.7727  -50.8326 O.2       12 UNK        -0.5000 
     74 N          -1.2164  -23.5637  -49.2672 N.am      13 UNK        -0.5000 
     75 CA         -2.1067  -24.6162  -48.7858 C.3       13 UNK         0.1400 
     76 CB         -3.2087  -24.9061  -49.8220 C.3       13 UNK        -0.1800 
     77 C          -2.7397  -24.1858  -47.4589 C.2       13 UNK         0.5000 
     78 O          -3.0179  -22.9993  -47.2682 O.2       13 UNK        -0.5000 
     79 N          -2.9876  -25.1631  -46.5777 N.am      14 UNK        -0.5000 
     80 CA         -3.6336  -24.9797  -45.2766 C.3       14 UNK         0.1400 
     81 CB         -3.7317  -26.3376  -44.5662 C.3       14 UNK        -0.1800 
     82 C          -5.0251  -24.3304  -45.3998 C.2       14 UNK         0.5000 
     83 O          -5.7771  -24.6617  -46.3194 O.2       14 UNK        -0.5000 
     84 N          -5.3142  -23.3875  -44.4923 N.am      15 UNK        -0.5000 
     85 CA         -6.5228  -22.5517  -44.4420 C.3       15 UNK         0.1400 
     86 CB         -7.7710  -23.4129  -44.1545 C.3       15 UNK        -0.1800 
     87 C          -6.7108  -21.6369  -45.6757 C.2       15 UNK         0.5000 
     88 O          -7.8187  -21.1492  -45.9031 O.2       15 UNK        -0.5000 
     89 N          -5.6297  -21.4211  -46.4446 N.am      16 UNK        -0.5000 
     90 CA         -5.5499  -20.6378  -47.6831 C.3       16 UNK         0.1400 
     91 CB         -5.8684  -19.1505  -47.4150 C.3       16 UNK        -0.1800 
     92 C          -6.3890  -21.2333  -48.8346 C.2       16 UNK         0.5000 
     93 O          -6.7794  -20.5034  -49.7472 O.2       16 UNK        -0.5000 
     94 N          -6.6360  -22.5521  -48.7842 N.am      17 UNK        -0.5000 
     95 CA         -7.5464  -23.2949  -49.6632 C.3       17 UNK         0.1400 
     96 CB         -7.6162  -24.7504  -49.1767 C.3       17 UNK        -0.1800 
     97 C          -7.2049  -23.2503  -51.1663 C.2       17 UNK         0.5000 
     98 O          -8.0953  -23.4560  -51.9922 O.2       17 UNK        -0.5000 
     99 N          -5.9371  -22.9801  -51.4929 N.am      18 UNK        -0.5000 
    100 CA        -5.4262  -22.8464  -52.8544 C.3       18 UNK         0.1400 
    101 CB        -4.8645  -24.2001  -53.3288 C.3       18 UNK        -0.1800 
    102 C         -4.3899  -21.7124  -52.9285 C.2       18 UNK         0.5000 
    103 O         -3.4345  -21.8141  -53.6998 O.2       18 UNK        -0.5000 
    104 N         -4.5752  -20.6549  -52.1207 N.am      19 UNK        -0.5000 
    105 CA        -3.6414  -19.5297  -51.9959 C.3       19 UNK         0.1400 
    106 CB        -4.1149  -18.5668  -50.8983 C.3       19 UNK        -0.1800 
    107 C         -3.3746  -18.7878  -53.3165 C.2       19 UNK         0.5000 
    108 O         -2.2169  -18.5442  -53.6552 O.2       19 UNK        -0.5000 
    109 N         -4.4462  -18.5106  -54.0704 N.am      20 UNK        -0.5000 
    110 CA        -4.3926  -17.8536  -55.3798 C.3       20 UNK         0.1400 
    111 CB        -5.8201  -17.4713  -55.8005 C.3       20 UNK        -0.1800 
    112 C         -3.7177  -18.7030  -56.4773 C.2       20 UNK         0.5000 
    113 O         -3.2423  -18.1440  -57.4664 O.2       20 UNK        -0.5000 
    114 N         -3.6892  -20.0280  -56.2858 N.am      21 UNK        -0.5000 
    115 CA        -3.0794  -20.9971  -57.1946 C.3       21 UNK         0.1400 
    116 CB        -3.9757  -22.2458  -57.2381 C.3       21 UNK        -0.1800 
    117 C         -1.6436  -21.3786  -56.7830 C.2       21 UNK         0.5000 
    118 O         -0.9902  -22.1071  -57.5311 O.2       21 UNK        -0.5000 
    119 N         -1.1788  -20.9086  -55.6145 N.am      22 UNK        -0.5000 
    120 CA         0.0848  -21.3153  -54.9753 C.3       22 UNK         0.1400 
    121 C          0.0750  -22.8017  -54.4898 C.2       22 UNK         0.5000 
    122 N         -1.0721  -23.3466  -54.1012 N.am      22 UNK        -0.7600 
    123 O          1.1019  -23.4733  -54.4540 O.2       22 UNK        -0.5000 
    124 C124        1.3269  -20.9286  -55.8298 C.3       23 UNK        -0.0398 
    125 S125        2.8558  -20.6961  -54.8561 S.3       23 UNK        -0.2404 
    126 C126        2.8685  -18.9031  -54.5426 C.3       23 UNK        -0.0205 
    127 H127       -4.2189  -16.0449  -46.4618 H         1 UNK         0.0600 
    128 H128       -2.5331  -16.4797  -46.1816 H         1 UNK         0.0600 
    129 H129       -3.4234  -17.2057  -47.5305 H         1 UNK         0.0600 
    130 H130       -0.9563  -15.9576  -47.9981 H         1 UNK         0.3000 
    131 H131       -1.7357  -13.7779  -49.8225 H         1 UNK         0.0600 
    132 H132        0.8247  -15.4287  -49.6029 H         1 UNK         0.0800 
    133 H133        0.6003  -14.1308  -50.7489 H         1 UNK         0.0800 
    134 H134       -0.9640  -18.3540  -51.1886 H         1 UNK         0.0800 
    135 H135       -0.3448  -17.6929  -49.7036 H         1 UNK         0.0800 
    136 H136        0.5205  -18.2301  -53.3113 H         1 UNK         0.1150 
    137 H137        4.6783  -18.9065  -52.5133 H         1 UNK         0.1150 
    138 H138        2.0369  -17.7700  -49.3297 H         1 UNK         0.1150 
    139 H139        5.5404  -17.9635  -50.3383 H         1 UNK         0.0800 
    140 H140        4.4685  -17.7537  -48.9805 H         1 UNK         0.0800 
    141 H141        2.9536  -19.6341  -48.1845 H         1 UNK         0.0800 
    142 H142        4.2176  -20.1142  -47.0918 H         1 UNK         0.0800 
    143 H143        3.9865  -22.4767  -47.7579 H         1 UNK         0.0600 
    144 H144        2.0164  -21.0105  -46.3940 H         1 UNK         0.3000 
    145 H145       -0.4224  -23.4321  -45.8054 H         1 UNK         0.0600 
    146 H146       -0.0130  -23.1284  -43.3781 H         1 UNK         0.0600 
    147 H147        1.1718  -24.2244  -44.0722 H         1 UNK         0.0600 
    148 H148        1.6247  -22.5655  -43.7063 H         1 UNK         0.0600 
    149 H149       -0.1999  -20.9915  -44.5142 H         1 UNK         0.3000 
    150 H150       -1.6884  -18.9278  -47.0561 H         1 UNK         0.0600 
    151 H151       -3.3260  -20.2336  -45.7013 H         1 UNK         0.0600 
    152 H152       -3.1073  -18.6181  -45.0490 H         1 UNK         0.0600 
    153 H153       -2.3593  -19.9995  -44.2576 H         1 UNK         0.0600 
    154 H154       -0.1746  -18.8012  -44.4831 H         1 UNK         0.3000 
    155 H155        2.3846  -16.9495  -45.8492 H         1 UNK         0.0600 
    156 H156        1.9378  -15.0909  -44.2377 H         1 UNK         0.0600 
    157 H157        0.2340  -15.5459  -44.1811 H         1 UNK         0.0600 
    158 H158        0.9451  -14.9532  -45.6813 H         1 UNK         0.0600 
    159 H159        1.5379  -17.3871  -43.1242 H         1 UNK         0.3000 
    160 H160        2.7366  -20.7272  -42.8576 H         1 UNK         0.0600 
    161 H161        4.0788  -18.1636  -41.8486 H         1 UNK         0.0600 
    162 H162        4.8705  -19.4241  -42.7876 H         1 UNK         0.0600 
    163 H163        4.2815  -19.7801  -41.1721 H         1 UNK         0.0600 
    164 H164        1.9406  -18.9462  -40.8356 H         1 UNK         0.3000 
    165 H165       -1.5326  -18.8660  -41.2203 H         1 UNK         0.0600 
    166 H166       -1.6453  -20.0046  -39.0213 H         1 UNK         0.0600 
    167 H167       -1.3033  -21.1750  -40.2848 H         1 UNK         0.0600 
    168 H168       -0.0078  -20.6284  -39.2267 H         1 UNK         0.0600 
    169 H169        0.0398  -18.1353  -39.0007 H         1 UNK         0.3000 
    170 H170        0.1414  -15.7335  -38.6741 H         1 UNK         0.0600 
    171 H171        2.3476  -16.9494  -38.7375 H         1 UNK         0.0600 
    172 H172        2.8381  -16.0190  -40.1493 H         1 UNK         0.0600 
    173 H173        2.6172  -15.2213  -38.5937 H         1 UNK         0.0600 
    174 H174        0.4602  -14.5509  -41.2628 H         1 UNK         0.3000 
    175 H175       -0.4270  -11.3685  -40.1520 H         1 UNK         0.0600 
    176 H176        2.2200  -12.0165  -41.5638 H         1 UNK         0.0600 
    177 H177        1.3385  -10.4922  -41.6723 H         1 UNK         0.0600 
    178 H178        2.0406  -10.9948  -40.1426 H         1 UNK         0.0600 
    179 H179        0.1258  -12.5425  -42.7358 H         1 UNK         0.3000 
    180 H180       -2.1164  -14.5442  -43.2572 H         1 UNK         0.0600 
    181 H181       -3.9916  -13.5619  -44.5928 H         1 UNK         0.0600 
    182 H182       -3.8607  -12.0644  -43.6706 H         1 UNK         0.0600 
    183 H183       -4.3286  -13.5572  -42.8706 H         1 UNK         0.0600 
    184 H184       -0.8519  -13.8614  -44.9113 H         1 UNK         0.3000 
    185 H185       -0.5258  -10.8722  -46.7817 H         1 UNK         0.0600 
    186 H186        1.4548  -10.9169  -45.2542 H         1 UNK         0.0600 
    187 H187        1.5443  -12.6669  -45.3809 H         1 UNK         0.0600 
    188 H188        1.8472  -11.6606  -46.7938 H         1 UNK         0.0600 
    189 H189       -1.2133  -13.6191  -46.7458 H         1 UNK         0.3000 
    190 H190        0.7337  -21.5097  -48.7949 H         1 UNK         0.3000 
    191 H191        1.1176  -22.7226  -51.4958 H         1 UNK         0.0600 
    192 H192       -1.1920  -21.7239  -51.8599 H         1 UNK         0.0600 
    193 H193        0.0900  -20.5514  -51.6232 H         1 UNK         0.0600 
    194 H194       -1.0331  -20.9019  -50.3116 H         1 UNK         0.0600 
    195 H195       -1.3014  -22.6747  -48.7790 H         1 UNK         0.3000 
    196 H196       -1.5186  -25.5202  -48.6146 H         1 UNK         0.0600 
    197 H197       -3.7574  -24.0001  -50.0757 H         1 UNK         0.0600 
    198 H198       -2.7947  -25.3173  -50.7422 H         1 UNK         0.0600 
    199 H199       -3.9288  -25.6318  -49.4417 H         1 UNK         0.0600 
    200 H200       -2.7685  -26.1151  -46.8317 H         1 UNK         0.3000 
    201 H201       -2.9907  -24.3247  -44.6847 H         1 UNK         0.0600 
    202 H202       -4.3388  -27.0443  -45.1336 H         1 UNK         0.0600 
    203 H203       -4.1872  -26.2314  -43.5807 H         1 UNK         0.0600 
    204 H204       -2.7462  -26.7806  -44.4213 H         1 UNK         0.0600 
    205 H205       -4.6259  -23.1836  -43.7807 H         1 UNK         0.3000 
    206 H206       -6.3874  -21.8793  -43.5938 H         1 UNK         0.0600 
    207 H207       -7.6189  -24.0499  -43.2833 H         1 UNK         0.0600 
    208 H208       -8.6401  -22.7873  -43.9481 H         1 UNK         0.0600 
    209 H209       -8.0257  -24.0539  -44.9990 H         1 UNK         0.0600 
    210 H210       -4.7792  -21.9150  -46.2045 H         1 UNK         0.3000 
    211 H211       -4.5107  -20.6977  -48.0096 H         1 UNK         0.0600 
    212 H212       -5.6650  -18.5347  -48.2905 H         1 UNK         0.0600 
    213 H213       -5.2654  -18.7579  -46.5969 H         1 UNK         0.0600 
    214 H214       -6.9169  -19.0002  -47.1577 H         1 UNK         0.0600 
    215 H215       -6.2635  -23.0717  -47.9988 H         1 UNK         0.3000 
    216 H216       -8.5371  -22.8506  -49.5495 H         1 UNK         0.0600 
    217 H217       -6.6384  -25.2324  -49.2140 H         1 UNK         0.0600 
    218 H218       -8.2984  -25.3399  -49.7907 H         1 UNK         0.0600 
    219 H219       -7.9766  -24.8056  -48.1491 H         1 UNK         0.0600 
    220 H220       -5.2775  -22.8116  -50.7476 H         1 UNK         0.3000 
    221 H221       -6.2364  -22.5559  -53.5261 H         1 UNK         0.0600 
    222 H222       -5.6158  -24.9866  -53.2570 H         1 UNK         0.0600 
    223 H223       -4.0018  -24.5055  -52.7368 H         1 UNK         0.0600 
    224 H224       -4.5472  -24.1534  -54.3706 H         1 UNK         0.0600 
    225 H225       -5.4011  -20.6263  -51.5345 H         1 UNK         0.3000 
    226 H226       -2.6879  -19.9404  -51.6742 H         1 UNK         0.0600 
    227 H227       -5.1408  -18.2356  -51.0631 H         1 UNK         0.0600 
    228 H228       -4.0648  -19.0456  -49.9217 H         1 UNK         0.0600 
    229 H229       -3.4845  -17.6777  -50.8506 H         1 UNK         0.0600 
    230 H230       -5.3601  -18.7661  -53.7255 H         1 UNK         0.3000 
    231 H231       -3.8095  -16.9364  -55.2732 H         1 UNK         0.0600 
    232 H232       -6.4577  -18.3502  -55.9049 H         1 UNK         0.0600 
    233 H233       -5.8194  -16.9507  -56.7592 H         1 UNK         0.0600 
    234 H234       -6.2817  -16.8048  -55.0716 H         1 UNK         0.0600 
    235 H235       -4.0600  -20.4014  -55.4229 H         1 UNK         0.3000 
    236 H236       -3.0296  -20.5827  -58.2036 H         1 UNK         0.0600 
    237 H237       -4.9879  -21.9946  -57.5552 H         1 UNK         0.0600 
    238 H238       -3.5890  -22.9825  -57.9434 H         1 UNK         0.0600 
    239 H239       -4.0390  -22.7284  -56.2629 H         1 UNK         0.0600 
    240 H240       -1.7818  -20.3174  -55.0574 H         1 UNK         0.3000 
    241 H241        0.1290  -20.7231  -54.0616 H         1 UNK         0.0600 
    242 H242       -1.0790  -24.3024  -53.7852 H         1 UNK         0.3800 
    243 H243       -1.9295  -22.7990  -54.0843 H         1 UNK         0.3800 
    244 H244        1.1303  -20.0125  -56.3875 H         1 UNK         0.0800 
    245 H245        1.5181  -21.6893  -56.5881 H         1 UNK         0.0800 
    246 H246        3.8390  -18.5037  -54.8409 H         1 UNK         0.0800 
    247 H247        2.1316  -18.3894  -55.1610 H         1 UNK         0.0800 
@<TRIPOS>BOND
     1    1    2 1    
     2    1  127 1    
     3    1  128 1    
     4    1  129 1    
     5    2    3 2    
     6    2    4 am   BACKBONE|DICT|INTERRES
     7    4    5 1    
     8    4  130 1    
     9    5    6 1    
    10    5   65 1    
    11    5  131 1    
    12    6    7 1    
    13    6  132 1    
    14    6  133 1    
    15    7    8 1    
    16    8    9 1    
    17    8  134 1    
    18    8  135 1    
    19    9   10 ar   
    20    9   14 ar   
    21   10   11 ar   
    22   10  136 1    
    23   11   12 ar   
    24   11  126 1    
    25   12   13 ar   
    26   12  137 1    
    27   13   14 ar   
    28   13   15 1    
    29   14  138 1    
    30   15   16 1    
    31   15  139 1    
    32   15  140 1    
    33   16   17 1    
    34   17   18 1    
    35   17  141 1    
    36   17  142 1    
    37   18   19 1    
    38   18   67 1    
    39   18  143 1    
    40   19   20 am   BACKBONE|DICT|INTERRES
    41   19  144 1    
    42   20   21 2    
    43   20   22 1    
    44   22   23 1    
    45   22   24 1    
    46   22  145 1    
    47   23  146 1    
    48   23  147 1    
    49   23  148 1    
    50   24   25 am   BACKBONE|DICT|INTERRES
    51   24  149 1    
    52   25   26 2    
    53   25   27 1    
    54   27   28 1    
    55   27   29 1    
    56   27  150 1    
    57   28  151 1    
    58   28  152 1    
    59   28  153 1    
    60   29   30 am   BACKBONE|DICT|INTERRES
    61   29  154 1    
    62   30   31 2    
    63   30   32 1    
    64   32   33 1    
    65   32   34 1    
    66   32  155 1    
    67   33  156 1    
    68   33  157 1    
    69   33  158 1    
    70   34   35 am   BACKBONE|DICT|INTERRES
    71   34  159 1    
    72   35   36 2    
    73   35   37 1    
    74   37   38 1    
    75   37   39 1    
    76   37  160 1    
    77   38  161 1    
    78   38  162 1    
    79   38  163 1    
    80   39   40 am   BACKBONE|DICT|INTERRES
    81   39  164 1    
    82   40   41 2    
    83   40   42 1    
    84   42   43 1    
    85   42   44 1    
    86   42  165 1    
    87   43  166 1    
    88   43  167 1    
    89   43  168 1    
    90   44   45 am   BACKBONE|DICT|INTERRES
    91   44  169 1    
    92   45   46 2    
    93   45   47 1    
    94   47   48 1    
    95   47   49 1    
    96   47  170 1    
    97   48  171 1    
    98   48  172 1    
    99   48  173 1    
   100   49   50 am   BACKBONE|DICT|INTERRES
   101   49  174 1    
   102   50   51 2    
   103   50   52 1    
   104   52   53 1    
   105   52   54 1    
   106   52  175 1    
   107   53  176 1    
   108   53  177 1    
   109   53  178 1    
   110   54   55 am   BACKBONE|DICT|INTERRES
   111   54  179 1    
   112   55   56 2    
   113   55   57 1    
   114   57   58 1    
   115   57   59 1    
   116   57  180 1    
   117   58  181 1    
   118   58  182 1    
   119   58  183 1    
   120   59   60 am   BACKBONE|DICT|INTERRES
   121   59  184 1    
   122   60   61 2    
   123   60   62 1    
   124   62   63 1    
   125   62   64 1    
   126   62  185 1    
   127   63  186 1    
   128   63  187 1    
   129   63  188 1    
   130   64   65 am   BACKBONE|DICT|INTERRES
   131   64  189 1    
   132   65   66 2    
   133   67   68 2    
   134   67   69 am   BACKBONE|DICT|INTERRES
   135   69   70 1    
   136   69  190 1    
   137   70   71 1    
   138   70   72 1    
   139   70  191 1    
   140   71  192 1    
   141   71  193 1    
   142   71  194 1    
   143   72   73 2    
   144   72   74 am   BACKBONE|DICT|INTERRES
   145   74   75 1    
   146   74  195 1    
   147   75   76 1    
   148   75   77 1    
   149   75  196 1    
   150   76  197 1    
   151   76  198 1    
   152   76  199 1    
   153   77   78 2    
   154   77   79 am   BACKBONE|DICT|INTERRES
   155   79   80 1    
   156   79  200 1    
   157   80   81 1    
   158   80   82 1    
   159   80  201 1    
   160   81  202 1    
   161   81  203 1    
   162   81  204 1    
   163   82   83 2    
   164   82   84 am   BACKBONE|DICT|INTERRES
   165   84   85 1    
   166   84  205 1    
   167   85   86 1    
   168   85   87 1    
   169   85  206 1    
   170   86  207 1    
   171   86  208 1    
   172   86  209 1    
   173   87   88 2    
   174   87   89 am   BACKBONE|DICT|INTERRES
   175   89   90 1    
   176   89  210 1    
   177   90   91 1    
   178   90   92 1    
   179   90  211 1    
   180   91  212 1    
   181   91  213 1    
   182   91  214 1    
   183   92   93 2    
   184   92   94 am   BACKBONE|DICT|INTERRES
   185   94   95 1    
   186   94  215 1    
   187   95   96 1    
   188   95   97 1    
   189   95  216 1    
   190   96  217 1    
   191   96  218 1    
   192   96  219 1    
   193   97   98 2    
   194   97   99 am   BACKBONE|DICT|INTERRES
   195   99  100 1    
   196   99  220 1    
   197  100  101 1    
   198  100  102 1    
   199  100  221 1    
   200  101  222 1    
   201  101  223 1    
   202  101  224 1    
   203  102  103 2    
   204  102  104 am   BACKBONE|DICT|INTERRES
   205  104  105 1    
   206  104  225 1    
   207  105  106 1    
   208  105  107 1    
   209  105  226 1    
   210  106  227 1    
   211  106  228 1    
   212  106  229 1    
   213  107  108 2    
   214  107  109 am   BACKBONE|DICT|INTERRES
   215  109  110 1    
   216  109  230 1    
   217  110  111 1    
   218  110  112 1    
   219  110  231 1    
   220  111  232 1    
   221  111  233 1    
   222  111  234 1    
   223  112  113 2    
   224  112  114 am   BACKBONE|DICT|INTERRES
   225  114  115 1    
   226  114  235 1    
   227  115  116 1    
   228  115  117 1    
   229  115  236 1    
   230  116  237 1    
   231  116  238 1    
   232  116  239 1    
   233  117  118 2    
   234  117  119 am   BACKBONE|DICT|INTERRES
   235  119  120 1    
   236  119  240 1    
   237  120  121 1    
   238  120  124 1    
   239  120  241 1    
   240  121  122 am   BACKBONE|DICT|INTERRES
   241  121  123 2    
   242  122  242 1    
   243  122  243 1    
   244  124  125 1    
   245  124  244 1    
   246  124  245 1    
   247  125  126 1    
   248  126  246 1    
   249  126  247 1    
@<TRIPOS>SUBSTRUCTURE
     1 UNK         1 GROUP             0       ****    0 ROOT    
