@<TRIPOS>MOLECULE
3R540
247   249    1
SMALL
USER_CHARGES


@<TRIPOS>ATOM
      1 CA          1.6844   -5.8737  -46.6037 C.3       0 UNK        -0.1800 
      2 C           1.0911   -7.1470  -47.1905 C.2       0 UNK         0.5000 
      3 O           0.1245   -7.0784  -47.9503 O.2       0 UNK        -0.5000 
      4 N           1.6593   -8.3059  -46.8352 N.am      1 UNK        -0.5000 
      5 CA          1.2740   -9.6216  -47.3524 C.3       1 UNK         0.1400 
      6 C6          1.8477  -10.7548  -46.4658 C.3       23 UNK        -0.0398 
      7 S7          1.0132  -12.3555  -46.7297 S.3       23 UNK        -0.2404 
      8 C8         -0.1540  -12.3826  -45.3346 C.3       23 UNK        -0.0205 
      9 C9         -0.9885  -13.6548  -45.3301 C.ar      23 UNK        -0.0193 
     10 C10        -2.3263  -13.6325  -45.7384 C.ar      23 UNK        -0.1150 
     11 C11        -3.0978  -14.7990  -45.7061 C.ar      23 UNK        -0.0193 
     12 C12        -2.5190  -15.9935  -45.2681 C.ar      23 UNK        -0.1150 
     13 C13        -1.1796  -16.0318  -44.8693 C.ar      23 UNK        -0.0193 
     14 C14        -0.4242  -14.8564  -44.8932 C.ar      23 UNK        -0.1150 
     15 C15        -0.5536  -17.3311  -44.3856 C.3       23 UNK        -0.0205 
     16 S16        -0.6242  -18.6392  -45.6516 S.3       23 UNK        -0.2404 
     17 C17        -1.8187  -19.7915  -44.8890 C.3       23 UNK        -0.0398 
     18 CA         -1.7736  -21.2062  -45.5121 C.3       11 UNK         0.1400 
     19 N          -0.4361  -21.8085  -45.4520 N.am      11 UNK        -0.5000 
     20 C          -0.0983  -22.9617  -46.0452 C.2       10 UNK         0.5000 
     21 O          -0.8664  -23.6143  -46.7503 O.2       10 UNK        -0.5000 
     22 CA          1.3054  -23.5116  -45.7487 C.3       10 UNK         0.1400 
     23 CB          2.3627  -22.8611  -46.6509 C.3       10 UNK        -0.1800 
     24 N           1.6645  -23.3208  -44.3439 N.am      10 UNK        -0.5000 
     25 C           1.1984  -24.0818  -43.3433 C.2       9 UNK         0.5000 
     26 O           0.4598  -25.0513  -43.5124 O.2       9 UNK        -0.5000 
     27 CA          1.6019  -23.6840  -41.9102 C.3       9 UNK         0.1400 
     28 CB          2.9214  -24.3638  -41.5152 C.3       9 UNK        -0.1800 
     29 N           1.7323  -22.2383  -41.7246 N.am      9 UNK        -0.5000 
     30 C           0.7202  -21.3644  -41.8126 C.2       8 UNK         0.5000 
     31 O          -0.4444  -21.6867  -42.0379 O.2       8 UNK        -0.5000 
     32 CA          1.0761  -19.8726  -41.6847 C.3       8 UNK         0.1400 
     33 CB          1.0201  -19.4270  -40.2165 C.3       8 UNK        -0.1800 
     34 N           2.3808  -19.5197  -42.2514 N.am      8 UNK        -0.5000 
     35 C           2.7409  -19.7223  -43.5251 C.2       7 UNK         0.5000 
     36 O           2.0370  -20.3054  -44.3527 O.2       7 UNK        -0.5000 
     37 CA          4.1224  -19.1965  -43.9440 C.3       7 UNK         0.1400 
     38 CB          5.0092  -20.3409  -44.4593 C.3       7 UNK        -0.1800 
     39 N           3.9728  -18.1964  -44.9940 N.am      7 UNK        -0.5000 
     40 C           3.4696  -16.9683  -44.8284 C.2       6 UNK         0.5000 
     41 O           3.2004  -16.4867  -43.7275 O.2       6 UNK        -0.5000 
     42 CA          3.1854  -16.1462  -46.0997 C.3       6 UNK         0.1400 
     43 CB          4.4456  -15.4132  -46.5957 C.3       6 UNK        -0.1800 
     44 N           2.5392  -16.9095  -47.1754 N.am      6 UNK        -0.5000 
     45 C           3.0345  -17.8930  -47.9430 C.2       5 UNK         0.5000 
     46 O           4.1738  -18.3461  -47.8276 O.2       5 UNK        -0.5000 
     47 CA          2.0944  -18.4928  -49.0090 C.3       5 UNK         0.1400 
     48 CB          1.6719  -19.9160  -48.6143 C.3       5 UNK        -0.1800 
     49 N           0.8947  -17.6865  -49.2505 N.am      5 UNK        -0.5000 
     50 C           0.8897  -16.5216  -49.9123 C.2       4 UNK         0.5000 
     51 O           1.9048  -16.0017  -50.3831 O.2       4 UNK        -0.5000 
     52 CA         -0.4712  -15.8020  -49.9950 C.3       4 UNK         0.1400 
     53 CB         -0.7975  -15.1652  -48.6378 C.3       4 UNK        -0.1800 
     54 N          -0.5046  -14.7492  -51.0054 N.am      4 UNK        -0.5000 
     55 C          -0.3465  -14.8941  -52.3252 C.2       3 UNK         0.5000 
     56 O          -0.2084  -15.9833  -52.8837 O.2       3 UNK        -0.5000 
     57 CA         -0.3126  -13.6024  -53.1716 C.3       3 UNK         0.1400 
     58 CB         -1.7298  -13.2019  -53.6251 C.3       3 UNK        -0.1800 
     59 N           0.3961  -12.4661  -52.5543 N.am      3 UNK        -0.5000 
     60 C           0.0662  -11.7558  -51.4663 C.2       2 UNK         0.5000 
     61 O          -0.9383  -11.9657  -50.7803 O.2       2 UNK        -0.5000 
     62 CA          1.0292  -10.6298  -51.0662 C.3       2 UNK         0.1400 
     63 CB          0.7851   -9.3637  -51.9068 C.3       2 UNK        -0.1800 
     64 N           0.8226  -10.3385  -49.6523 N.am      2 UNK        -0.5000 
     65 C           1.7060   -9.7693  -48.8286 C.2       1 UNK         0.5000 
     66 O           2.8236   -9.3828  -49.1816 O.2       1 UNK        -0.5000 
     67 C          -2.8359  -22.1253  -44.8646 C.2       11 UNK         0.5000 
     68 O          -3.9137  -22.3126  -45.4302 O.2       11 UNK        -0.5000 
     69 N          -2.4916  -22.7281  -43.7165 N.am      12 UNK        -0.5000 
     70 CA         -3.3138  -23.7023  -42.9961 C.3       12 UNK         0.1400 
     71 CB         -2.6936  -23.9739  -41.6176 C.3       12 UNK        -0.1800 
     72 C          -3.5216  -25.0251  -43.7580 C.2       12 UNK         0.5000 
     73 O          -4.5515  -25.6726  -43.5637 O.2       12 UNK        -0.5000 
     74 N          -2.5780  -25.3946  -44.6361 N.am      13 UNK        -0.5000 
     75 CA         -2.6410  -26.5671  -45.5131 C.3       13 UNK         0.1400 
     76 CB         -1.2136  -26.9789  -45.9159 C.3       13 UNK        -0.1800 
     77 C          -3.5586  -26.3214  -46.7303 C.2       13 UNK         0.5000 
     78 O          -3.1269  -26.4554  -47.8777 O.2       13 UNK        -0.5000 
     79 N          -4.8130  -25.9443  -46.4449 N.am      14 UNK        -0.5000 
     80 CA         -5.9001  -25.6504  -47.3813 C.3       14 UNK         0.1400 
     81 CB         -6.4002  -26.9552  -48.0362 C.3       14 UNK        -0.1800 
     82 C          -5.5247  -24.5699  -48.4147 C.2       14 UNK         0.5000 
     83 O          -5.7662  -24.7572  -49.6070 O.2       14 UNK        -0.5000 
     84 N          -4.9059  -23.4751  -47.9459 N.am      15 UNK        -0.5000 
     85 CA         -4.3850  -22.3631  -48.7482 C.3       15 UNK         0.1400 
     86 CB         -5.5399  -21.5750  -49.3983 C.3       15 UNK        -0.1800 
     87 C          -3.3189  -22.8230  -49.7625 C.2       15 UNK         0.5000 
     88 O          -3.3895  -22.4659  -50.9410 O.2       15 UNK        -0.5000 
     89 N          -2.3726  -23.6407  -49.2783 N.am      16 UNK        -0.5000 
     90 CA         -1.3200  -24.3327  -50.0259 C.3       16 UNK         0.1400 
     91 CB         -0.2720  -23.3254  -50.5408 C.3       16 UNK        -0.1800 
     92 C          -1.9032  -25.2266  -51.1385 C.2       16 UNK         0.5000 
     93 O          -1.4954  -25.1204  -52.2950 O.2       16 UNK        -0.5000 
     94 N          -2.8957  -26.0511  -50.7709 N.am      17 UNK        -0.5000 
     95 CA         -3.7258  -26.8757  -51.6594 C.3       17 UNK         0.1400 
     96 CB         -2.9053  -28.0478  -52.2357 C.3       17 UNK        -0.1800 
     97 C          -4.4328  -26.0339  -52.7471 C.2       17 UNK         0.5000 
     98 O          -4.4006  -26.3783  -53.9298 O.2       17 UNK        -0.5000 
     99 N          -5.0263  -24.9175  -52.3051 N.am      18 UNK        -0.5000 
    100 CA        -5.7274  -23.8768  -53.0615 C.3       18 UNK         0.1400 
    101 CB        -6.9624  -24.4591  -53.7787 C.3       18 UNK        -0.1800 
    102 C         -4.8447  -23.0376  -54.0117 C.2       18 UNK         0.5000 
    103 O         -5.3882  -22.2088  -54.7437 O.2       18 UNK        -0.5000 
    104 N         -3.5175  -23.2269  -53.9925 N.am      19 UNK        -0.5000 
    105 CA        -2.5807  -22.5101  -54.8594 C.3       19 UNK         0.1400 
    106 CB        -1.2619  -23.2911  -54.9538 C.3       19 UNK        -0.1800 
    107 C         -2.3115  -21.0664  -54.3991 C.2       19 UNK         0.5000 
    108 O         -2.0842  -20.2017  -55.2464 O.2       19 UNK        -0.5000 
    109 N         -2.3256  -20.8278  -53.0804 N.am      20 UNK        -0.5000 
    110 CA        -2.0476  -19.5174  -52.4879 C.3       20 UNK         0.1400 
    111 CB        -1.4012  -19.7162  -51.1105 C.3       20 UNK        -0.1800 
    112 C         -3.3083  -18.6465  -52.3646 C.2       20 UNK         0.5000 
    113 O         -3.1948  -17.4215  -52.3474 O.2       20 UNK        -0.5000 
    114 N         -4.4796  -19.2939  -52.2623 N.am      21 UNK        -0.5000 
    115 CA        -5.8161  -18.6943  -52.1392 C.3       21 UNK         0.1400 
    116 CB        -6.2163  -18.0068  -53.4608 C.3       21 UNK        -0.1800 
    117 C         -5.9886  -17.7703  -50.9084 C.2       21 UNK         0.5000 
    118 O         -6.8083  -16.8509  -50.9382 O.2       21 UNK        -0.5000 
    119 N         -5.2248  -18.0408  -49.8446 N.am      22 UNK        -0.5000 
    120 CA        -5.2355  -17.3233  -48.5684 C.3       22 UNK         0.1400 
    121 C         -5.0009  -18.3431  -47.4271 C.2       22 UNK         0.5000 
    122 N         -5.8386  -18.3555  -46.4001 N.am      22 UNK        -0.7600 
    123 O         -4.0463  -19.1149  -47.4640 O.2       22 UNK        -0.5000 
    124 C124       -4.1757  -16.1856  -48.5453 C.3       23 UNK        -0.0398 
    125 S125       -4.8245  -14.6082  -47.8992 S.3       23 UNK        -0.2404 
    126 C126       -4.5672  -14.7647  -46.1023 C.3       23 UNK        -0.0205 
    127 H127        0.9284   -5.3362  -46.0313 H         1 UNK         0.0600 
    128 H128        2.0365   -5.2213  -47.4028 H         1 UNK         0.0600 
    129 H129        2.5250   -6.0850  -45.9422 H         1 UNK         0.0600 
    130 H130        2.4715   -8.2909  -46.2351 H         1 UNK         0.3000 
    131 H131        0.1838   -9.6749  -47.3038 H         1 UNK         0.0600 
    132 H132        2.9178  -10.8837  -46.6387 H         1 UNK         0.0800 
    133 H133        1.7512  -10.4902  -45.4118 H         1 UNK         0.0800 
    134 H134        0.3978  -12.3096  -44.3962 H         1 UNK         0.0800 
    135 H135       -0.7982  -11.5035  -45.3857 H         1 UNK         0.0800 
    136 H136       -2.7727  -12.7070  -46.0739 H         1 UNK         0.1150 
    137 H137       -3.1106  -16.8975  -45.2380 H         1 UNK         0.1150 
    138 H138        0.6047  -14.8703  -44.5642 H         1 UNK         0.1150 
    139 H139        0.4911  -17.1788  -44.1130 H         1 UNK         0.0800 
    140 H140       -1.0602  -17.6421  -43.4719 H         1 UNK         0.0800 
    141 H141       -2.8159  -19.3615  -44.9951 H         1 UNK         0.0800 
    142 H142       -1.6190  -19.8518  -43.8182 H         1 UNK         0.0800 
    143 H143       -2.0327  -21.1082  -46.5683 H         1 UNK         0.0600 
    144 H144        0.2697  -21.3014  -44.9289 H         1 UNK         0.3000 
    145 H145        1.2956  -24.5818  -45.9672 H         1 UNK         0.0600 
    146 H146        3.3431  -23.3111  -46.4951 H         1 UNK         0.0600 
    147 H147        2.1083  -22.9894  -47.7039 H         1 UNK         0.0600 
    148 H148        2.4534  -21.7925  -46.4609 H         1 UNK         0.0600 
    149 H149        2.1976  -22.4900  -44.1235 H         1 UNK         0.3000 
    150 H150        0.8197  -24.0397  -41.2364 H         1 UNK         0.0600 
    151 H151        2.8493  -25.4471  -41.6216 H         1 UNK         0.0600 
    152 H152        3.1761  -24.1571  -40.4756 H         1 UNK         0.0600 
    153 H153        3.7507  -24.0270  -42.1386 H         1 UNK         0.0600 
    154 H154        2.6592  -21.8820  -41.5446 H         1 UNK         0.3000 
    155 H155        0.3203  -19.3129  -42.2378 H         1 UNK         0.0600 
    156 H156        0.0502  -19.6596  -39.7744 H         1 UNK         0.0600 
    157 H157        1.1669  -18.3507  -40.1250 H         1 UNK         0.0600 
    158 H158        1.7828  -19.9235  -39.6153 H         1 UNK         0.0600 
    159 H159        3.0143  -19.0251  -41.6400 H         1 UNK         0.3000 
    160 H160        4.6153  -18.7355  -43.0857 H         1 UNK         0.0600 
    161 H161        4.5837  -20.8150  -45.3449 H         1 UNK         0.0600 
    162 H162        5.1324  -21.1134  -43.6993 H         1 UNK         0.0600 
    163 H163        6.0039  -19.9796  -44.7210 H         1 UNK         0.0600 
    164 H164        4.1433  -18.5015  -45.9479 H         1 UNK         0.3000 
    165 H165        2.4643  -15.3779  -45.8205 H         1 UNK         0.0600 
    166 H166        4.2221  -14.7914  -47.4628 H         1 UNK         0.0600 
    167 H167        4.8422  -14.7580  -45.8194 H         1 UNK         0.0600 
    168 H168        5.2409  -16.1051  -46.8733 H         1 UNK         0.0600 
    169 H169        1.5743  -16.6641  -47.3405 H         1 UNK         0.3000 
    170 H170        2.6583  -18.5548  -49.9421 H         1 UNK         0.0600 
    171 H171        2.5454  -20.5623  -48.5271 H         1 UNK         0.0600 
    172 H172        1.1506  -19.9358  -47.6570 H         1 UNK         0.0600 
    173 H173        1.0188  -20.3623  -49.3623 H         1 UNK         0.0600 
    174 H174        0.0356  -18.0374  -48.8522 H         1 UNK         0.3000 
    175 H175       -1.2483  -16.5245  -50.2463 H         1 UNK         0.0600 
    176 H176       -0.9065  -15.9206  -47.8594 H         1 UNK         0.0600 
    177 H177       -0.0069  -14.4861  -48.3231 H         1 UNK         0.0600 
    178 H178       -1.7251  -14.5943  -48.6727 H         1 UNK         0.0600 
    179 H179       -0.6364  -13.8009  -50.6667 H         1 UNK         0.3000 
    180 H180        0.2567  -13.8430  -54.0710 H         1 UNK         0.0600 
    181 H181       -2.3789  -12.9688  -52.7807 H         1 UNK         0.0600 
    182 H182       -2.2020  -14.0135  -54.1802 H         1 UNK         0.0600 
    183 H183       -1.7036  -12.3312  -54.2802 H         1 UNK         0.0600 
    184 H184        1.2597  -12.2205  -53.0187 H         1 UNK         0.3000 
    185 H185        2.0524  -10.9811  -51.2156 H         1 UNK         0.0600 
    186 H186        0.9216   -9.5651  -52.9699 H         1 UNK         0.0600 
    187 H187       -0.2279   -8.9828  -51.7710 H         1 UNK         0.0600 
    188 H188        1.4798   -8.5681  -51.6369 H         1 UNK         0.0600 
    189 H189       -0.0599  -10.6846  -49.2942 H         1 UNK         0.3000 
    190 H190       -1.6115  -22.4742  -43.2741 H         1 UNK         0.3000 
    191 H191       -4.2988  -23.2567  -42.8432 H         1 UNK         0.0600 
    192 H192       -1.6883  -24.3869  -41.7050 H         1 UNK         0.0600 
    193 H193       -2.6313  -23.0604  -41.0261 H         1 UNK         0.0600 
    194 H194       -3.2940  -24.6864  -41.0504 H         1 UNK         0.0600 
    195 H195       -1.7710  -24.7971  -44.7525 H         1 UNK         0.3000 
    196 H196       -3.0721  -27.3985  -44.9517 H         1 UNK         0.0600 
    197 H197       -0.5962  -27.1715  -45.0385 H         1 UNK         0.0600 
    198 H198       -0.7203  -26.2105  -46.5101 H         1 UNK         0.0600 
    199 H199       -1.2253  -27.8931  -46.5105 H         1 UNK         0.0600 
    200 H200       -5.0396  -25.8434  -45.4599 H         1 UNK         0.3000 
    201 H201       -6.7192  -25.2385  -46.7904 H         1 UNK         0.0600 
    202 H202       -7.2737  -26.7701  -48.6626 H         1 UNK         0.0600 
    203 H203       -6.6922  -27.6869  -47.2831 H         1 UNK         0.0600 
    204 H204       -5.6356  -27.4106  -48.6663 H         1 UNK         0.0600 
    205 H205       -4.7242  -23.3983  -46.9499 H         1 UNK         0.3000 
    206 H206       -3.8737  -21.6909  -48.0604 H         1 UNK         0.0600 
    207 H207       -6.2195  -21.1803  -48.6431 H         1 UNK         0.0600 
    208 H208       -6.1211  -22.1846  -50.0892 H         1 UNK         0.0600 
    209 H209       -5.1536  -20.7296  -49.9608 H         1 UNK         0.0600 
    210 H210       -2.3808  -23.8508  -48.2872 H         1 UNK         0.3000 
    211 H211       -0.8243  -24.9978  -49.3172 H         1 UNK         0.0600 
    212 H212        0.1057  -22.7027  -49.7299 H         1 UNK         0.0600 
    213 H213        0.5815  -23.8428  -50.9799 H         1 UNK         0.0600 
    214 H214       -0.6843  -22.6700  -51.3074 H         1 UNK         0.0600 
    215 H215       -3.1403  -26.0807  -49.7837 H         1 UNK         0.3000 
    216 H216       -4.5156  -27.2981  -51.0367 H         1 UNK         0.0600 
    217 H217       -3.5409  -28.7243  -52.8080 H         1 UNK         0.0600 
    218 H218       -2.1139  -27.7013  -52.9010 H         1 UNK         0.0600 
    219 H219       -2.4428  -28.6322  -51.4404 H         1 UNK         0.0600 
    220 H220       -5.0296  -24.7665  -51.2979 H         1 UNK         0.3000 
    221 H221       -6.0911  -23.1752  -52.3104 H         1 UNK         0.0600 
    222 H222       -6.6813  -25.1251  -54.5947 H         1 UNK         0.0600 
    223 H223       -7.5912  -25.0201  -53.0873 H         1 UNK         0.0600 
    224 H224       -7.5793  -23.6667  -54.2041 H         1 UNK         0.0600 
    225 H225       -3.1239  -23.9017  -53.3478 H         1 UNK         0.3000 
    226 H226       -3.0102  -22.4651  -55.8626 H         1 UNK         0.0600 
    227 H227       -1.4333  -24.3280  -55.2440 H         1 UNK         0.0600 
    228 H228       -0.6013  -22.8477  -55.6996 H         1 UNK         0.0600 
    229 H229       -0.7252  -23.2907  -54.0047 H         1 UNK         0.0600 
    230 H230       -2.5654  -21.5801  -52.4391 H         1 UNK         0.3000 
    231 H231       -1.3337  -18.9762  -53.1131 H         1 UNK         0.0600 
    232 H232       -1.1664  -18.7572  -50.6576 H         1 UNK         0.0600 
    233 H233       -0.4687  -20.2726  -51.1945 H         1 UNK         0.0600 
    234 H234       -2.0552  -20.2447  -50.4187 H         1 UNK         0.0600 
    235 H235       -4.4497  -20.3035  -52.2886 H         1 UNK         0.3000 
    236 H236       -6.5046  -19.5261  -51.9839 H         1 UNK         0.0600 
    237 H237       -6.1065  -18.6864  -54.3062 H         1 UNK         0.0600 
    238 H238       -7.2584  -17.6861  -53.4383 H         1 UNK         0.0600 
    239 H239       -5.6062  -17.1248  -53.6578 H         1 UNK         0.0600 
    240 H240       -4.5898  -18.8249  -49.8813 H         1 UNK         0.3000 
    241 H241       -6.2316  -16.8971  -48.4322 H         1 UNK         0.0600 
    242 H242       -6.6357  -17.7403  -46.3561 H         1 UNK         0.3800 
    243 H243       -5.6904  -19.0250  -45.6623 H         1 UNK         0.3800 
    244 H244       -3.2758  -16.4710  -47.9997 H         1 UNK         0.0800 
    245 H245       -3.8302  -15.9713  -49.5582 H         1 UNK         0.0800 
    246 H246       -5.0863  -15.6518  -45.7382 H         1 UNK         0.0800 
    247 H247       -5.0446  -13.9166  -45.6094 H         1 UNK         0.0800 
@<TRIPOS>BOND
     1    1    2 1    
     2    1  127 1    
     3    1  128 1    
     4    1  129 1    
     5    2    3 2    
     6    2    4 am   BACKBONE|DICT|INTERRES
     7    4    5 1    
     8    4  130 1    
     9    5    6 1    
    10    5   65 1    
    11    5  131 1    
    12    6    7 1    
    13    6  132 1    
    14    6  133 1    
    15    7    8 1    
    16    8    9 1    
    17    8  134 1    
    18    8  135 1    
    19    9   10 ar   
    20    9   14 ar   
    21   10   11 ar   
    22   10  136 1    
    23   11   12 ar   
    24   11  126 1    
    25   12   13 ar   
    26   12  137 1    
    27   13   14 ar   
    28   13   15 1    
    29   14  138 1    
    30   15   16 1    
    31   15  139 1    
    32   15  140 1    
    33   16   17 1    
    34   17   18 1    
    35   17  141 1    
    36   17  142 1    
    37   18   19 1    
    38   18   67 1    
    39   18  143 1    
    40   19   20 am   BACKBONE|DICT|INTERRES
    41   19  144 1    
    42   20   21 2    
    43   20   22 1    
    44   22   23 1    
    45   22   24 1    
    46   22  145 1    
    47   23  146 1    
    48   23  147 1    
    49   23  148 1    
    50   24   25 am   BACKBONE|DICT|INTERRES
    51   24  149 1    
    52   25   26 2    
    53   25   27 1    
    54   27   28 1    
    55   27   29 1    
    56   27  150 1    
    57   28  151 1    
    58   28  152 1    
    59   28  153 1    
    60   29   30 am   BACKBONE|DICT|INTERRES
    61   29  154 1    
    62   30   31 2    
    63   30   32 1    
    64   32   33 1    
    65   32   34 1    
    66   32  155 1    
    67   33  156 1    
    68   33  157 1    
    69   33  158 1    
    70   34   35 am   BACKBONE|DICT|INTERRES
    71   34  159 1    
    72   35   36 2    
    73   35   37 1    
    74   37   38 1    
    75   37   39 1    
    76   37  160 1    
    77   38  161 1    
    78   38  162 1    
    79   38  163 1    
    80   39   40 am   BACKBONE|DICT|INTERRES
    81   39  164 1    
    82   40   41 2    
    83   40   42 1    
    84   42   43 1    
    85   42   44 1    
    86   42  165 1    
    87   43  166 1    
    88   43  167 1    
    89   43  168 1    
    90   44   45 am   BACKBONE|DICT|INTERRES
    91   44  169 1    
    92   45   46 2    
    93   45   47 1    
    94   47   48 1    
    95   47   49 1    
    96   47  170 1    
    97   48  171 1    
    98   48  172 1    
    99   48  173 1    
   100   49   50 am   BACKBONE|DICT|INTERRES
   101   49  174 1    
   102   50   51 2    
   103   50   52 1    
   104   52   53 1    
   105   52   54 1    
   106   52  175 1    
   107   53  176 1    
   108   53  177 1    
   109   53  178 1    
   110   54   55 am   BACKBONE|DICT|INTERRES
   111   54  179 1    
   112   55   56 2    
   113   55   57 1    
   114   57   58 1    
   115   57   59 1    
   116   57  180 1    
   117   58  181 1    
   118   58  182 1    
   119   58  183 1    
   120   59   60 am   BACKBONE|DICT|INTERRES
   121   59  184 1    
   122   60   61 2    
   123   60   62 1    
   124   62   63 1    
   125   62   64 1    
   126   62  185 1    
   127   63  186 1    
   128   63  187 1    
   129   63  188 1    
   130   64   65 am   BACKBONE|DICT|INTERRES
   131   64  189 1    
   132   65   66 2    
   133   67   68 2    
   134   67   69 am   BACKBONE|DICT|INTERRES
   135   69   70 1    
   136   69  190 1    
   137   70   71 1    
   138   70   72 1    
   139   70  191 1    
   140   71  192 1    
   141   71  193 1    
   142   71  194 1    
   143   72   73 2    
   144   72   74 am   BACKBONE|DICT|INTERRES
   145   74   75 1    
   146   74  195 1    
   147   75   76 1    
   148   75   77 1    
   149   75  196 1    
   150   76  197 1    
   151   76  198 1    
   152   76  199 1    
   153   77   78 2    
   154   77   79 am   BACKBONE|DICT|INTERRES
   155   79   80 1    
   156   79  200 1    
   157   80   81 1    
   158   80   82 1    
   159   80  201 1    
   160   81  202 1    
   161   81  203 1    
   162   81  204 1    
   163   82   83 2    
   164   82   84 am   BACKBONE|DICT|INTERRES
   165   84   85 1    
   166   84  205 1    
   167   85   86 1    
   168   85   87 1    
   169   85  206 1    
   170   86  207 1    
   171   86  208 1    
   172   86  209 1    
   173   87   88 2    
   174   87   89 am   BACKBONE|DICT|INTERRES
   175   89   90 1    
   176   89  210 1    
   177   90   91 1    
   178   90   92 1    
   179   90  211 1    
   180   91  212 1    
   181   91  213 1    
   182   91  214 1    
   183   92   93 2    
   184   92   94 am   BACKBONE|DICT|INTERRES
   185   94   95 1    
   186   94  215 1    
   187   95   96 1    
   188   95   97 1    
   189   95  216 1    
   190   96  217 1    
   191   96  218 1    
   192   96  219 1    
   193   97   98 2    
   194   97   99 am   BACKBONE|DICT|INTERRES
   195   99  100 1    
   196   99  220 1    
   197  100  101 1    
   198  100  102 1    
   199  100  221 1    
   200  101  222 1    
   201  101  223 1    
   202  101  224 1    
   203  102  103 2    
   204  102  104 am   BACKBONE|DICT|INTERRES
   205  104  105 1    
   206  104  225 1    
   207  105  106 1    
   208  105  107 1    
   209  105  226 1    
   210  106  227 1    
   211  106  228 1    
   212  106  229 1    
   213  107  108 2    
   214  107  109 am   BACKBONE|DICT|INTERRES
   215  109  110 1    
   216  109  230 1    
   217  110  111 1    
   218  110  112 1    
   219  110  231 1    
   220  111  232 1    
   221  111  233 1    
   222  111  234 1    
   223  112  113 2    
   224  112  114 am   BACKBONE|DICT|INTERRES
   225  114  115 1    
   226  114  235 1    
   227  115  116 1    
   228  115  117 1    
   229  115  236 1    
   230  116  237 1    
   231  116  238 1    
   232  116  239 1    
   233  117  118 2    
   234  117  119 am   BACKBONE|DICT|INTERRES
   235  119  120 1    
   236  119  240 1    
   237  120  121 1    
   238  120  124 1    
   239  120  241 1    
   240  121  122 am   BACKBONE|DICT|INTERRES
   241  121  123 2    
   242  122  242 1    
   243  122  243 1    
   244  124  125 1    
   245  124  244 1    
   246  124  245 1    
   247  125  126 1    
   248  126  246 1    
   249  126  247 1    
@<TRIPOS>SUBSTRUCTURE
     1 UNK         1 GROUP             0       ****    0 ROOT    
