@<TRIPOS>MOLECULE
3R540
247   249    1
SMALL
USER_CHARGES


@<TRIPOS>ATOM
      1 CA          6.1886  -15.9033  -47.8694 C.3       0 UNK        -0.1800 
      2 C           4.9113  -15.0827  -47.7536 C.2       0 UNK         0.5000 
      3 O           4.2824  -15.0759  -46.6963 O.2       0 UNK        -0.5000 
      4 N           4.5296  -14.3930  -48.8371 N.am      1 UNK        -0.5000 
      5 CA          3.3783  -13.4881  -48.8935 C.3       1 UNK         0.1400 
      6 C6          3.0274  -13.0813  -50.3482 C.3       23 UNK        -0.0398 
      7 S7          2.0903  -14.3811  -51.2225 S.3       23 UNK        -0.2404 
      8 C8          3.3853  -15.3101  -52.1034 C.3       23 UNK        -0.0205 
      9 C9          3.2195  -16.8002  -51.8526 C.ar      23 UNK        -0.0193 
     10 C10         2.4357  -17.5855  -52.7041 C.ar      23 UNK        -0.1150 
     11 C11         2.2317  -18.9422  -52.4286 C.ar      23 UNK        -0.0193 
     12 C12         2.8259  -19.5116  -51.2983 C.ar      23 UNK        -0.1150 
     13 C13         3.6155  -18.7363  -50.4446 C.ar      23 UNK        -0.0193 
     14 C14         3.8201  -17.3875  -50.7374 C.ar      23 UNK        -0.1150 
     15 C15         4.2245  -19.3425  -49.1892 C.3       23 UNK        -0.0205 
     16 S16         3.4443  -18.7060  -47.6677 S.3       23 UNK        -0.2404 
     17 C17         1.7252  -19.2867  -47.8546 C.3       23 UNK        -0.0398 
     18 CA          1.5449  -20.7165  -47.2991 C.3       11 UNK         0.1400 
     19 N           1.5860  -20.7529  -45.8346 N.am      11 UNK        -0.5000 
     20 C           1.7572  -21.8654  -45.1080 C.2       10 UNK         0.5000 
     21 O           1.9422  -22.9806  -45.5969 O.2       10 UNK        -0.5000 
     22 CA          1.6858  -21.7116  -43.5777 C.3       10 UNK         0.1400 
     23 CB          3.0275  -21.2215  -43.0124 C.3       10 UNK        -0.1800 
     24 N           0.6108  -20.8130  -43.1534 N.am      10 UNK        -0.5000 
     25 C          -0.6954  -21.0800  -43.2984 C.2       9 UNK         0.5000 
     26 O          -1.1308  -22.1371  -43.7552 O.2       9 UNK        -0.5000 
     27 CA         -1.6866  -19.9760  -42.8878 C.3       9 UNK         0.1400 
     28 CB         -1.9688  -20.0401  -41.3793 C.3       9 UNK        -0.1800 
     29 N          -1.2380  -18.6300  -43.2482 N.am      9 UNK        -0.5000 
     30 C          -1.0431  -18.1993  -44.5030 C.2       8 UNK         0.5000 
     31 O          -1.2323  -18.8935  -45.5005 O.2       8 UNK        -0.5000 
     32 CA         -0.4859  -16.7736  -44.6734 C.3       8 UNK         0.1400 
     33 CB         -1.5810  -15.7185  -44.4590 C.3       8 UNK        -0.1800 
     34 N           0.6416  -16.5005  -43.7834 N.am      8 UNK        -0.5000 
     35 C           1.7921  -17.1898  -43.7842 C.2       7 UNK         0.5000 
     36 O           2.0360  -18.1202  -44.5518 O.2       7 UNK        -0.5000 
     37 CA          2.8089  -16.8211  -42.6926 C.3       7 UNK         0.1400 
     38 CB          3.5671  -15.5342  -43.0530 C.3       7 UNK        -0.1800 
     39 N           2.1605  -16.6702  -41.3898 N.am      7 UNK        -0.5000 
     40 C           1.6226  -17.6834  -40.6946 C.2       6 UNK         0.5000 
     41 O           1.6533  -18.8583  -41.0602 O.2       6 UNK        -0.5000 
     42 CA          0.8923  -17.3143  -39.3909 C.3       6 UNK         0.1400 
     43 CB          1.8904  -17.1611  -38.2335 C.3       6 UNK        -0.1800 
     44 N           0.1009  -16.0894  -39.5161 N.am      6 UNK        -0.5000 
     45 C          -0.9758  -15.9614  -40.3045 C.2       5 UNK         0.5000 
     46 O          -1.4313  -16.8727  -40.9928 O.2       5 UNK        -0.5000 
     47 CA         -1.6301  -14.5704  -40.3672 C.3       5 UNK         0.1400 
     48 CB         -2.6784  -14.4168  -39.2554 C.3       5 UNK        -0.1800 
     49 N          -0.6671  -13.4703  -40.2830 N.am      5 UNK        -0.5000 
     50 C           0.2964  -13.2304  -41.1815 C.2       4 UNK         0.5000 
     51 O           0.5185  -13.9472  -42.1607 O.2       4 UNK        -0.5000 
     52 CA          1.1767  -11.9947  -40.9240 C.3       4 UNK         0.1400 
     53 CB          2.6309  -12.4099  -40.6497 C.3       4 UNK        -0.1800 
     54 N           1.1473  -11.0671  -42.0525 N.am      4 UNK        -0.5000 
     55 C           0.0705  -10.3830  -42.4663 C.2       3 UNK         0.5000 
     56 O          -1.0205  -10.4200  -41.8954 O.2       3 UNK        -0.5000 
     57 CA          0.2373   -9.4865  -43.7118 C.3       3 UNK         0.1400 
     58 CB          0.2752   -8.0045  -43.3056 C.3       3 UNK        -0.1800 
     59 N           1.4374   -9.7892  -44.4976 N.am      3 UNK        -0.5000 
     60 C           1.5767  -10.8602  -45.2877 C.2       2 UNK         0.5000 
     61 O           0.6923  -11.7025  -45.4664 O.2       2 UNK        -0.5000 
     62 CA          2.9424  -11.0232  -45.9699 C.3       2 UNK         0.1400 
     63 CB          4.0280  -11.4073  -44.9445 C.3       2 UNK        -0.1800 
     64 N           2.8325  -12.0650  -46.9823 N.am      2 UNK        -0.5000 
     65 C           3.6581  -12.2527  -48.0146 C.2       1 UNK         0.5000 
     66 O           4.6140  -11.5187  -48.2772 O.2       1 UNK        -0.5000 
     67 C           0.2726  -21.3715  -47.8729 C.2       11 UNK         0.5000 
     68 O           0.3454  -21.9785  -48.9416 O.2       11 UNK        -0.5000 
     69 N          -0.8568  -21.2840  -47.1563 N.am      12 UNK        -0.5000 
     70 CA         -2.1567  -21.8584  -47.5209 C.3       12 UNK         0.1400 
     71 CB         -3.2660  -21.1207  -46.7498 C.3       12 UNK        -0.1800 
     72 C          -2.2484  -23.3958  -47.3558 C.2       12 UNK         0.5000 
     73 O          -3.3013  -23.9165  -46.9781 O.2       12 UNK        -0.5000 
     74 N          -1.1613  -24.1065  -47.6742 N.am      13 UNK        -0.5000 
     75 CA         -1.0738  -25.5639  -47.7188 C.3       13 UNK         0.1400 
     76 CB          0.3962  -25.9550  -47.9339 C.3       13 UNK        -0.1800 
     77 C          -1.9613  -26.1608  -48.8278 C.2       13 UNK         0.5000 
     78 O          -2.3034  -25.4639  -49.7871 O.2       13 UNK        -0.5000 
     79 N          -2.3126  -27.4456  -48.6738 N.am      14 UNK        -0.5000 
     80 CA         -3.1609  -28.2325  -49.5797 C.3       14 UNK         0.1400 
     81 CB         -2.4336  -28.4932  -50.9162 C.3       14 UNK        -0.1800 
     82 C          -4.5596  -27.6073  -49.7686 C.2       14 UNK         0.5000 
     83 O          -5.0402  -27.4932  -50.8974 O.2       14 UNK        -0.5000 
     84 N          -5.1625  -27.1788  -48.6481 N.am      15 UNK        -0.5000 
     85 CA         -6.4505  -26.4825  -48.5503 C.3       15 UNK         0.1400 
     86 CB         -7.6111  -27.4312  -48.9187 C.3       15 UNK        -0.1800 
     87 C          -6.4586  -25.1756  -49.3683 C.2       15 UNK         0.5000 
     88 O          -7.3063  -24.9974  -50.2448 O.2       15 UNK        -0.5000 
     89 N          -5.4734  -24.3075  -49.0919 N.am      16 UNK        -0.5000 
     90 CA         -5.2083  -23.0427  -49.7842 C.3       16 UNK         0.1400 
     91 CB         -6.3196  -22.0142  -49.4856 C.3       16 UNK        -0.1800 
     92 C          -4.9532  -23.2444  -51.2901 C.2       16 UNK         0.5000 
     93 O          -5.5686  -22.5669  -52.1135 O.2       16 UNK        -0.5000 
     94 N          -4.0714  -24.2007  -51.6168 N.am      17 UNK        -0.5000 
     95 CA         -3.7040  -24.6354  -52.9677 C.3       17 UNK         0.1400 
     96 CB         -2.8706  -23.5414  -53.6695 C.3       17 UNK        -0.1800 
     97 C          -4.9308  -25.0845  -53.7902 C.2       17 UNK         0.5000 
     98 O          -5.1373  -24.6042  -54.9049 O.2       17 UNK        -0.5000 
     99 N          -5.7506  -25.9628  -53.1938 N.am      18 UNK        -0.5000 
    100 CA        -7.0461  -26.4395  -53.6907 C.3       18 UNK         0.1400 
    101 CB        -6.8586  -27.3428  -54.9273 C.3       18 UNK        -0.1800 
    102 C         -8.0465  -25.2850  -53.9217 C.2       18 UNK         0.5000 
    103 O         -8.6864  -25.2112  -54.9724 O.2       18 UNK        -0.5000 
    104 N         -8.1354  -24.3937  -52.9248 N.am      19 UNK        -0.5000 
    105 CA        -8.9679  -23.1890  -52.8530 C.3       19 UNK         0.1400 
    106 CB       -10.4661  -23.5572  -52.8691 C.3       19 UNK        -0.1800 
    107 C         -8.6179  -22.0861  -53.8781 C.2       19 UNK         0.5000 
    108 O         -9.4172  -21.1671  -54.0669 O.2       19 UNK        -0.5000 
    109 N         -7.4341  -22.1591  -54.5032 N.am      20 UNK        -0.5000 
    110 CA        -6.9163  -21.1270  -55.4058 C.3       20 UNK         0.1400 
    111 CB        -5.8368  -21.7359  -56.3121 C.3       20 UNK        -0.1800 
    112 C         -6.3481  -19.9097  -54.6512 C.2       20 UNK         0.5000 
    113 O         -6.2840  -18.8202  -55.2237 O.2       20 UNK        -0.5000 
    114 N         -5.9167  -20.1218  -53.3974 N.am      21 UNK        -0.5000 
    115 CA        -5.3533  -19.1444  -52.4583 C.3       21 UNK         0.1400 
    116 CB        -6.4509  -18.1718  -51.9819 C.3       21 UNK        -0.1800 
    117 C         -4.0977  -18.4193  -52.9887 C.2       21 UNK         0.5000 
    118 O         -3.8351  -17.2805  -52.5984 O.2       21 UNK        -0.5000 
    119 N         -3.3592  -19.0919  -53.8829 N.am      22 UNK        -0.5000 
    120 CA        -2.2002  -18.5698  -54.6280 C.3       22 UNK         0.1400 
    121 C         -2.5452  -17.4179  -55.6251 C.2       22 UNK         0.5000 
    122 N         -3.8030  -17.2238  -56.0087 N.am      22 UNK        -0.7600 
    123 O         -1.6585  -16.7076  -56.0914 O.2       22 UNK        -0.5000 
    124 C124       -0.9856  -18.2458  -53.7111 C.3       23 UNK        -0.0398 
    125 S125       -0.3896  -19.7301  -52.8252 S.3       23 UNK        -0.2404 
    126 C126        1.3580  -19.7976  -53.3337 C.3       23 UNK        -0.0205 
    127 H127        6.9423  -15.5212  -47.1810 H         1 UNK         0.0600 
    128 H128        6.6011  -15.8736  -48.8781 H         1 UNK         0.0600 
    129 H129        5.9911  -16.9443  -47.6146 H         1 UNK         0.0600 
    130 H130        5.1156  -14.4034  -49.6580 H         1 UNK         0.3000 
    131 H131        2.5197  -14.0153  -48.4706 H         1 UNK         0.0600 
    132 H132        2.3883  -12.1961  -50.3524 H         1 UNK         0.0800 
    133 H133        3.9188  -12.8035  -50.9129 H         1 UNK         0.0800 
    134 H134        3.3201  -15.0941  -53.1708 H         1 UNK         0.0800 
    135 H135        4.3780  -14.9899  -51.7859 H         1 UNK         0.0800 
    136 H136        1.9676  -17.1335  -53.5666 H         1 UNK         0.1150 
    137 H137        2.6549  -20.5551  -51.0724 H         1 UNK         0.1150 
    138 H138        4.4211  -16.7887  -50.0722 H         1 UNK         0.1150 
    139 H139        4.1491  -20.4306  -49.2067 H         1 UNK         0.0800 
    140 H140        5.2901  -19.1109  -49.1616 H         1 UNK         0.0800 
    141 H141        1.4413  -19.2255  -48.9056 H         1 UNK         0.0800 
    142 H142        1.0665  -18.5906  -47.3327 H         1 UNK         0.0800 
    143 H143        2.3780  -21.3226  -47.6616 H         1 UNK         0.0600 
    144 H144        1.5119  -19.8593  -45.3563 H         1 UNK         0.3000 
    145 H145        1.4841  -22.6982  -43.1553 H         1 UNK         0.0600 
    146 H146        3.0080  -21.1914  -41.9229 H         1 UNK         0.0600 
    147 H147        3.8407  -21.8868  -43.3048 H         1 UNK         0.0600 
    148 H148        3.2765  -20.2221  -43.3696 H         1 UNK         0.0600 
    149 H149        0.8907  -19.9367  -42.7271 H         1 UNK         0.3000 
    150 H150       -2.6243  -20.1626  -43.4151 H         1 UNK         0.0600 
    151 H151       -2.3082  -21.0342  -41.0857 H         1 UNK         0.0600 
    152 H152       -2.7487  -19.3338  -41.0944 H         1 UNK         0.0600 
    153 H153       -1.0779  -19.8093  -40.7941 H         1 UNK         0.0600 
    154 H154       -1.1001  -17.9802  -42.4779 H         1 UNK         0.3000 
    155 H155       -0.1223  -16.6805  -45.6989 H         1 UNK         0.0600 
    156 H156       -2.4092  -15.8708  -45.1521 H         1 UNK         0.0600 
    157 H157       -1.1964  -14.7117  -44.6253 H         1 UNK         0.0600 
    158 H158       -1.9875  -15.7577  -43.4487 H         1 UNK         0.0600 
    159 H159        0.5342  -15.7319  -43.1290 H         1 UNK         0.3000 
    160 H160        3.5353  -17.6335  -42.6195 H         1 UNK         0.0600 
    161 H161        2.8927  -14.6893  -43.1926 H         1 UNK         0.0600 
    162 H162        4.1215  -15.6623  -43.9833 H         1 UNK         0.0600 
    163 H163        4.2874  -15.2676  -42.2796 H         1 UNK         0.0600 
    164 H164        2.0405  -15.7287  -41.0480 H         1 UNK         0.3000 
    165 H165        0.2117  -18.1333  -39.1484 H         1 UNK         0.0600 
    166 H166        1.3751  -16.9789  -37.2903 H         1 UNK         0.0600 
    167 H167        2.4839  -18.0678  -38.1083 H         1 UNK         0.0600 
    168 H168        2.5831  -16.3359  -38.4031 H         1 UNK         0.0600 
    169 H169        0.4060  -15.2885  -38.9834 H         1 UNK         0.3000 
    170 H170       -2.1408  -14.4901  -41.3288 H         1 UNK         0.0600 
    171 H171       -3.4218  -15.2136  -39.3075 H         1 UNK         0.0600 
    172 H172       -2.2247  -14.4553  -38.2643 H         1 UNK         0.0600 
    173 H173       -3.2123  -13.4705  -39.3446 H         1 UNK         0.0600 
    174 H174       -0.7867  -12.8288  -39.5122 H         1 UNK         0.3000 
    175 H175        0.8025  -11.4668  -40.0443 H         1 UNK         0.0600 
    176 H176        3.0859  -12.8870  -41.5182 H         1 UNK         0.0600 
    177 H177        3.2428  -11.5475  -40.3848 H         1 UNK         0.0600 
    178 H178        2.6878  -13.1148  -39.8192 H         1 UNK         0.0600 
    179 H179        1.9930  -10.9919  -42.5957 H         1 UNK         0.3000 
    180 H180       -0.6394   -9.6430  -44.3440 H         1 UNK         0.0600 
    181 H181        1.1363   -7.7822  -42.6741 H         1 UNK         0.0600 
    182 H182       -0.6206   -7.7280  -42.7479 H         1 UNK         0.0600 
    183 H183        0.3230   -7.3563  -44.1808 H         1 UNK         0.0600 
    184 H184        2.2070   -9.1412  -44.4066 H         1 UNK         0.3000 
    185 H185        3.2016  -10.0776  -46.4506 H         1 UNK         0.0600 
    186 H186        4.1375  -10.6430  -44.1745 H         1 UNK         0.0600 
    187 H187        3.7913  -12.3482  -44.4453 H         1 UNK         0.0600 
    188 H188        5.0017  -11.5216  -45.4211 H         1 UNK         0.0600 
    189 H189        2.0418  -12.6824  -46.8408 H         1 UNK         0.3000 
    190 H190       -0.8423  -20.7274  -46.3081 H         1 UNK         0.3000 
    191 H191       -2.3120  -21.6566  -48.5822 H         1 UNK         0.0600 
    192 H192       -3.2397  -20.0496  -46.9501 H         1 UNK         0.0600 
    193 H193       -4.2566  -21.4739  -47.0378 H         1 UNK         0.0600 
    194 H194       -3.1648  -21.2641  -45.6737 H         1 UNK         0.0600 
    195 H195       -0.3760  -23.5951  -48.0606 H         1 UNK         0.3000 
    196 H196       -1.4087  -25.9534  -46.7554 H         1 UNK         0.0600 
    197 H197        0.5207  -27.0386  -47.9347 H         1 UNK         0.0600 
    198 H198        1.0297  -25.5563  -47.1408 H         1 UNK         0.0600 
    199 H199        0.7755  -25.5795  -48.8854 H         1 UNK         0.0600 
    200 H200       -1.9831  -27.9370  -47.8543 H         1 UNK         0.3000 
    201 H201       -3.3212  -29.1984  -49.0986 H         1 UNK         0.0600 
    202 H202       -1.4607  -28.9557  -50.7511 H         1 UNK         0.0600 
    203 H203       -2.2755  -27.5738  -51.4805 H         1 UNK         0.0600 
    204 H204       -3.0100  -29.1689  -51.5492 H         1 UNK         0.0600 
    205 H205       -4.6652  -27.2969  -47.7767 H         1 UNK         0.3000 
    206 H206       -6.5765  -26.1958  -47.5052 H         1 UNK         0.0600 
    207 H207       -7.5950  -28.3305  -48.3031 H         1 UNK         0.0600 
    208 H208       -8.5749  -26.9461  -48.7599 H         1 UNK         0.0600 
    209 H209       -7.5706  -27.7399  -49.9638 H         1 UNK         0.0600 
    210 H210       -4.8097  -24.5428  -48.3622 H         1 UNK         0.3000 
    211 H211       -4.2806  -22.6491  -49.3755 H         1 UNK         0.0600 
    212 H212       -7.2776  -22.3137  -49.9108 H         1 UNK         0.0600 
    213 H213       -6.0715  -21.0368  -49.8986 H         1 UNK         0.0600 
    214 H214       -6.4571  -21.8850  -48.4122 H         1 UNK         0.0600 
    215 H215       -3.5953  -24.6980  -50.8661 H         1 UNK         0.3000 
    216 H216       -3.0697  -25.5150  -52.8500 H         1 UNK         0.0600 
    217 H217       -2.5192  -23.8821  -54.6440 H         1 UNK         0.0600 
    218 H218       -1.9913  -23.2793  -53.0809 H         1 UNK         0.0600 
    219 H219       -3.4473  -22.6302  -53.8294 H         1 UNK         0.0600 
    220 H220       -5.4851  -26.3254  -52.2798 H         1 UNK         0.3000 
    221 H221       -7.4681  -27.0544  -52.8942 H         1 UNK         0.0600 
    222 H222       -6.4740  -26.7869  -55.7829 H         1 UNK         0.0600 
    223 H223       -6.1657  -28.1575  -54.7173 H         1 UNK         0.0600 
    224 H224       -7.8056  -27.7920  -55.2286 H         1 UNK         0.0600 
    225 H225       -7.5868  -24.5710  -52.0861 H         1 UNK         0.3000 
    226 H226       -8.7537  -22.7527  -51.8767 H         1 UNK         0.0600 
    227 H227      -10.6928  -24.3170  -52.1211 H         1 UNK         0.0600 
    228 H228      -11.0866  -22.6891  -52.6437 H         1 UNK         0.0600 
    229 H229      -10.7796  -23.9377  -53.8415 H         1 UNK         0.0600 
    230 H230       -6.8160  -22.9303  -54.2835 H         1 UNK         0.3000 
    231 H231       -7.7311  -20.7747  -56.0416 H         1 UNK         0.0600 
    232 H232       -4.9651  -22.0558  -55.7409 H         1 UNK         0.0600 
    233 H233       -5.4945  -21.0114  -57.0521 H         1 UNK         0.0600 
    234 H234       -6.2178  -22.6013  -56.8548 H         1 UNK         0.0600 
    235 H235       -5.9596  -21.0747  -53.0368 H         1 UNK         0.3000 
    236 H236       -5.0182  -19.7154  -51.5923 H         1 UNK         0.0600 
    237 H237       -7.3130  -18.7132  -51.5922 H         1 UNK         0.0600 
    238 H238       -6.0860  -17.5271  -51.1816 H         1 UNK         0.0600 
    239 H239       -6.7968  -17.5276  -52.7910 H         1 UNK         0.0600 
    240 H240       -3.6608  -20.0207  -54.1360 H         1 UNK         0.3000 
    241 H241       -1.8913  -19.3877  -55.2800 H         1 UNK         0.0600 
    242 H242       -4.0095  -16.4850  -56.6620 H         1 UNK         0.3800 
    243 H243       -4.5592  -17.7964  -55.6491 H         1 UNK         0.3800 
    244 H244       -0.1667  -17.8355  -54.3017 H         1 UNK         0.0800 
    245 H245       -1.2372  -17.4763  -52.9807 H         1 UNK         0.0800 
    246 H246        1.6905  -20.8359  -53.2891 H         1 UNK         0.0800 
    247 H247        1.4680  -19.4944  -54.3759 H         1 UNK         0.0800 
@<TRIPOS>BOND
     1    1    2 1    
     2    1  127 1    
     3    1  128 1    
     4    1  129 1    
     5    2    3 2    
     6    2    4 am   BACKBONE|DICT|INTERRES
     7    4    5 1    
     8    4  130 1    
     9    5    6 1    
    10    5   65 1    
    11    5  131 1    
    12    6    7 1    
    13    6  132 1    
    14    6  133 1    
    15    7    8 1    
    16    8    9 1    
    17    8  134 1    
    18    8  135 1    
    19    9   10 ar   
    20    9   14 ar   
    21   10   11 ar   
    22   10  136 1    
    23   11   12 ar   
    24   11  126 1    
    25   12   13 ar   
    26   12  137 1    
    27   13   14 ar   
    28   13   15 1    
    29   14  138 1    
    30   15   16 1    
    31   15  139 1    
    32   15  140 1    
    33   16   17 1    
    34   17   18 1    
    35   17  141 1    
    36   17  142 1    
    37   18   19 1    
    38   18   67 1    
    39   18  143 1    
    40   19   20 am   BACKBONE|DICT|INTERRES
    41   19  144 1    
    42   20   21 2    
    43   20   22 1    
    44   22   23 1    
    45   22   24 1    
    46   22  145 1    
    47   23  146 1    
    48   23  147 1    
    49   23  148 1    
    50   24   25 am   BACKBONE|DICT|INTERRES
    51   24  149 1    
    52   25   26 2    
    53   25   27 1    
    54   27   28 1    
    55   27   29 1    
    56   27  150 1    
    57   28  151 1    
    58   28  152 1    
    59   28  153 1    
    60   29   30 am   BACKBONE|DICT|INTERRES
    61   29  154 1    
    62   30   31 2    
    63   30   32 1    
    64   32   33 1    
    65   32   34 1    
    66   32  155 1    
    67   33  156 1    
    68   33  157 1    
    69   33  158 1    
    70   34   35 am   BACKBONE|DICT|INTERRES
    71   34  159 1    
    72   35   36 2    
    73   35   37 1    
    74   37   38 1    
    75   37   39 1    
    76   37  160 1    
    77   38  161 1    
    78   38  162 1    
    79   38  163 1    
    80   39   40 am   BACKBONE|DICT|INTERRES
    81   39  164 1    
    82   40   41 2    
    83   40   42 1    
    84   42   43 1    
    85   42   44 1    
    86   42  165 1    
    87   43  166 1    
    88   43  167 1    
    89   43  168 1    
    90   44   45 am   BACKBONE|DICT|INTERRES
    91   44  169 1    
    92   45   46 2    
    93   45   47 1    
    94   47   48 1    
    95   47   49 1    
    96   47  170 1    
    97   48  171 1    
    98   48  172 1    
    99   48  173 1    
   100   49   50 am   BACKBONE|DICT|INTERRES
   101   49  174 1    
   102   50   51 2    
   103   50   52 1    
   104   52   53 1    
   105   52   54 1    
   106   52  175 1    
   107   53  176 1    
   108   53  177 1    
   109   53  178 1    
   110   54   55 am   BACKBONE|DICT|INTERRES
   111   54  179 1    
   112   55   56 2    
   113   55   57 1    
   114   57   58 1    
   115   57   59 1    
   116   57  180 1    
   117   58  181 1    
   118   58  182 1    
   119   58  183 1    
   120   59   60 am   BACKBONE|DICT|INTERRES
   121   59  184 1    
   122   60   61 2    
   123   60   62 1    
   124   62   63 1    
   125   62   64 1    
   126   62  185 1    
   127   63  186 1    
   128   63  187 1    
   129   63  188 1    
   130   64   65 am   BACKBONE|DICT|INTERRES
   131   64  189 1    
   132   65   66 2    
   133   67   68 2    
   134   67   69 am   BACKBONE|DICT|INTERRES
   135   69   70 1    
   136   69  190 1    
   137   70   71 1    
   138   70   72 1    
   139   70  191 1    
   140   71  192 1    
   141   71  193 1    
   142   71  194 1    
   143   72   73 2    
   144   72   74 am   BACKBONE|DICT|INTERRES
   145   74   75 1    
   146   74  195 1    
   147   75   76 1    
   148   75   77 1    
   149   75  196 1    
   150   76  197 1    
   151   76  198 1    
   152   76  199 1    
   153   77   78 2    
   154   77   79 am   BACKBONE|DICT|INTERRES
   155   79   80 1    
   156   79  200 1    
   157   80   81 1    
   158   80   82 1    
   159   80  201 1    
   160   81  202 1    
   161   81  203 1    
   162   81  204 1    
   163   82   83 2    
   164   82   84 am   BACKBONE|DICT|INTERRES
   165   84   85 1    
   166   84  205 1    
   167   85   86 1    
   168   85   87 1    
   169   85  206 1    
   170   86  207 1    
   171   86  208 1    
   172   86  209 1    
   173   87   88 2    
   174   87   89 am   BACKBONE|DICT|INTERRES
   175   89   90 1    
   176   89  210 1    
   177   90   91 1    
   178   90   92 1    
   179   90  211 1    
   180   91  212 1    
   181   91  213 1    
   182   91  214 1    
   183   92   93 2    
   184   92   94 am   BACKBONE|DICT|INTERRES
   185   94   95 1    
   186   94  215 1    
   187   95   96 1    
   188   95   97 1    
   189   95  216 1    
   190   96  217 1    
   191   96  218 1    
   192   96  219 1    
   193   97   98 2    
   194   97   99 am   BACKBONE|DICT|INTERRES
   195   99  100 1    
   196   99  220 1    
   197  100  101 1    
   198  100  102 1    
   199  100  221 1    
   200  101  222 1    
   201  101  223 1    
   202  101  224 1    
   203  102  103 2    
   204  102  104 am   BACKBONE|DICT|INTERRES
   205  104  105 1    
   206  104  225 1    
   207  105  106 1    
   208  105  107 1    
   209  105  226 1    
   210  106  227 1    
   211  106  228 1    
   212  106  229 1    
   213  107  108 2    
   214  107  109 am   BACKBONE|DICT|INTERRES
   215  109  110 1    
   216  109  230 1    
   217  110  111 1    
   218  110  112 1    
   219  110  231 1    
   220  111  232 1    
   221  111  233 1    
   222  111  234 1    
   223  112  113 2    
   224  112  114 am   BACKBONE|DICT|INTERRES
   225  114  115 1    
   226  114  235 1    
   227  115  116 1    
   228  115  117 1    
   229  115  236 1    
   230  116  237 1    
   231  116  238 1    
   232  116  239 1    
   233  117  118 2    
   234  117  119 am   BACKBONE|DICT|INTERRES
   235  119  120 1    
   236  119  240 1    
   237  120  121 1    
   238  120  124 1    
   239  120  241 1    
   240  121  122 am   BACKBONE|DICT|INTERRES
   241  121  123 2    
   242  122  242 1    
   243  122  243 1    
   244  124  125 1    
   245  124  244 1    
   246  124  245 1    
   247  125  126 1    
   248  126  246 1    
   249  126  247 1    
@<TRIPOS>SUBSTRUCTURE
     1 UNK         1 GROUP             0       ****    0 ROOT    
