@<TRIPOS>MOLECULE
3R540
247   249    1
SMALL
USER_CHARGES


@<TRIPOS>ATOM
      1 CA          6.4303  -13.9620  -50.4297 C.3       0 UNK        -0.1800 
      2 C           6.3704  -13.8227  -48.9151 C.2       0 UNK         0.5000 
      3 O           7.4012  -13.6087  -48.2772 O.2       0 UNK        -0.5000 
      4 N           5.1691  -13.9470  -48.3417 N.am      1 UNK        -0.5000 
      5 CA          4.9104  -13.8834  -46.8991 C.3       1 UNK         0.1400 
      6 C6          5.0741  -15.2601  -46.1985 C.3       23 UNK        -0.0398 
      7 S7          3.8811  -16.5344  -46.7305 S.3       23 UNK        -0.2404 
      8 C8          4.7452  -17.3469  -48.1094 C.3       23 UNK        -0.0205 
      9 C9          3.7825  -18.2035  -48.9174 C.ar      23 UNK        -0.0193 
     10 C10         2.9071  -17.6057  -49.8300 C.ar      23 UNK        -0.1150 
     11 C11         2.0123  -18.3836  -50.5706 C.ar      23 UNK        -0.0193 
     12 C12         1.9925  -19.7685  -50.3867 C.ar      23 UNK        -0.1150 
     13 C13         2.8697  -20.3823  -49.4870 C.ar      23 UNK        -0.0193 
     14 C14         3.7679  -19.5919  -48.7602 C.ar      23 UNK        -0.1150 
     15 C15         2.8416  -21.9007  -49.3337 C.3       23 UNK        -0.0205 
     16 S16         2.9888  -22.4957  -47.6131 S.3       23 UNK        -0.2404 
     17 C17         1.6239  -21.6112  -46.7854 C.3       23 UNK        -0.0398 
     18 CA          0.3452  -22.4555  -46.5886 C.3       11 UNK         0.1400 
     19 N          -0.5863  -21.7974  -45.6730 N.am      11 UNK        -0.5000 
     20 C          -1.6754  -22.3691  -45.1426 C.2       10 UNK         0.5000 
     21 O          -1.9710  -23.5533  -45.2992 O.2       10 UNK        -0.5000 
     22 CA         -2.6040  -21.4585  -44.3193 C.3       10 UNK         0.1400 
     23 CB         -2.1079  -21.3514  -42.8697 C.3       10 UNK        -0.1800 
     24 N          -2.7375  -20.1168  -44.8897 N.am      10 UNK        -0.5000 
     25 C          -3.3209  -19.8448  -46.0655 C.2       9 UNK         0.5000 
     26 O          -3.8451  -20.6910  -46.7910 O.2       9 UNK        -0.5000 
     27 CA         -3.2823  -18.3825  -46.5388 C.3       9 UNK         0.1400 
     28 CB         -4.3694  -17.5439  -45.8521 C.3       9 UNK        -0.1800 
     29 N          -1.9809  -17.7477  -46.3577 N.am      9 UNK        -0.5000 
     30 C          -0.8521  -18.1449  -46.9616 C.2       8 UNK         0.5000 
     31 O          -0.7845  -19.1030  -47.7293 O.2       8 UNK        -0.5000 
     32 CA          0.4239  -17.3775  -46.5864 C.3       8 UNK         0.1400 
     33 CB          0.4521  -15.9898  -47.2537 C.3       8 UNK        -0.1800 
     34 N           0.5502  -17.2306  -45.1359 N.am      8 UNK        -0.5000 
     35 C           0.6931  -18.2478  -44.2733 C.2       7 UNK         0.5000 
     36 O           0.7539  -19.4299  -44.6056 O.2       7 UNK        -0.5000 
     37 CA          0.7168  -17.8847  -42.7791 C.3       7 UNK         0.1400 
     38 CB          2.1171  -17.4127  -42.3607 C.3       7 UNK        -0.1800 
     39 N          -0.2670  -16.8550  -42.4469 N.am      7 UNK        -0.5000 
     40 C          -1.5955  -17.0096  -42.5492 C.2       6 UNK         0.5000 
     41 O          -2.1436  -18.0598  -42.8828 O.2       6 UNK        -0.5000 
     42 CA         -2.4455  -15.7530  -42.2986 C.3       6 UNK         0.1400 
     43 CB         -2.6845  -15.5445  -40.7962 C.3       6 UNK        -0.1800 
     44 N          -1.8299  -14.5524  -42.8658 N.am      6 UNK        -0.5000 
     45 C          -1.6285  -14.3375  -44.1708 C.2       5 UNK         0.5000 
     46 O          -1.9701  -15.1321  -45.0463 O.2       5 UNK        -0.5000 
     47 CA         -0.8992  -13.0412  -44.5679 C.3       5 UNK         0.1400 
     48 CB         -1.8197  -11.8181  -44.3942 C.3       5 UNK        -0.1800 
     49 N           0.3984  -12.8414  -43.9052 N.am      5 UNK        -0.5000 
     50 C           0.6619  -12.6120  -42.6084 C.2       4 UNK         0.5000 
     51 O          -0.1880  -12.6035  -41.7173 O.2       4 UNK        -0.5000 
     52 CA          2.1299  -12.3233  -42.2533 C.3       4 UNK         0.1400 
     53 CB          2.9323  -13.6284  -42.1344 C.3       4 UNK        -0.1800 
     54 N           2.7461  -11.4545  -43.2561 N.am      4 UNK        -0.5000 
     55 C           2.6449  -10.1164  -43.2581 C.2       3 UNK         0.5000 
     56 O           2.1215   -9.4688  -42.3506 O.2       3 UNK        -0.5000 
     57 CA          3.2070   -9.3727  -44.4870 C.3       3 UNK         0.1400 
     58 CB          4.6837   -9.0094  -44.2693 C.3       3 UNK        -0.1800 
     59 N           3.0810  -10.1480  -45.7218 N.am      3 UNK        -0.5000 
     60 C           1.9197  -10.4439  -46.3231 C.2       2 UNK         0.5000 
     61 O           0.8359   -9.9786  -45.9735 O.2       2 UNK        -0.5000 
     62 CA          1.9652  -11.4489  -47.4926 C.3       2 UNK         0.1400 
     63 CB          1.7971  -10.7229  -48.8359 C.3       2 UNK        -0.1800 
     64 N           3.1856  -12.2608  -47.5432 N.am      2 UNK        -0.5000 
     65 C           3.5769  -13.1535  -46.6201 C.2       1 UNK         0.5000 
     66 O           2.9441  -13.3652  -45.5831 O.2       1 UNK        -0.5000 
     67 C          -0.3451  -22.7908  -47.9252 C.2       11 UNK         0.5000 
     68 O          -0.2737  -23.9352  -48.3746 O.2       11 UNK        -0.5000 
     69 N          -1.0419  -21.8086  -48.5157 N.am      12 UNK        -0.5000 
     70 CA         -1.7993  -21.9543  -49.7593 C.3       12 UNK         0.1400 
     71 CB         -2.3860  -20.5994  -50.1728 C.3       12 UNK        -0.1800 
     72 C          -2.8972  -23.0304  -49.6810 C.2       12 UNK         0.5000 
     73 O          -3.0483  -23.7914  -50.6349 O.2       12 UNK        -0.5000 
     74 N          -3.5654  -23.1295  -48.5218 N.am      13 UNK        -0.5000 
     75 CA         -4.5660  -24.1514  -48.1933 C.3       13 UNK         0.1400 
     76 CB         -5.2275  -23.7893  -46.8524 C.3       13 UNK        -0.1800 
     77 C          -4.0287  -25.5987  -48.1358 C.2       13 UNK         0.5000 
     78 O          -4.8335  -26.5266  -48.0334 O.2       13 UNK        -0.5000 
     79 N          -2.7022  -25.7762  -48.1752 N.am      14 UNK        -0.5000 
     80 CA         -2.0391  -27.0719  -48.2633 C.3       14 UNK         0.1400 
     81 CB         -1.0597  -27.2172  -47.0869 C.3       14 UNK        -0.1800 
     82 C          -1.3061  -27.2218  -49.6060 C.2       14 UNK         0.5000 
     83 O          -1.4532  -28.2533  -50.2632 O.2       14 UNK        -0.5000 
     84 N          -0.5009  -26.2164  -49.9730 N.am      15 UNK        -0.5000 
     85 CA          0.4600  -26.3022  -51.0706 C.3       15 UNK         0.1400 
     86 CB          1.6837  -25.4432  -50.7165 C.3       15 UNK        -0.1800 
     87 C          -0.0979  -25.8720  -52.4369 C.2       15 UNK         0.5000 
     88 O           0.3373  -26.4223  -53.4497 O.2       15 UNK        -0.5000 
     89 N          -0.9997  -24.8811  -52.4644 N.am      16 UNK        -0.5000 
     90 CA         -1.4706  -24.2603  -53.7059 C.3       16 UNK         0.1400 
     91 CB         -1.6246  -22.7424  -53.5082 C.3       16 UNK        -0.1800 
     92 C          -2.7843  -24.8837  -54.1977 C.2       16 UNK         0.5000 
     93 O          -2.9196  -25.1438  -55.3943 O.2       16 UNK        -0.5000 
     94 N          -3.7242  -25.1151  -53.2767 N.am      17 UNK        -0.5000 
     95 CA         -5.0532  -25.6591  -53.5387 C.3       17 UNK         0.1400 
     96 CB         -5.9502  -24.5668  -54.1594 C.3       17 UNK        -0.1800 
     97 C          -5.6473  -26.1842  -52.2240 C.2       17 UNK         0.5000 
     98 O          -5.0194  -26.0599  -51.1733 O.2       17 UNK        -0.5000 
     99 N          -6.8602  -26.7474  -52.2935 N.am      18 UNK        -0.5000 
    100 CA        -7.6554  -27.0966  -51.1120 C.3       18 UNK         0.1400 
    101 CB        -8.7656  -28.0765  -51.5220 C.3       18 UNK        -0.1800 
    102 C         -8.2562  -25.8506  -50.4278 C.2       18 UNK         0.5000 
    103 O         -8.4707  -25.8626  -49.2152 O.2       18 UNK        -0.5000 
    104 N         -8.5165  -24.8012  -51.2193 N.am      19 UNK        -0.5000 
    105 CA        -8.9634  -23.4915  -50.7547 C.3       19 UNK         0.1400 
    106 CB        -9.6819  -22.7751  -51.9087 C.3       19 UNK        -0.1800 
    107 C         -7.7699  -22.6548  -50.2636 C.2       19 UNK         0.5000 
    108 O         -6.6819  -22.7422  -50.8362 O.2       19 UNK        -0.5000 
    109 N         -8.0076  -21.8422  -49.2292 N.am      20 UNK        -0.5000 
    110 CA        -7.0351  -20.9040  -48.6716 C.3       20 UNK         0.1400 
    111 CB        -7.4831  -20.5303  -47.2478 C.3       20 UNK        -0.1800 
    112 C         -6.8696  -19.6425  -49.5410 C.2       20 UNK         0.5000 
    113 O         -7.6998  -19.3764  -50.4139 O.2       20 UNK        -0.5000 
    114 N         -5.8138  -18.8802  -49.2251 N.am      21 UNK        -0.5000 
    115 CA        -5.3344  -17.6485  -49.8664 C.3       21 UNK         0.1400 
    116 CB        -6.4507  -16.6019  -50.0536 C.3       21 UNK        -0.1800 
    117 C         -4.5755  -17.9189  -51.1785 C.2       21 UNK         0.5000 
    118 O         -4.9010  -18.8478  -51.9192 O.2       21 UNK        -0.5000 
    119 N         -3.5569  -17.0897  -51.4296 N.am      22 UNK        -0.5000 
    120 CA        -2.6426  -17.1937  -52.5804 C.3       22 UNK         0.1400 
    121 C         -3.2492  -16.7412  -53.9427 C.2       22 UNK         0.5000 
    122 N         -4.4269  -16.1299  -53.9825 N.am      22 UNK        -0.7600 
    123 O         -2.6389  -16.9536  -54.9868 O.2       22 UNK        -0.5000 
    124 C124       -1.3069  -16.4548  -52.3045 C.3       23 UNK        -0.0398 
    125 S125       -0.4307  -17.0981  -50.8358 S.3       23 UNK        -0.2404 
    126 C126        1.0932  -17.7354  -51.5952 C.3       23 UNK        -0.0205 
    127 H127        6.8162  -13.0457  -50.8762 H         1 UNK         0.0600 
    128 H128        5.4479  -14.1623  -50.8583 H         1 UNK         0.0600 
    129 H129        7.0934  -14.7824  -50.7043 H         1 UNK         0.0600 
    130 H130        4.3592  -14.1426  -48.9139 H         1 UNK         0.3000 
    131 H131        5.6572  -13.2226  -46.4541 H         1 UNK         0.0600 
    132 H132        6.0857  -15.6368  -46.3548 H         1 UNK         0.0800 
    133 H133        4.9728  -15.1398  -45.1187 H         1 UNK         0.0800 
    134 H134        5.5645  -17.9497  -47.7150 H         1 UNK         0.0800 
    135 H135        5.1977  -16.6062  -48.7669 H         1 UNK         0.0800 
    136 H136        2.9202  -16.5330  -49.9616 H         1 UNK         0.1150 
    137 H137        1.2985  -20.3702  -50.9567 H         1 UNK         0.1150 
    138 H138        4.4514  -20.0570  -48.0641 H         1 UNK         0.1150 
    139 H139        1.9199  -22.3005  -49.7558 H         1 UNK         0.0800 
    140 H140        3.6569  -22.3248  -49.9207 H         1 UNK         0.0800 
    141 H141        1.3982  -20.6735  -47.2937 H         1 UNK         0.0800 
    142 H142        2.0138  -21.3240  -45.8089 H         1 UNK         0.0800 
    143 H143        0.6363  -23.4007  -46.1253 H         1 UNK         0.0600 
    144 H144       -0.3810  -20.8293  -45.4456 H         1 UNK         0.3000 
    145 H145       -3.5945  -21.9182  -44.3085 H         1 UNK         0.0600 
    146 H146       -2.8042  -20.7787  -42.2569 H         1 UNK         0.0600 
    147 H147       -1.1341  -20.8631  -42.8137 H         1 UNK         0.0600 
    148 H148       -2.0093  -22.3380  -42.4153 H         1 UNK         0.0600 
    149 H149       -2.3695  -19.3497  -44.3339 H         1 UNK         0.3000 
    150 H150       -3.4784  -18.3907  -47.6098 H         1 UNK         0.0600 
    151 H151       -5.3572  -17.9810  -46.0004 H         1 UNK         0.0600 
    152 H152       -4.3980  -16.5312  -46.2552 H         1 UNK         0.0600 
    153 H153       -4.1997  -17.4695  -44.7775 H         1 UNK         0.0600 
    154 H154       -1.9485  -16.9294  -45.7556 H         1 UNK         0.3000 
    155 H155        1.2818  -17.9525  -46.9408 H         1 UNK         0.0600 
    156 H156       -0.4986  -15.4650  -47.1653 H         1 UNK         0.0600 
    157 H157        0.6710  -16.0835  -48.3165 H         1 UNK         0.0600 
    158 H158        1.2206  -15.3483  -46.8243 H         1 UNK         0.0600 
    159 H159        0.4732  -16.2950  -44.7697 H         1 UNK         0.3000 
    160 H160        0.4710  -18.7833  -42.2091 H         1 UNK         0.0600 
    161 H161        2.4290  -16.5304  -42.9198 H         1 UNK         0.0600 
    162 H162        2.8587  -18.1915  -42.5430 H         1 UNK         0.0600 
    163 H163        2.1543  -17.1709  -41.2984 H         1 UNK         0.0600 
    164 H164        0.0890  -15.9539  -42.1664 H         1 UNK         0.3000 
    165 H165       -3.4123  -15.9006  -42.7844 H         1 UNK         0.0600 
    166 H166       -3.3480  -14.6982  -40.6177 H         1 UNK         0.0600 
    167 H167       -3.1513  -16.4234  -40.3495 H         1 UNK         0.0600 
    168 H168       -1.7526  -15.3578  -40.2610 H         1 UNK         0.0600 
    169 H169       -1.4719  -13.8553  -42.2172 H         1 UNK         0.3000 
    170 H170       -0.6718  -13.1255  -45.6318 H         1 UNK         0.0600 
    171 H171       -2.7360  -11.9371  -44.9737 H         1 UNK         0.0600 
    172 H172       -2.1110  -11.6662  -43.3546 H         1 UNK         0.0600 
    173 H173       -1.3352  -10.9057  -44.7393 H         1 UNK         0.0600 
    174 H174        1.1998  -12.8901  -44.5248 H         1 UNK         0.3000 
    175 H175        2.1513  -11.8277  -41.2802 H         1 UNK         0.0600 
    176 H176        2.9582  -14.1786  -43.0747 H         1 UNK         0.0600 
    177 H177        3.9620  -13.4299  -41.8369 H         1 UNK         0.0600 
    178 H178        2.4978  -14.2858  -41.3803 H         1 UNK         0.0600 
    179 H179        3.1517  -11.9167  -44.0600 H         1 UNK         0.3000 
    180 H180        2.6399   -8.4469  -44.6048 H         1 UNK         0.0600 
    181 H181        5.0733   -8.4247  -45.1028 H         1 UNK         0.0600 
    182 H182        5.3065   -9.8984  -44.1613 H         1 UNK         0.0600 
    183 H183        4.8086   -8.4097  -43.3667 H         1 UNK         0.0600 
    184 H184        3.9276  -10.5501  -46.0948 H         1 UNK         0.3000 
    185 H185        1.1207  -12.1291  -47.3640 H         1 UNK         0.0600 
    186 H186        0.8795  -10.1331  -48.8504 H         1 UNK         0.0600 
    187 H187        2.6273  -10.0432  -49.0322 H         1 UNK         0.0600 
    188 H188        1.7383  -11.4309  -49.6628 H         1 UNK         0.0600 
    189 H189        3.7847  -12.1124  -48.3425 H         1 UNK         0.3000 
    190 H190       -1.0267  -20.8754  -48.1069 H         1 UNK         0.3000 
    191 H191       -1.0911  -22.2631  -50.5304 H         1 UNK         0.0600 
    192 H192       -1.5990  -19.8636  -50.3364 H         1 UNK         0.0600 
    193 H193       -3.0604  -20.2050  -49.4134 H         1 UNK         0.0600 
    194 H194       -2.9496  -20.6849  -51.1024 H         1 UNK         0.0600 
    195 H195       -3.3828  -22.4370  -47.8035 H         1 UNK         0.3000 
    196 H196       -5.3285  -24.1267  -48.9731 H         1 UNK         0.0600 
    197 H197       -5.6085  -22.7710  -46.8476 H         1 UNK         0.0600 
    198 H198       -4.5267  -23.8817  -46.0230 H         1 UNK         0.0600 
    199 H199       -6.0702  -24.4494  -46.6435 H         1 UNK         0.0600 
    200 H200       -2.1066  -24.9602  -48.2406 H         1 UNK         0.3000 
    201 H201       -2.7640  -27.8857  -48.1964 H         1 UNK         0.0600 
    202 H202       -1.5862  -27.1790  -46.1332 H         1 UNK         0.0600 
    203 H203       -0.3082  -26.4267  -47.0823 H         1 UNK         0.0600 
    204 H204       -0.5340  -28.1718  -47.1314 H         1 UNK         0.0600 
    205 H205       -0.4230  -25.3969  -49.3732 H         1 UNK         0.3000 
    206 H206        0.8019  -27.3354  -51.1651 H         1 UNK         0.0600 
    207 H207        1.4172  -24.3900  -50.6331 H         1 UNK         0.0600 
    208 H208        2.1260  -25.7526  -49.7693 H         1 UNK         0.0600 
    209 H209        2.4572  -25.5269  -51.4810 H         1 UNK         0.0600 
    210 H210       -1.4052  -24.5418  -51.6000 H         1 UNK         0.3000 
    211 H211       -0.7255  -24.4005  -54.4922 H         1 UNK         0.0600 
    212 H212       -2.4279  -22.4977  -52.8144 H         1 UNK         0.0600 
    213 H213       -1.8596  -22.2536  -54.4544 H         1 UNK         0.0600 
    214 H214       -0.7043  -22.2954  -53.1322 H         1 UNK         0.0600 
    215 H215       -3.5461  -24.8946  -52.2986 H         1 UNK         0.3000 
    216 H216       -4.9660  -26.5017  -54.2275 H         1 UNK         0.0600 
    217 H217       -6.9424  -24.9499  -54.3981 H         1 UNK         0.0600 
    218 H218       -5.5292  -24.1832  -55.0886 H         1 UNK         0.0600 
    219 H219       -6.0765  -23.7230  -53.4793 H         1 UNK         0.0600 
    220 H220       -7.3075  -26.8571  -53.1921 H         1 UNK         0.3000 
    221 H221       -7.0101  -27.5967  -50.3860 H         1 UNK         0.0600 
    222 H222       -9.4439  -27.6354  -52.2534 H         1 UNK         0.0600 
    223 H223       -8.3486  -28.9859  -51.9549 H         1 UNK         0.0600 
    224 H224       -9.3620  -28.3727  -50.6580 H         1 UNK         0.0600 
    225 H225       -8.2616  -24.8643  -52.1925 H         1 UNK         0.3000 
    226 H226       -9.6715  -23.6253  -49.9340 H         1 UNK         0.0600 
    227 H227      -10.5440  -23.3467  -52.2529 H         1 UNK         0.0600 
    228 H228      -10.0450  -21.7959  -51.5939 H         1 UNK         0.0600 
    229 H229       -9.0189  -22.6195  -52.7609 H         1 UNK         0.0600 
    230 H230       -8.9412  -21.7934  -48.8488 H         1 UNK         0.3000 
    231 H231       -6.0639  -21.3996  -48.6198 H         1 UNK         0.0600 
    232 H232       -6.7335  -19.9187  -46.7456 H         1 UNK         0.0600 
    233 H233       -7.6342  -21.4178  -46.6331 H         1 UNK         0.0600 
    234 H234       -8.4169  -19.9665  -47.2552 H         1 UNK         0.0600 
    235 H235       -5.2101  -19.2380  -48.4995 H         1 UNK         0.3000 
    236 H236       -4.6204  -17.2173  -49.1647 H         1 UNK         0.0600 
    237 H237       -7.1542  -16.8867  -50.8362 H         1 UNK         0.0600 
    238 H238       -7.0126  -16.4526  -49.1316 H         1 UNK         0.0600 
    239 H239       -6.0314  -15.6362  -50.3376 H         1 UNK         0.0600 
    240 H240       -3.3493  -16.3480  -50.7772 H         1 UNK         0.3000 
    241 H241       -2.4043  -18.2518  -52.7072 H         1 UNK         0.0600 
    242 H242       -4.8092  -15.8463  -54.8711 H         1 UNK         0.3800 
    243 H243       -4.9438  -15.9568  -53.1359 H         1 UNK         0.3800 
    244 H244       -1.4882  -15.3895  -52.1530 H         1 UNK         0.0800 
    245 H245       -0.6454  -16.5243  -53.1699 H         1 UNK         0.0800 
    246 H246        1.6180  -16.9184  -52.0926 H         1 UNK         0.0800 
    247 H247        0.8334  -18.4548  -52.3734 H         1 UNK         0.0800 
@<TRIPOS>BOND
     1    1    2 1    
     2    1  127 1    
     3    1  128 1    
     4    1  129 1    
     5    2    3 2    
     6    2    4 am   BACKBONE|DICT|INTERRES
     7    4    5 1    
     8    4  130 1    
     9    5    6 1    
    10    5   65 1    
    11    5  131 1    
    12    6    7 1    
    13    6  132 1    
    14    6  133 1    
    15    7    8 1    
    16    8    9 1    
    17    8  134 1    
    18    8  135 1    
    19    9   10 ar   
    20    9   14 ar   
    21   10   11 ar   
    22   10  136 1    
    23   11   12 ar   
    24   11  126 1    
    25   12   13 ar   
    26   12  137 1    
    27   13   14 ar   
    28   13   15 1    
    29   14  138 1    
    30   15   16 1    
    31   15  139 1    
    32   15  140 1    
    33   16   17 1    
    34   17   18 1    
    35   17  141 1    
    36   17  142 1    
    37   18   19 1    
    38   18   67 1    
    39   18  143 1    
    40   19   20 am   BACKBONE|DICT|INTERRES
    41   19  144 1    
    42   20   21 2    
    43   20   22 1    
    44   22   23 1    
    45   22   24 1    
    46   22  145 1    
    47   23  146 1    
    48   23  147 1    
    49   23  148 1    
    50   24   25 am   BACKBONE|DICT|INTERRES
    51   24  149 1    
    52   25   26 2    
    53   25   27 1    
    54   27   28 1    
    55   27   29 1    
    56   27  150 1    
    57   28  151 1    
    58   28  152 1    
    59   28  153 1    
    60   29   30 am   BACKBONE|DICT|INTERRES
    61   29  154 1    
    62   30   31 2    
    63   30   32 1    
    64   32   33 1    
    65   32   34 1    
    66   32  155 1    
    67   33  156 1    
    68   33  157 1    
    69   33  158 1    
    70   34   35 am   BACKBONE|DICT|INTERRES
    71   34  159 1    
    72   35   36 2    
    73   35   37 1    
    74   37   38 1    
    75   37   39 1    
    76   37  160 1    
    77   38  161 1    
    78   38  162 1    
    79   38  163 1    
    80   39   40 am   BACKBONE|DICT|INTERRES
    81   39  164 1    
    82   40   41 2    
    83   40   42 1    
    84   42   43 1    
    85   42   44 1    
    86   42  165 1    
    87   43  166 1    
    88   43  167 1    
    89   43  168 1    
    90   44   45 am   BACKBONE|DICT|INTERRES
    91   44  169 1    
    92   45   46 2    
    93   45   47 1    
    94   47   48 1    
    95   47   49 1    
    96   47  170 1    
    97   48  171 1    
    98   48  172 1    
    99   48  173 1    
   100   49   50 am   BACKBONE|DICT|INTERRES
   101   49  174 1    
   102   50   51 2    
   103   50   52 1    
   104   52   53 1    
   105   52   54 1    
   106   52  175 1    
   107   53  176 1    
   108   53  177 1    
   109   53  178 1    
   110   54   55 am   BACKBONE|DICT|INTERRES
   111   54  179 1    
   112   55   56 2    
   113   55   57 1    
   114   57   58 1    
   115   57   59 1    
   116   57  180 1    
   117   58  181 1    
   118   58  182 1    
   119   58  183 1    
   120   59   60 am   BACKBONE|DICT|INTERRES
   121   59  184 1    
   122   60   61 2    
   123   60   62 1    
   124   62   63 1    
   125   62   64 1    
   126   62  185 1    
   127   63  186 1    
   128   63  187 1    
   129   63  188 1    
   130   64   65 am   BACKBONE|DICT|INTERRES
   131   64  189 1    
   132   65   66 2    
   133   67   68 2    
   134   67   69 am   BACKBONE|DICT|INTERRES
   135   69   70 1    
   136   69  190 1    
   137   70   71 1    
   138   70   72 1    
   139   70  191 1    
   140   71  192 1    
   141   71  193 1    
   142   71  194 1    
   143   72   73 2    
   144   72   74 am   BACKBONE|DICT|INTERRES
   145   74   75 1    
   146   74  195 1    
   147   75   76 1    
   148   75   77 1    
   149   75  196 1    
   150   76  197 1    
   151   76  198 1    
   152   76  199 1    
   153   77   78 2    
   154   77   79 am   BACKBONE|DICT|INTERRES
   155   79   80 1    
   156   79  200 1    
   157   80   81 1    
   158   80   82 1    
   159   80  201 1    
   160   81  202 1    
   161   81  203 1    
   162   81  204 1    
   163   82   83 2    
   164   82   84 am   BACKBONE|DICT|INTERRES
   165   84   85 1    
   166   84  205 1    
   167   85   86 1    
   168   85   87 1    
   169   85  206 1    
   170   86  207 1    
   171   86  208 1    
   172   86  209 1    
   173   87   88 2    
   174   87   89 am   BACKBONE|DICT|INTERRES
   175   89   90 1    
   176   89  210 1    
   177   90   91 1    
   178   90   92 1    
   179   90  211 1    
   180   91  212 1    
   181   91  213 1    
   182   91  214 1    
   183   92   93 2    
   184   92   94 am   BACKBONE|DICT|INTERRES
   185   94   95 1    
   186   94  215 1    
   187   95   96 1    
   188   95   97 1    
   189   95  216 1    
   190   96  217 1    
   191   96  218 1    
   192   96  219 1    
   193   97   98 2    
   194   97   99 am   BACKBONE|DICT|INTERRES
   195   99  100 1    
   196   99  220 1    
   197  100  101 1    
   198  100  102 1    
   199  100  221 1    
   200  101  222 1    
   201  101  223 1    
   202  101  224 1    
   203  102  103 2    
   204  102  104 am   BACKBONE|DICT|INTERRES
   205  104  105 1    
   206  104  225 1    
   207  105  106 1    
   208  105  107 1    
   209  105  226 1    
   210  106  227 1    
   211  106  228 1    
   212  106  229 1    
   213  107  108 2    
   214  107  109 am   BACKBONE|DICT|INTERRES
   215  109  110 1    
   216  109  230 1    
   217  110  111 1    
   218  110  112 1    
   219  110  231 1    
   220  111  232 1    
   221  111  233 1    
   222  111  234 1    
   223  112  113 2    
   224  112  114 am   BACKBONE|DICT|INTERRES
   225  114  115 1    
   226  114  235 1    
   227  115  116 1    
   228  115  117 1    
   229  115  236 1    
   230  116  237 1    
   231  116  238 1    
   232  116  239 1    
   233  117  118 2    
   234  117  119 am   BACKBONE|DICT|INTERRES
   235  119  120 1    
   236  119  240 1    
   237  120  121 1    
   238  120  124 1    
   239  120  241 1    
   240  121  122 am   BACKBONE|DICT|INTERRES
   241  121  123 2    
   242  122  242 1    
   243  122  243 1    
   244  124  125 1    
   245  124  244 1    
   246  124  245 1    
   247  125  126 1    
   248  126  246 1    
   249  126  247 1    
@<TRIPOS>SUBSTRUCTURE
     1 UNK         1 GROUP             0       ****    0 ROOT    
