@<TRIPOS>MOLECULE
3R540
247   249    1
SMALL
USER_CHARGES


@<TRIPOS>ATOM
      1 CA          4.9165  -12.7120  -47.5617 C.3       0 UNK        -0.1800 
      2 C           4.3475  -13.5847  -48.6715 C.2       0 UNK         0.5000 
      3 O           4.6414  -13.3479  -49.8430 O.2       0 UNK        -0.5000 
      4 N           3.5351  -14.5849  -48.3006 N.am      1 UNK        -0.5000 
      5 CA          2.8771  -15.5532  -49.1931 C.3       1 UNK         0.1400 
      6 C6          3.8627  -16.4909  -49.9450 C.3       23 UNK        -0.0398 
      7 S7          5.0021  -17.3956  -48.8419 S.3       23 UNK        -0.2404 
      8 C8          3.9049  -18.6174  -48.0535 C.3       23 UNK        -0.0205 
      9 C9          3.2844  -19.5849  -49.0500 C.ar      23 UNK        -0.0193 
     10 C10         1.9673  -19.4060  -49.4811 C.ar      23 UNK        -0.1150 
     11 C11         1.3679  -20.3177  -50.3597 C.ar      23 UNK        -0.0193 
     12 C12         2.1214  -21.4036  -50.8197 C.ar      23 UNK        -0.1150 
     13 C13         3.4435  -21.5900  -50.4046 C.ar      23 UNK        -0.0193 
     14 C14         4.0184  -20.6758  -49.5182 C.ar      23 UNK        -0.1150 
     15 C15         4.2584  -22.7695  -50.9203 C.3       23 UNK        -0.0205 
     16 S16         3.6927  -24.3751  -50.2655 S.3       23 UNK        -0.2404 
     17 C17         3.9490  -24.1814  -48.4648 C.3       23 UNK        -0.0398 
     18 CA          2.8422  -24.8266  -47.5929 C.3       11 UNK         0.1400 
     19 N           3.1534  -24.6956  -46.1669 N.am      11 UNK        -0.5000 
     20 C           2.4864  -25.3002  -45.1731 C.2       10 UNK         0.5000 
     21 O           1.5565  -26.0854  -45.3479 O.2       10 UNK        -0.5000 
     22 CA          2.8953  -24.9184  -43.7389 C.3       10 UNK         0.1400 
     23 CB          4.0661  -25.7891  -43.2595 C.3       10 UNK        -0.1800 
     24 N           3.2497  -23.5027  -43.6001 N.am      10 UNK        -0.5000 
     25 C           2.4032  -22.4869  -43.8146 C.2       9 UNK         0.5000 
     26 O           1.2371  -22.6360  -44.1871 O.2       9 UNK        -0.5000 
     27 CA          2.9755  -21.0706  -43.6401 C.3       9 UNK         0.1400 
     28 CB          3.3819  -20.4879  -45.0017 C.3       9 UNK        -0.1800 
     29 N           1.9995  -20.1860  -43.0093 N.am      9 UNK        -0.5000 
     30 C           1.6859  -20.2213  -41.7055 C.2       8 UNK         0.5000 
     31 O           2.2581  -20.9458  -40.8894 O.2       8 UNK        -0.5000 
     32 CA          0.5539  -19.2938  -41.2164 C.3       8 UNK         0.1400 
     33 CB          1.1367  -18.0127  -40.6001 C.3       8 UNK        -0.1800 
     34 N          -0.3888  -18.9225  -42.2705 N.am      8 UNK        -0.5000 
     35 C          -1.2402  -19.7639  -42.8710 C.2       7 UNK         0.5000 
     36 O          -1.4062  -20.9308  -42.5161 O.2       7 UNK        -0.5000 
     37 CA         -2.0524  -19.2167  -44.0628 C.3       7 UNK         0.1400 
     38 CB         -3.5063  -18.9727  -43.6279 C.3       7 UNK        -0.1800 
     39 N          -1.5418  -17.9863  -44.6825 N.am      7 UNK        -0.5000 
     40 C          -0.3240  -17.7621  -45.1935 C.2       6 UNK         0.5000 
     41 O           0.6117  -18.5548  -45.1017 O.2       6 UNK        -0.5000 
     42 CA         -0.0881  -16.4123  -45.9013 C.3       6 UNK         0.1400 
     43 CB         -0.5260  -16.4850  -47.3749 C.3       6 UNK        -0.1800 
     44 N          -0.6711  -15.2371  -45.2371 N.am      6 UNK        -0.5000 
     45 C          -1.9619  -14.9145  -45.0698 C.2       5 UNK         0.5000 
     46 O          -2.8913  -15.6541  -45.3975 O.2       5 UNK        -0.5000 
     47 CA         -2.2690  -13.5505  -44.4128 C.3       5 UNK         0.1400 
     48 CB         -1.0231  -12.6777  -44.1566 C.3       5 UNK        -0.1800 
     49 N          -3.1955  -12.7964  -45.2510 N.am      5 UNK        -0.5000 
     50 C          -4.5293  -12.9171  -45.2417 C.2       4 UNK         0.5000 
     51 O          -5.1487  -13.5881  -44.4145 O.2       4 UNK        -0.5000 
     52 CA         -5.3161  -12.1456  -46.3228 C.3       4 UNK         0.1400 
     53 CB         -6.1919  -11.0557  -45.6828 C.3       4 UNK        -0.1800 
     54 N          -4.4772  -11.5206  -47.3506 N.am      4 UNK        -0.5000 
     55 C          -3.8323  -12.1670  -48.3308 C.2       3 UNK         0.5000 
     56 O          -3.8608  -13.3907  -48.4687 O.2       3 UNK        -0.5000 
     57 CA         -3.0627  -11.2904  -49.3436 C.3       3 UNK         0.1400 
     58 CB         -2.5747   -9.9453  -48.7570 C.3       3 UNK        -0.1800 
     59 N          -1.9564  -11.9974  -49.9947 N.am      3 UNK        -0.5000 
     60 C          -0.8433  -12.4734  -49.4222 C.2       2 UNK         0.5000 
     61 O          -0.5933  -12.4133  -48.2141 O.2       2 UNK        -0.5000 
     62 CA          0.1899  -13.0682  -50.3903 C.3       2 UNK         0.1400 
     63 CB          0.9130  -11.9603  -51.1786 C.3       2 UNK        -0.1800 
     64 N           1.1698  -13.8508  -49.6499 N.am      2 UNK        -0.5000 
     65 C           1.8649  -14.8792  -50.1479 C.2       1 UNK         0.5000 
     66 O           1.7233  -15.2957  -51.3002 O.2       1 UNK        -0.5000 
     67 C           1.4328  -24.2800  -47.9102 C.2       11 UNK         0.5000 
     68 O           0.6542  -24.9621  -48.5768 O.2       11 UNK        -0.5000 
     69 N           1.1124  -23.0906  -47.3800 N.am      12 UNK        -0.5000 
     70 CA         -0.1858  -22.4388  -47.5478 C.3       12 UNK         0.1400 
     71 CB         -0.1274  -21.0177  -46.9775 C.3       12 UNK        -0.1800 
     72 C          -1.3279  -23.2280  -46.8922 C.2       12 UNK         0.5000 
     73 O          -2.3882  -23.3760  -47.5001 O.2       12 UNK        -0.5000 
     74 N          -1.0728  -23.7448  -45.6830 N.am      13 UNK        -0.5000 
     75 CA         -1.9909  -24.5963  -44.9311 C.3       13 UNK         0.1400 
     76 CB         -1.4390  -24.8098  -43.5136 C.3       13 UNK        -0.1800 
     77 C          -2.2594  -25.9441  -45.6272 C.2       13 UNK         0.5000 
     78 O          -3.4112  -26.3762  -45.6789 O.2       13 UNK        -0.5000 
     79 N          -1.2023  -26.5733  -46.1609 N.am      14 UNK        -0.5000 
     80 CA         -1.2718  -27.8434  -46.8840 C.3       14 UNK         0.1400 
     81 CB          0.1423  -28.4176  -47.0605 C.3       14 UNK        -0.1800 
     82 C          -1.9785  -27.7196  -48.2446 C.2       14 UNK         0.5000 
     83 O          -2.8119  -28.5654  -48.5723 O.2       14 UNK        -0.5000 
     84 N          -1.6376  -26.6743  -49.0112 N.am      15 UNK        -0.5000 
     85 CA         -2.2162  -26.4019  -50.3279 C.3       15 UNK         0.1400 
     86 CB         -1.3282  -25.3902  -51.0710 C.3       15 UNK        -0.1800 
     87 C          -3.6613  -25.8775  -50.2571 C.2       15 UNK         0.5000 
     88 O          -4.4248  -26.0917  -51.1986 O.2       15 UNK        -0.5000 
     89 N          -3.9850  -25.1606  -49.1695 N.am      16 UNK        -0.5000 
     90 CA         -5.2205  -24.4066  -48.9152 C.3       16 UNK         0.1400 
     91 CB         -6.4594  -25.3246  -48.9201 C.3       16 UNK        -0.1800 
     92 C          -5.3912  -23.1783  -49.8371 C.2       16 UNK         0.5000 
     93 O          -6.4517  -22.5514  -49.8374 O.2       16 UNK        -0.5000 
     94 N          -4.3317  -22.8208  -50.5774 N.am      17 UNK        -0.5000 
     95 CA         -4.2875  -21.7275  -51.5495 C.3       17 UNK         0.1400 
     96 CB         -3.0520  -21.8989  -52.4452 C.3       17 UNK        -0.1800 
     97 C          -4.3491  -20.3222  -50.9225 C.2       17 UNK         0.5000 
     98 O          -4.5359  -19.3482  -51.6516 O.2       17 UNK        -0.5000 
     99 N          -4.2636  -20.2289  -49.5875 N.am      18 UNK        -0.5000 
    100 CA        -4.5337  -19.0096  -48.8220 C.3       18 UNK         0.1400 
    101 CB        -4.1632  -19.2318  -47.3506 C.3       18 UNK        -0.1800 
    102 C         -5.9930  -18.5278  -48.9569 C.2       18 UNK         0.5000 
    103 O         -6.2419  -17.3290  -48.8401 O.2       18 UNK        -0.5000 
    104 N         -6.9209  -19.4423  -49.2843 N.am      19 UNK        -0.5000 
    105 CA        -8.3017  -19.1267  -49.6649 C.3       19 UNK         0.1400 
    106 CB        -9.1134  -20.4287  -49.7329 C.3       19 UNK        -0.1800 
    107 C         -8.4027  -18.3575  -51.0010 C.2       19 UNK         0.5000 
    108 O         -9.3783  -17.6369  -51.2113 O.2       19 UNK        -0.5000 
    109 N         -7.3838  -18.5010  -51.8600 N.am      20 UNK        -0.5000 
    110 CA        -7.1956  -17.7552  -53.1052 C.3       20 UNK         0.1400 
    111 CB        -6.7896  -18.7449  -54.2117 C.3       20 UNK        -0.1800 
    112 C         -6.1476  -16.6313  -52.9417 C.2       20 UNK         0.5000 
    113 O         -5.7339  -16.0449  -53.9421 O.2       20 UNK        -0.5000 
    114 N         -5.7415  -16.3515  -51.6925 N.am      21 UNK        -0.5000 
    115 CA        -4.7758  -15.3380  -51.2584 C.3       21 UNK         0.1400 
    116 CB        -5.2710  -13.9211  -51.6223 C.3       21 UNK        -0.1800 
    117 C         -3.3214  -15.5992  -51.7083 C.2       21 UNK         0.5000 
    118 O         -2.5399  -14.6498  -51.7618 O.2       21 UNK        -0.5000 
    119 N         -2.9740  -16.8637  -51.9982 N.am      22 UNK        -0.5000 
    120 CA        -1.6459  -17.3297  -52.4417 C.3       22 UNK         0.1400 
    121 C         -1.1012  -16.5484  -53.6782 C.2       22 UNK         0.5000 
    122 N          0.0448  -15.8797  -53.6042 N.am      22 UNK        -0.7600 
    123 O         -1.7070  -16.5908  -54.7460 O.2       22 UNK        -0.5000 
    124 C124       -0.6309  -17.4753  -51.2720 C.3       23 UNK        -0.0398 
    125 S125       -1.0706  -18.8259  -50.1323 S.3       23 UNK        -0.2404 
    126 C126       -0.0893  -20.2089  -50.8157 C.3       23 UNK        -0.0205 
    127 H127        6.0056  -12.7528  -47.5741 H         1 UNK         0.0600 
    128 H128        4.5759  -13.0328  -46.5769 H         1 UNK         0.0600 
    129 H129        4.6112  -11.6756  -47.7059 H         1 UNK         0.0600 
    130 H130        3.3559  -14.7180  -47.3157 H         1 UNK         0.3000 
    131 H131        2.2670  -16.1808  -48.5442 H         1 UNK         0.0600 
    132 H132        3.3240  -17.2176  -50.5540 H         1 UNK         0.0800 
    133 H133        4.4677  -15.9161  -50.6475 H         1 UNK         0.0800 
    134 H134        3.1321  -18.1088  -47.4756 H         1 UNK         0.0800 
    135 H135        4.4935  -19.1815  -47.3296 H         1 UNK         0.0800 
    136 H136        1.4112  -18.5630  -49.1060 H         1 UNK         0.1150 
    137 H137        1.6739  -22.1187  -51.4959 H         1 UNK         0.1150 
    138 H138        5.0388  -20.8119  -49.1880 H         1 UNK         0.1150 
    139 H139        4.1950  -22.7938  -52.0090 H         1 UNK         0.0800 
    140 H140        5.3156  -22.6428  -50.6818 H         1 UNK         0.0800 
    141 H141        4.0485  -23.1259  -48.2137 H         1 UNK         0.0800 
    142 H142        4.9120  -24.6339  -48.2244 H         1 UNK         0.0800 
    143 H143        2.8265  -25.8952  -47.8191 H         1 UNK         0.0600 
    144 H144        3.9035  -24.0676  -45.9205 H         1 UNK         0.3000 
    145 H145        2.0386  -25.1121  -43.0900 H         1 UNK         0.0600 
    146 H146        4.3058  -25.5875  -42.2153 H         1 UNK         0.0600 
    147 H147        4.9664  -25.6173  -43.8507 H         1 UNK         0.0600 
    148 H148        3.8204  -26.8492  -43.3359 H         1 UNK         0.0600 
    149 H149        4.1933  -23.3023  -43.3012 H         1 UNK         0.3000 
    150 H150        3.8642  -21.1176  -43.0072 H         1 UNK         0.0600 
    151 H151        4.1445  -21.1027  -45.4811 H         1 UNK         0.0600 
    152 H152        3.7937  -19.4848  -44.8908 H         1 UNK         0.0600 
    153 H153        2.5340  -20.4249  -45.6838 H         1 UNK         0.0600 
    154 H154        1.4544  -19.6004  -43.6350 H         1 UNK         0.3000 
    155 H155        0.0027  -19.8284  -40.4399 H         1 UNK         0.0600 
    156 H156        1.8251  -18.2483  -39.7874 H         1 UNK         0.0600 
    157 H157        0.3510  -17.3808  -40.1855 H         1 UNK         0.0600 
    158 H158        1.6870  -17.4265  -41.3371 H         1 UNK         0.0600 
    159 H159       -0.3192  -17.9840  -42.6339 H         1 UNK         0.3000 
    160 H160       -2.0506  -19.9905  -44.8322 H         1 UNK         0.0600 
    161 H161       -3.5681  -18.2005  -42.8600 H         1 UNK         0.0600 
    162 H162       -3.9522  -19.8802  -43.2186 H         1 UNK         0.0600 
    163 H163       -4.1283  -18.6577  -44.4641 H         1 UNK         0.0600 
    164 H164       -2.2245  -17.2462  -44.8327 H         1 UNK         0.3000 
    165 H165        0.9901  -16.2449  -45.8928 H         1 UNK         0.0600 
    166 H166       -0.3544  -15.5403  -47.8893 H         1 UNK         0.0600 
    167 H167        0.0367  -17.2535  -47.9004 H         1 UNK         0.0600 
    168 H168       -1.5833  -16.7319  -47.4786 H         1 UNK         0.0600 
    169 H169        0.0069  -14.5704  -44.8959 H         1 UNK         0.3000 
    170 H170       -2.7363  -13.7571  -43.4479 H         1 UNK         0.0600 
    171 H171       -0.4931  -12.4424  -45.0811 H         1 UNK         0.0600 
    172 H172       -1.3022  -11.7325  -43.6904 H         1 UNK         0.0600 
    173 H173       -0.3241  -13.1683  -43.4783 H         1 UNK         0.0600 
    174 H174       -2.7817  -12.2552  -45.9958 H         1 UNK         0.3000 
    175 H175       -5.9739  -12.8662  -46.8132 H         1 UNK         0.0600 
    176 H176       -5.5883  -10.3004  -45.1781 H         1 UNK         0.0600 
    177 H177       -6.8059  -10.5526  -46.4301 H         1 UNK         0.0600 
    178 H178       -6.8708  -11.4813  -44.9426 H         1 UNK         0.0600 
    179 H179       -4.4003  -10.5147  -47.3080 H         1 UNK         0.3000 
    180 H180       -3.7737  -11.0592  -50.1376 H         1 UNK         0.0600 
    181 H181       -1.9828   -9.3926  -49.4869 H         1 UNK         0.0600 
    182 H182       -1.9563  -10.0873  -47.8700 H         1 UNK         0.0600 
    183 H183       -3.4106   -9.3021  -48.4804 H         1 UNK         0.0600 
    184 H184       -2.0849  -12.1769  -50.9812 H         1 UNK         0.3000 
    185 H185       -0.3313  -13.7202  -51.0903 H         1 UNK         0.0600 
    186 H186        0.2081  -11.3596  -51.7543 H         1 UNK         0.0600 
    187 H187        1.4556  -11.2867  -50.5142 H         1 UNK         0.0600 
    188 H188        1.6292  -12.3808  -51.8848 H         1 UNK         0.0600 
    189 H189        1.2881  -13.5733  -48.6842 H         1 UNK         0.3000 
    190 H190        1.7800  -22.6197  -46.7895 H         1 UNK         0.3000 
    191 H191       -0.3894  -22.3779  -48.6172 H         1 UNK         0.0600 
    192 H192       -1.0243  -20.4573  -47.2365 H         1 UNK         0.0600 
    193 H193        0.7222  -20.4622  -47.3666 H         1 UNK         0.0600 
    194 H194       -0.0436  -21.0239  -45.8909 H         1 UNK         0.0600 
    195 H195       -0.1873  -23.5212  -45.2373 H         1 UNK         0.3000 
    196 H196       -2.9427  -24.0673  -44.8490 H         1 UNK         0.0600 
    197 H197       -1.3026  -23.8587  -42.9978 H         1 UNK         0.0600 
    198 H198       -0.4763  -25.3212  -43.5290 H         1 UNK         0.0600 
    199 H199       -2.1229  -25.4117  -42.9142 H         1 UNK         0.0600 
    200 H200       -0.2754  -26.1788  -46.0301 H         1 UNK         0.3000 
    201 H201       -1.8451  -28.5461  -46.2755 H         1 UNK         0.0600 
    202 H202        0.6123  -28.6082  -46.0957 H         1 UNK         0.0600 
    203 H203        0.7869  -27.7366  -47.6177 H         1 UNK         0.0600 
    204 H204        0.1166  -29.3643  -47.6016 H         1 UNK         0.0600 
    205 H205       -0.9031  -26.0438  -48.6971 H         1 UNK         0.3000 
    206 H206       -2.2263  -27.3315  -50.9009 H         1 UNK         0.0600 
    207 H207       -1.2637  -24.4411  -50.5371 H         1 UNK         0.0600 
    208 H208       -0.3142  -25.7718  -51.1929 H         1 UNK         0.0600 
    209 H209       -1.7187  -25.1816  -52.0680 H         1 UNK         0.0600 
    210 H210       -3.2575  -25.0023  -48.4804 H         1 UNK         0.3000 
    211 H211       -5.1171  -24.0072  -47.9054 H         1 UNK         0.0600 
    212 H212       -6.6922  -25.6919  -49.9197 H         1 UNK         0.0600 
    213 H213       -7.3397  -24.7917  -48.5589 H         1 UNK         0.0600 
    214 H214       -6.3130  -26.1866  -48.2693 H         1 UNK         0.0600 
    215 H215       -3.4942  -23.3743  -50.4829 H         1 UNK         0.3000 
    216 H216       -5.1709  -21.8128  -52.1856 H         1 UNK         0.0600 
    217 H217       -2.9260  -21.0505  -53.1195 H         1 UNK         0.0600 
    218 H218       -3.1424  -22.7920  -53.0637 H         1 UNK         0.0600 
    219 H219       -2.1402  -21.9973  -51.8609 H         1 UNK         0.0600 
    220 H220       -4.0973  -21.0729  -49.0600 H         1 UNK         0.3000 
    221 H221       -3.8947  -18.2165  -49.2159 H         1 UNK         0.0600 
    222 H222       -4.3378  -18.3236  -46.7725 H         1 UNK         0.0600 
    223 H223       -4.7491  -20.0333  -46.8994 H         1 UNK         0.0600 
    224 H224       -3.1085  -19.4801  -47.2441 H         1 UNK         0.0600 
    225 H225       -6.6454  -20.4143  -49.3683 H         1 UNK         0.3000 
    226 H226       -8.7318  -18.4943  -48.8856 H         1 UNK         0.0600 
    227 H227       -9.0839  -20.9634  -48.7833 H         1 UNK         0.0600 
    228 H228      -10.1608  -20.2249  -49.9594 H         1 UNK         0.0600 
    229 H229       -8.7347  -21.0982  -50.5062 H         1 UNK         0.0600 
    230 H230       -6.6001  -19.0842  -51.5929 H         1 UNK         0.3000 
    231 H231       -8.1315  -17.2794  -53.4040 H         1 UNK         0.0600 
    232 H232       -6.7128  -18.2443  -55.1776 H         1 UNK         0.0600 
    233 H233       -7.5274  -19.5401  -54.3187 H         1 UNK         0.0600 
    234 H234       -5.8245  -19.2085  -54.0060 H         1 UNK         0.0600 
    235 H235       -6.1503  -16.8866  -50.9369 H         1 UNK         0.3000 
    236 H236       -4.7545  -15.4002  -50.1698 H         1 UNK         0.0600 
    237 H237       -5.2653  -13.7512  -52.6990 H         1 UNK         0.0600 
    238 H238       -6.2842  -13.7519  -51.2582 H         1 UNK         0.0600 
    239 H239       -4.6374  -13.1573  -51.1740 H         1 UNK         0.0600 
    240 H240       -3.6817  -17.5885  -51.9336 H         1 UNK         0.3000 
    241 H241       -1.8195  -18.3348  -52.8284 H         1 UNK         0.0600 
    242 H242        0.3759  -15.4021  -54.4268 H         1 UNK         0.3800 
    243 H243        0.5706  -15.7845  -52.7392 H         1 UNK         0.3800 
    244 H244       -0.5810  -16.5480  -50.7010 H         1 UNK         0.0800 
    245 H245        0.3771  -17.6704  -51.6411 H         1 UNK         0.0800 
    246 H246       -0.5898  -21.1284  -50.5192 H         1 UNK         0.0800 
    247 H247       -0.1280  -20.1757  -51.9053 H         1 UNK         0.0800 
@<TRIPOS>BOND
     1    1    2 1    
     2    1  127 1    
     3    1  128 1    
     4    1  129 1    
     5    2    3 2    
     6    2    4 am   BACKBONE|DICT|INTERRES
     7    4    5 1    
     8    4  130 1    
     9    5    6 1    
    10    5   65 1    
    11    5  131 1    
    12    6    7 1    
    13    6  132 1    
    14    6  133 1    
    15    7    8 1    
    16    8    9 1    
    17    8  134 1    
    18    8  135 1    
    19    9   10 ar   
    20    9   14 ar   
    21   10   11 ar   
    22   10  136 1    
    23   11   12 ar   
    24   11  126 1    
    25   12   13 ar   
    26   12  137 1    
    27   13   14 ar   
    28   13   15 1    
    29   14  138 1    
    30   15   16 1    
    31   15  139 1    
    32   15  140 1    
    33   16   17 1    
    34   17   18 1    
    35   17  141 1    
    36   17  142 1    
    37   18   19 1    
    38   18   67 1    
    39   18  143 1    
    40   19   20 am   BACKBONE|DICT|INTERRES
    41   19  144 1    
    42   20   21 2    
    43   20   22 1    
    44   22   23 1    
    45   22   24 1    
    46   22  145 1    
    47   23  146 1    
    48   23  147 1    
    49   23  148 1    
    50   24   25 am   BACKBONE|DICT|INTERRES
    51   24  149 1    
    52   25   26 2    
    53   25   27 1    
    54   27   28 1    
    55   27   29 1    
    56   27  150 1    
    57   28  151 1    
    58   28  152 1    
    59   28  153 1    
    60   29   30 am   BACKBONE|DICT|INTERRES
    61   29  154 1    
    62   30   31 2    
    63   30   32 1    
    64   32   33 1    
    65   32   34 1    
    66   32  155 1    
    67   33  156 1    
    68   33  157 1    
    69   33  158 1    
    70   34   35 am   BACKBONE|DICT|INTERRES
    71   34  159 1    
    72   35   36 2    
    73   35   37 1    
    74   37   38 1    
    75   37   39 1    
    76   37  160 1    
    77   38  161 1    
    78   38  162 1    
    79   38  163 1    
    80   39   40 am   BACKBONE|DICT|INTERRES
    81   39  164 1    
    82   40   41 2    
    83   40   42 1    
    84   42   43 1    
    85   42   44 1    
    86   42  165 1    
    87   43  166 1    
    88   43  167 1    
    89   43  168 1    
    90   44   45 am   BACKBONE|DICT|INTERRES
    91   44  169 1    
    92   45   46 2    
    93   45   47 1    
    94   47   48 1    
    95   47   49 1    
    96   47  170 1    
    97   48  171 1    
    98   48  172 1    
    99   48  173 1    
   100   49   50 am   BACKBONE|DICT|INTERRES
   101   49  174 1    
   102   50   51 2    
   103   50   52 1    
   104   52   53 1    
   105   52   54 1    
   106   52  175 1    
   107   53  176 1    
   108   53  177 1    
   109   53  178 1    
   110   54   55 am   BACKBONE|DICT|INTERRES
   111   54  179 1    
   112   55   56 2    
   113   55   57 1    
   114   57   58 1    
   115   57   59 1    
   116   57  180 1    
   117   58  181 1    
   118   58  182 1    
   119   58  183 1    
   120   59   60 am   BACKBONE|DICT|INTERRES
   121   59  184 1    
   122   60   61 2    
   123   60   62 1    
   124   62   63 1    
   125   62   64 1    
   126   62  185 1    
   127   63  186 1    
   128   63  187 1    
   129   63  188 1    
   130   64   65 am   BACKBONE|DICT|INTERRES
   131   64  189 1    
   132   65   66 2    
   133   67   68 2    
   134   67   69 am   BACKBONE|DICT|INTERRES
   135   69   70 1    
   136   69  190 1    
   137   70   71 1    
   138   70   72 1    
   139   70  191 1    
   140   71  192 1    
   141   71  193 1    
   142   71  194 1    
   143   72   73 2    
   144   72   74 am   BACKBONE|DICT|INTERRES
   145   74   75 1    
   146   74  195 1    
   147   75   76 1    
   148   75   77 1    
   149   75  196 1    
   150   76  197 1    
   151   76  198 1    
   152   76  199 1    
   153   77   78 2    
   154   77   79 am   BACKBONE|DICT|INTERRES
   155   79   80 1    
   156   79  200 1    
   157   80   81 1    
   158   80   82 1    
   159   80  201 1    
   160   81  202 1    
   161   81  203 1    
   162   81  204 1    
   163   82   83 2    
   164   82   84 am   BACKBONE|DICT|INTERRES
   165   84   85 1    
   166   84  205 1    
   167   85   86 1    
   168   85   87 1    
   169   85  206 1    
   170   86  207 1    
   171   86  208 1    
   172   86  209 1    
   173   87   88 2    
   174   87   89 am   BACKBONE|DICT|INTERRES
   175   89   90 1    
   176   89  210 1    
   177   90   91 1    
   178   90   92 1    
   179   90  211 1    
   180   91  212 1    
   181   91  213 1    
   182   91  214 1    
   183   92   93 2    
   184   92   94 am   BACKBONE|DICT|INTERRES
   185   94   95 1    
   186   94  215 1    
   187   95   96 1    
   188   95   97 1    
   189   95  216 1    
   190   96  217 1    
   191   96  218 1    
   192   96  219 1    
   193   97   98 2    
   194   97   99 am   BACKBONE|DICT|INTERRES
   195   99  100 1    
   196   99  220 1    
   197  100  101 1    
   198  100  102 1    
   199  100  221 1    
   200  101  222 1    
   201  101  223 1    
   202  101  224 1    
   203  102  103 2    
   204  102  104 am   BACKBONE|DICT|INTERRES
   205  104  105 1    
   206  104  225 1    
   207  105  106 1    
   208  105  107 1    
   209  105  226 1    
   210  106  227 1    
   211  106  228 1    
   212  106  229 1    
   213  107  108 2    
   214  107  109 am   BACKBONE|DICT|INTERRES
   215  109  110 1    
   216  109  230 1    
   217  110  111 1    
   218  110  112 1    
   219  110  231 1    
   220  111  232 1    
   221  111  233 1    
   222  111  234 1    
   223  112  113 2    
   224  112  114 am   BACKBONE|DICT|INTERRES
   225  114  115 1    
   226  114  235 1    
   227  115  116 1    
   228  115  117 1    
   229  115  236 1    
   230  116  237 1    
   231  116  238 1    
   232  116  239 1    
   233  117  118 2    
   234  117  119 am   BACKBONE|DICT|INTERRES
   235  119  120 1    
   236  119  240 1    
   237  120  121 1    
   238  120  124 1    
   239  120  241 1    
   240  121  122 am   BACKBONE|DICT|INTERRES
   241  121  123 2    
   242  122  242 1    
   243  122  243 1    
   244  124  125 1    
   245  124  244 1    
   246  124  245 1    
   247  125  126 1    
   248  126  246 1    
   249  126  247 1    
@<TRIPOS>SUBSTRUCTURE
     1 UNK         1 GROUP             0       ****    0 ROOT    
