@<TRIPOS>MOLECULE
3R540
247   249    1
SMALL
USER_CHARGES


@<TRIPOS>ATOM
      1 CA         -5.5124  -17.4135  -41.9383 C.3       0 UNK        -0.1800 
      2 C          -4.5561  -16.3867  -42.5268 C.2       0 UNK         0.5000 
      3 O          -4.2614  -15.3812  -41.8803 O.2       0 UNK        -0.5000 
      4 N          -4.0583  -16.6476  -43.7439 N.am      1 UNK        -0.5000 
      5 CA         -3.1593  -15.7819  -44.5235 C.3       1 UNK         0.1400 
      6 C6         -2.8063  -16.3944  -45.9016 C.3       23 UNK        -0.0398 
      7 S7         -4.2785  -16.8387  -46.8841 S.3       23 UNK        -0.2404 
      8 C8         -3.8006  -16.2734  -48.5466 C.3       23 UNK        -0.0205 
      9 C9         -2.9467  -17.2973  -49.2829 C.ar      23 UNK        -0.0193 
     10 C10        -3.5201  -18.1011  -50.2725 C.ar      23 UNK        -0.1150 
     11 C11        -2.7384  -18.9968  -51.0120 C.ar      23 UNK        -0.0193 
     12 C12        -1.3767  -19.1093  -50.7169 C.ar      23 UNK        -0.1150 
     13 C13        -0.7889  -18.3216  -49.7227 C.ar      23 UNK        -0.0193 
     14 C14        -1.5791  -17.4118  -49.0149 C.ar      23 UNK        -0.1150 
     15 C15         0.7085  -18.4121  -49.4541 C.3       23 UNK        -0.0205 
     16 S16         1.1158  -19.4515  -48.0131 S.3       23 UNK        -0.2404 
     17 C17         0.7179  -21.1283  -48.6196 C.3       23 UNK        -0.0398 
     18 CA         -0.1127  -22.0236  -47.6654 C.3       11 UNK         0.1400 
     19 N           0.6805  -22.5954  -46.5731 N.am      11 UNK        -0.5000 
     20 C           0.4203  -23.7927  -46.0247 C.2       10 UNK         0.5000 
     21 O          -0.4949  -24.5282  -46.3936 O.2       10 UNK        -0.5000 
     22 CA          1.3176  -24.2440  -44.8583 C.3       10 UNK         0.1400 
     23 CB          2.6324  -24.8382  -45.3858 C.3       10 UNK        -0.1800 
     24 N           1.6186  -23.1683  -43.9162 N.am      10 UNK        -0.5000 
     25 C           0.7139  -22.5527  -43.1419 C.2       9 UNK         0.5000 
     26 O          -0.4832  -22.8363  -43.1286 O.2       9 UNK        -0.5000 
     27 CA          1.2335  -21.3915  -42.2709 C.3       9 UNK         0.1400 
     28 CB          1.7104  -21.9090  -40.9062 C.3       9 UNK        -0.1800 
     29 N           2.3151  -20.6338  -42.9094 N.am      9 UNK        -0.5000 
     30 C           2.1877  -19.9715  -44.0661 C.2       8 UNK         0.5000 
     31 O           1.1323  -19.9118  -44.7006 O.2       8 UNK        -0.5000 
     32 CA          3.4688  -19.3521  -44.6456 C.3       8 UNK         0.1400 
     33 CB          4.2465  -20.4102  -45.4447 C.3       8 UNK        -0.1800 
     34 N           3.1428  -18.2452  -45.5390 N.am      8 UNK        -0.5000 
     35 C           2.9338  -16.9875  -45.1420 C.2       7 UNK         0.5000 
     36 O           3.0688  -16.6003  -43.9787 O.2       7 UNK        -0.5000 
     37 CA          2.4561  -16.0098  -46.2283 C.3       7 UNK         0.1400 
     38 CB          0.9236  -15.9775  -46.2785 C.3       7 UNK        -0.1800 
     39 N           2.9445  -14.6598  -45.9599 N.am      7 UNK        -0.5000 
     40 C           4.1613  -14.2101  -46.2902 C.2       6 UNK         0.5000 
     41 O           4.9775  -14.8589  -46.9460 O.2       6 UNK        -0.5000 
     42 CA          4.5291  -12.7954  -45.8025 C.3       6 UNK         0.1400 
     43 CB          4.1124  -11.7419  -46.8402 C.3       6 UNK        -0.1800 
     44 N           3.9206  -12.4601  -44.5140 N.am      6 UNK        -0.5000 
     45 C           4.2690  -12.9905  -43.3354 C.2       5 UNK         0.5000 
     46 O           5.1862  -13.8018  -43.2055 O.2       5 UNK        -0.5000 
     47 CA          3.4700  -12.5601  -42.0874 C.3       5 UNK         0.1400 
     48 CB          4.2029  -11.4453  -41.3170 C.3       5 UNK        -0.1800 
     49 N           2.0621  -12.2060  -42.3254 N.am      5 UNK        -0.5000 
     50 C           1.5449  -11.1577  -42.9865 C.2       4 UNK         0.5000 
     51 O           2.2322  -10.3199  -43.5708 O.2       4 UNK        -0.5000 
     52 CA          0.0073  -11.0347  -43.0518 C.3       4 UNK         0.1400 
     53 CB         -0.4783  -11.1781  -44.5036 C.3       4 UNK        -0.1800 
     54 N          -0.6871  -12.0198  -42.2194 N.am      4 UNK        -0.5000 
     55 C          -0.8556  -11.9171  -40.8915 C.2       3 UNK         0.5000 
     56 O          -0.5137  -10.9300  -40.2395 O.2       3 UNK        -0.5000 
     57 CA         -1.4773  -13.1256  -40.1565 C.3       3 UNK         0.1400 
     58 CB         -2.9720  -12.8852  -39.8989 C.3       3 UNK        -0.1800 
     59 N          -1.3156  -14.3955  -40.8693 N.am      3 UNK        -0.5000 
     60 C          -0.1389  -14.9689  -41.1654 C.2       2 UNK         0.5000 
     61 O           0.9424  -14.5342  -40.7695 O.2       2 UNK        -0.5000 
     62 CA         -0.1552  -16.1824  -42.1170 C.3       2 UNK         0.1400 
     63 CB          0.0857  -17.4896  -41.3487 C.3       2 UNK        -0.1800 
     64 N          -1.3801  -16.3159  -42.9094 N.am      2 UNK        -0.5000 
     65 C          -1.8554  -15.4169  -43.7841 C.2       1 UNK         0.5000 
     66 O          -1.3188  -14.3310  -44.0018 O.2       1 UNK        -0.5000 
     67 C          -1.4066  -21.3707  -47.1375 C.2       11 UNK         0.5000 
     68 O          -2.4283  -21.4437  -47.8143 O.2       11 UNK        -0.5000 
     69 N          -1.3740  -20.8208  -45.9132 N.am      12 UNK        -0.5000 
     70 CA         -2.5448  -20.3006  -45.2026 C.3       12 UNK         0.1400 
     71 CB         -2.0857  -19.6146  -43.9091 C.3       12 UNK        -0.1800 
     72 C          -3.5916  -21.3857  -44.8868 C.2       12 UNK         0.5000 
     73 O          -4.7900  -21.1138  -44.9473 O.2       12 UNK        -0.5000 
     74 N          -3.1217  -22.6044  -44.5904 N.am      13 UNK        -0.5000 
     75 CA         -3.9467  -23.7963  -44.3843 C.3       13 UNK         0.1400 
     76 CB         -3.1080  -24.8496  -43.6431 C.3       13 UNK        -0.1800 
     77 C          -4.5223  -24.3857  -45.6907 C.2       13 UNK         0.5000 
     78 O          -5.3728  -25.2739  -45.6227 O.2       13 UNK        -0.5000 
     79 N          -4.0539  -23.9013  -46.8469 N.am      14 UNK        -0.5000 
     80 CA         -4.4123  -24.3678  -48.1825 C.3       14 UNK         0.1400 
     81 CB         -3.2545  -25.2237  -48.7300 C.3       14 UNK        -0.1800 
     82 C          -4.7396  -23.1667  -49.0861 C.2       14 UNK         0.5000 
     83 O          -4.3529  -23.1573  -50.2564 O.2       14 UNK        -0.5000 
     84 N          -5.4399  -22.1650  -48.5320 N.am      15 UNK        -0.5000 
     85 CA         -5.7032  -20.8427  -49.1182 C.3       15 UNK         0.1400 
     86 CB         -6.1358  -19.8821  -47.9976 C.3       15 UNK        -0.1800 
     87 C          -6.6768  -20.8272  -50.3239 C.2       15 UNK         0.5000 
     88 O          -7.5327  -19.9470  -50.4243 O.2       15 UNK        -0.5000 
     89 N          -6.5098  -21.7998  -51.2205 N.am      16 UNK        -0.5000 
     90 CA         -7.1969  -22.0086  -52.4910 C.3       16 UNK         0.1400 
     91 CB         -8.7052  -22.2559  -52.2928 C.3       16 UNK        -0.1800 
     92 C          -6.5473  -23.2041  -53.2051 C.2       16 UNK         0.5000 
     93 O          -6.3006  -23.1396  -54.4088 O.2       16 UNK        -0.5000 
     94 N          -6.2652  -24.2666  -52.4354 N.am      17 UNK        -0.5000 
     95 CA         -5.6497  -25.5121  -52.8959 C.3       17 UNK         0.1400 
     96 CB         -5.8419  -26.5898  -51.8181 C.3       17 UNK        -0.1800 
     97 C          -4.1616  -25.3780  -53.2732 C.2       17 UNK         0.5000 
     98 O          -3.6857  -26.1543  -54.1038 O.2       17 UNK        -0.5000 
     99 N          -3.4507  -24.4053  -52.6824 N.am      18 UNK        -0.5000 
    100 CA        -2.0664  -24.0488  -53.0021 C.3       18 UNK         0.1400 
    101 CB        -1.4748  -23.2136  -51.8523 C.3       18 UNK        -0.1800 
    102 C         -1.9727  -23.3358  -54.3676 C.2       18 UNK         0.5000 
    103 O         -1.7347  -22.1270  -54.4353 O.2       18 UNK        -0.5000 
    104 N         -2.1808  -24.1115  -55.4388 N.am      19 UNK        -0.5000 
    105 CA        -2.2667  -23.6857  -56.8385 C.3       19 UNK         0.1400 
    106 CB        -2.6044  -24.9075  -57.7054 C.3       19 UNK        -0.1800 
    107 C         -1.0172  -22.9667  -57.3842 C.2       19 UNK         0.5000 
    108 O         -1.1264  -22.2340  -58.3671 O.2       19 UNK        -0.5000 
    109 N          0.1341  -23.1454  -56.7227 N.am      20 UNK        -0.5000 
    110 CA         1.3757  -22.4158  -56.9884 C.3       20 UNK         0.1400 
    111 CB         2.4972  -23.0138  -56.1253 C.3       20 UNK        -0.1800 
    112 C          1.2608  -20.8954  -56.7448 C.2       20 UNK         0.5000 
    113 O          2.0016  -20.1324  -57.3665 O.2       20 UNK        -0.5000 
    114 N          0.3379  -20.4882  -55.8622 N.am      21 UNK        -0.5000 
    115 CA         0.0282  -19.0930  -55.5558 C.3       21 UNK         0.1400 
    116 CB         0.2547  -18.8514  -54.0564 C.3       21 UNK        -0.1800 
    117 C         -1.4163  -18.7405  -55.9487 C.2       21 UNK         0.5000 
    118 O         -1.6402  -17.6700  -56.5150 O.2       21 UNK        -0.5000 
    119 N         -2.3655  -19.6358  -55.6465 N.am      22 UNK        -0.5000 
    120 CA        -3.8101  -19.4363  -55.8593 C.3       22 UNK         0.1400 
    121 C         -4.3446  -19.9572  -57.2255 C.2       22 UNK         0.5000 
    122 N         -3.5204  -20.4849  -58.1200 N.am      22 UNK        -0.7600 
    123 O         -5.5373  -19.8540  -57.4988 O.2       22 UNK        -0.5000 
    124 C124       -4.6313  -19.9840  -54.6612 C.3       23 UNK        -0.0398 
    125 S125       -4.4750  -18.8991  -53.2027 S.3       23 UNK        -0.2404 
    126 C126       -3.3401  -19.8412  -52.1340 C.3       23 UNK        -0.0205 
    127 H127       -5.6596  -18.2617  -42.6077 H         1 UNK         0.0600 
    128 H128       -6.4834  -16.9559  -41.7494 H         1 UNK         0.0600 
    129 H129       -5.1220  -17.7904  -40.9930 H         1 UNK         0.0600 
    130 H130       -4.3799  -17.4707  -44.2329 H         1 UNK         0.3000 
    131 H131       -3.6959  -14.8467  -44.6962 H         1 UNK         0.0600 
    132 H132       -2.2043  -15.6823  -46.4682 H         1 UNK         0.0800 
    133 H133       -2.1895  -17.2870  -45.7921 H         1 UNK         0.0800 
    134 H134       -4.7125  -16.0770  -49.1125 H         1 UNK         0.0800 
    135 H135       -3.2777  -15.3179  -48.4902 H         1 UNK         0.0800 
    136 H136       -4.5758  -18.0102  -50.4855 H         1 UNK         0.1150 
    137 H137       -0.7665  -19.8049  -51.2729 H         1 UNK         0.1150 
    138 H138       -1.1239  -16.7846  -48.2642 H         1 UNK         0.1150 
    139 H139        1.2330  -18.7909  -50.3328 H         1 UNK         0.0800 
    140 H140        1.1019  -17.4096  -49.2803 H         1 UNK         0.0800 
    141 H141        1.6563  -21.6271  -48.8651 H         1 UNK         0.0800 
    142 H142        0.1881  -21.0497  -49.5673 H         1 UNK         0.0800 
    143 H143       -0.4455  -22.8584  -48.2874 H         1 UNK         0.0600 
    144 H144        1.4109  -22.0154  -46.1875 H         1 UNK         0.3000 
    145 H145        0.7841  -25.0263  -44.3141 H         1 UNK         0.0600 
    146 H146        3.2369  -25.2415  -44.5731 H         1 UNK         0.0600 
    147 H147        2.4395  -25.6557  -46.0818 H         1 UNK         0.0600 
    148 H148        3.2307  -24.0931  -45.9119 H         1 UNK         0.0600 
    149 H149        2.5801  -22.8689  -43.8587 H         1 UNK         0.3000 
    150 H150        0.4000  -20.7094  -42.0998 H         1 UNK         0.0600 
    151 H151        2.5662  -22.5780  -41.0045 H         1 UNK         0.0600 
    152 H152        0.9177  -22.4617  -40.4001 H         1 UNK         0.0600 
    153 H153        1.9994  -21.0863  -40.2519 H         1 UNK         0.0600 
    154 H154        3.2125  -20.6512  -42.4463 H         1 UNK         0.3000 
    155 H155        4.0962  -18.9940  -43.8265 H         1 UNK         0.0600 
    156 H156        3.6552  -20.8092  -46.2702 H         1 UNK         0.0600 
    157 H157        4.5362  -21.2495  -44.8114 H         1 UNK         0.0600 
    158 H158        5.1620  -19.9913  -45.8630 H         1 UNK         0.0600 
    159 H159        2.9088  -18.5023  -46.4881 H         1 UNK         0.3000 
    160 H160        2.8277  -16.3457  -47.1991 H         1 UNK         0.0600 
    161 H161        0.5664  -15.3476  -47.0931 H         1 UNK         0.0600 
    162 H162        0.5162  -15.5886  -45.3487 H         1 UNK         0.0600 
    163 H163        0.5091  -16.9755  -46.4238 H         1 UNK         0.0600 
    164 H164        2.3664  -14.0797  -45.3714 H         1 UNK         0.3000 
    165 H165        5.6145  -12.7538  -45.6899 H         1 UNK         0.0600 
    166 H166        4.5651  -11.9488  -47.8108 H         1 UNK         0.0600 
    167 H167        3.0308  -11.7194  -46.9794 H         1 UNK         0.0600 
    168 H168        4.4323  -10.7441  -46.5390 H         1 UNK         0.0600 
    169 H169        3.2113  -11.7347  -44.5065 H         1 UNK         0.3000 
    170 H170        3.4377  -13.4348  -41.4359 H         1 UNK         0.0600 
    171 H171        3.6730  -11.1858  -40.4004 H         1 UNK         0.0600 
    172 H172        4.3093  -10.5384  -41.9127 H         1 UNK         0.0600 
    173 H173        5.2061  -11.7652  -41.0327 H         1 UNK         0.0600 
    174 H174        1.4068  -12.8516  -41.8994 H         1 UNK         0.3000 
    175 H175       -0.2556  -10.0333  -42.7051 H         1 UNK         0.0600 
    176 H176       -1.5649  -11.1163  -44.5663 H         1 UNK         0.0600 
    177 H177       -0.0720  -10.3844  -45.1317 H         1 UNK         0.0600 
    178 H178       -0.1699  -12.1283  -44.9405 H         1 UNK         0.0600 
    179 H179       -0.9941  -12.8639  -42.6940 H         1 UNK         0.3000 
    180 H180       -0.9726  -13.2180  -39.1927 H         1 UNK         0.0600 
    181 H181       -3.5300  -12.7962  -40.8320 H         1 UNK         0.0600 
    182 H182       -3.1296  -11.9667  -39.3321 H         1 UNK         0.0600 
    183 H183       -3.4102  -13.7013  -39.3240 H         1 UNK         0.0600 
    184 H184       -2.1617  -14.8077  -41.2445 H         1 UNK         0.3000 
    185 H185        0.6705  -16.0441  -42.8168 H         1 UNK         0.0600 
    186 H186        1.0039  -17.4363  -40.7622 H         1 UNK         0.0600 
    187 H187       -0.7327  -17.7117  -40.6630 H         1 UNK         0.0600 
    188 H188        0.1915  -18.3295  -42.0345 H         1 UNK         0.0600 
    189 H189       -1.9155  -17.1578  -42.7631 H         1 UNK         0.3000 
    190 H190       -0.4784  -20.7256  -45.4432 H         1 UNK         0.3000 
    191 H191       -3.0208  -19.5582  -45.8457 H         1 UNK         0.0600 
    192 H192       -1.3556  -18.8334  -44.1167 H         1 UNK         0.0600 
    193 H193       -2.9271  -19.1631  -43.3847 H         1 UNK         0.0600 
    194 H194       -1.6252  -20.3250  -43.2241 H         1 UNK         0.0600 
    195 H195       -2.1205  -22.7269  -44.4875 H         1 UNK         0.3000 
    196 H196       -4.7927  -23.5261  -43.7492 H         1 UNK         0.0600 
    197 H197       -3.6912  -25.7492  -43.4427 H         1 UNK         0.0600 
    198 H198       -2.7586  -24.4703  -42.6827 H         1 UNK         0.0600 
    199 H199       -2.2335  -25.1462  -44.2236 H         1 UNK         0.0600 
    200 H200       -3.3907  -23.1356  -46.8239 H         1 UNK         0.3000 
    201 H201       -5.3130  -24.9835  -48.1479 H         1 UNK         0.0600 
    202 H202       -3.4628  -25.5913  -49.7345 H         1 UNK         0.0600 
    203 H203       -2.3270  -24.6519  -48.7758 H         1 UNK         0.0600 
    204 H204       -3.0761  -26.0929  -48.0970 H         1 UNK         0.0600 
    205 H205       -5.7182  -22.2732  -47.5675 H         1 UNK         0.3000 
    206 H206       -4.7481  -20.4775  -49.4946 H         1 UNK         0.0600 
    207 H207       -5.3705  -19.8159  -47.2250 H         1 UNK         0.0600 
    208 H208       -6.2855  -18.8707  -48.3776 H         1 UNK         0.0600 
    209 H209       -7.0660  -20.2028  -47.5279 H         1 UNK         0.0600 
    210 H210       -5.7246  -22.4243  -51.0426 H         1 UNK         0.3000 
    211 H211       -7.0565  -21.1202  -53.1089 H         1 UNK         0.0600 
    212 H212       -8.8915  -23.0793  -51.6024 H         1 UNK         0.0600 
    213 H213       -9.1867  -22.5048  -53.2394 H         1 UNK         0.0600 
    214 H214       -9.2098  -21.3724  -51.9030 H         1 UNK         0.0600 
    215 H215       -6.5252  -24.2349  -51.4613 H         1 UNK         0.3000 
    216 H216       -6.1798  -25.8355  -53.7942 H         1 UNK         0.0600 
    217 H217       -5.3856  -27.5334  -52.1204 H         1 UNK         0.0600 
    218 H218       -6.8998  -26.7848  -51.6419 H         1 UNK         0.0600 
    219 H219       -5.3938  -26.2966  -50.8691 H         1 UNK         0.0600 
    220 H220       -3.8957  -23.8496  -51.9581 H         1 UNK         0.3000 
    221 H221       -1.4784  -24.9661  -53.0729 H         1 UNK         0.0600 
    222 H222       -2.0642  -22.3207  -51.6529 H         1 UNK         0.0600 
    223 H223       -1.4350  -23.7919  -50.9296 H         1 UNK         0.0600 
    224 H224       -0.4571  -22.8937  -52.0791 H         1 UNK         0.0600 
    225 H225       -2.4428  -25.0745  -55.2534 H         1 UNK         0.3000 
    226 H226       -3.0983  -22.9825  -56.9054 H         1 UNK         0.0600 
    227 H227       -2.7175  -24.6262  -58.7534 H         1 UNK         0.0600 
    228 H228       -1.8230  -25.6664  -57.6504 H         1 UNK         0.0600 
    229 H229       -3.5419  -25.3669  -57.3911 H         1 UNK         0.0600 
    230 H230        0.1339  -23.7700  -55.9303 H         1 UNK         0.3000 
    231 H231        1.6334  -22.5626  -58.0393 H         1 UNK         0.0600 
    232 H232        2.2817  -22.9141  -55.0607 H         1 UNK         0.0600 
    233 H233        3.4468  -22.5121  -56.3164 H         1 UNK         0.0600 
    234 H234        2.6413  -24.0723  -56.3424 H         1 UNK         0.0600 
    235 H235       -0.2356  -21.1878  -55.4041 H         1 UNK         0.3000 
    236 H236        0.6866  -18.4190  -56.1076 H         1 UNK         0.0600 
    237 H237       -0.0431  -17.8430  -53.7659 H         1 UNK         0.0600 
    238 H238       -0.3212  -19.5539  -53.4569 H         1 UNK         0.0600 
    239 H239        1.3055  -18.9721  -53.7931 H         1 UNK         0.0600 
    240 H240       -2.1064  -20.5030  -55.1842 H         1 UNK         0.3000 
    241 H241       -4.0022  -18.3625  -55.9051 H         1 UNK         0.0600 
    242 H242       -2.5330  -20.5932  -57.9381 H         1 UNK         0.3800 
    243 H243       -3.8932  -20.7952  -59.0030 H         1 UNK         0.3800 
    244 H244       -4.3369  -21.0056  -54.4155 H         1 UNK         0.0800 
    245 H245       -5.6951  -20.0274  -54.8997 H         1 UNK         0.0800 
    246 H246       -2.5430  -20.2415  -52.7592 H         1 UNK         0.0800 
    247 H247       -3.8628  -20.6974  -51.7098 H         1 UNK         0.0800 
@<TRIPOS>BOND
     1    1    2 1    
     2    1  127 1    
     3    1  128 1    
     4    1  129 1    
     5    2    3 2    
     6    2    4 am   BACKBONE|DICT|INTERRES
     7    4    5 1    
     8    4  130 1    
     9    5    6 1    
    10    5   65 1    
    11    5  131 1    
    12    6    7 1    
    13    6  132 1    
    14    6  133 1    
    15    7    8 1    
    16    8    9 1    
    17    8  134 1    
    18    8  135 1    
    19    9   10 ar   
    20    9   14 ar   
    21   10   11 ar   
    22   10  136 1    
    23   11   12 ar   
    24   11  126 1    
    25   12   13 ar   
    26   12  137 1    
    27   13   14 ar   
    28   13   15 1    
    29   14  138 1    
    30   15   16 1    
    31   15  139 1    
    32   15  140 1    
    33   16   17 1    
    34   17   18 1    
    35   17  141 1    
    36   17  142 1    
    37   18   19 1    
    38   18   67 1    
    39   18  143 1    
    40   19   20 am   BACKBONE|DICT|INTERRES
    41   19  144 1    
    42   20   21 2    
    43   20   22 1    
    44   22   23 1    
    45   22   24 1    
    46   22  145 1    
    47   23  146 1    
    48   23  147 1    
    49   23  148 1    
    50   24   25 am   BACKBONE|DICT|INTERRES
    51   24  149 1    
    52   25   26 2    
    53   25   27 1    
    54   27   28 1    
    55   27   29 1    
    56   27  150 1    
    57   28  151 1    
    58   28  152 1    
    59   28  153 1    
    60   29   30 am   BACKBONE|DICT|INTERRES
    61   29  154 1    
    62   30   31 2    
    63   30   32 1    
    64   32   33 1    
    65   32   34 1    
    66   32  155 1    
    67   33  156 1    
    68   33  157 1    
    69   33  158 1    
    70   34   35 am   BACKBONE|DICT|INTERRES
    71   34  159 1    
    72   35   36 2    
    73   35   37 1    
    74   37   38 1    
    75   37   39 1    
    76   37  160 1    
    77   38  161 1    
    78   38  162 1    
    79   38  163 1    
    80   39   40 am   BACKBONE|DICT|INTERRES
    81   39  164 1    
    82   40   41 2    
    83   40   42 1    
    84   42   43 1    
    85   42   44 1    
    86   42  165 1    
    87   43  166 1    
    88   43  167 1    
    89   43  168 1    
    90   44   45 am   BACKBONE|DICT|INTERRES
    91   44  169 1    
    92   45   46 2    
    93   45   47 1    
    94   47   48 1    
    95   47   49 1    
    96   47  170 1    
    97   48  171 1    
    98   48  172 1    
    99   48  173 1    
   100   49   50 am   BACKBONE|DICT|INTERRES
   101   49  174 1    
   102   50   51 2    
   103   50   52 1    
   104   52   53 1    
   105   52   54 1    
   106   52  175 1    
   107   53  176 1    
   108   53  177 1    
   109   53  178 1    
   110   54   55 am   BACKBONE|DICT|INTERRES
   111   54  179 1    
   112   55   56 2    
   113   55   57 1    
   114   57   58 1    
   115   57   59 1    
   116   57  180 1    
   117   58  181 1    
   118   58  182 1    
   119   58  183 1    
   120   59   60 am   BACKBONE|DICT|INTERRES
   121   59  184 1    
   122   60   61 2    
   123   60   62 1    
   124   62   63 1    
   125   62   64 1    
   126   62  185 1    
   127   63  186 1    
   128   63  187 1    
   129   63  188 1    
   130   64   65 am   BACKBONE|DICT|INTERRES
   131   64  189 1    
   132   65   66 2    
   133   67   68 2    
   134   67   69 am   BACKBONE|DICT|INTERRES
   135   69   70 1    
   136   69  190 1    
   137   70   71 1    
   138   70   72 1    
   139   70  191 1    
   140   71  192 1    
   141   71  193 1    
   142   71  194 1    
   143   72   73 2    
   144   72   74 am   BACKBONE|DICT|INTERRES
   145   74   75 1    
   146   74  195 1    
   147   75   76 1    
   148   75   77 1    
   149   75  196 1    
   150   76  197 1    
   151   76  198 1    
   152   76  199 1    
   153   77   78 2    
   154   77   79 am   BACKBONE|DICT|INTERRES
   155   79   80 1    
   156   79  200 1    
   157   80   81 1    
   158   80   82 1    
   159   80  201 1    
   160   81  202 1    
   161   81  203 1    
   162   81  204 1    
   163   82   83 2    
   164   82   84 am   BACKBONE|DICT|INTERRES
   165   84   85 1    
   166   84  205 1    
   167   85   86 1    
   168   85   87 1    
   169   85  206 1    
   170   86  207 1    
   171   86  208 1    
   172   86  209 1    
   173   87   88 2    
   174   87   89 am   BACKBONE|DICT|INTERRES
   175   89   90 1    
   176   89  210 1    
   177   90   91 1    
   178   90   92 1    
   179   90  211 1    
   180   91  212 1    
   181   91  213 1    
   182   91  214 1    
   183   92   93 2    
   184   92   94 am   BACKBONE|DICT|INTERRES
   185   94   95 1    
   186   94  215 1    
   187   95   96 1    
   188   95   97 1    
   189   95  216 1    
   190   96  217 1    
   191   96  218 1    
   192   96  219 1    
   193   97   98 2    
   194   97   99 am   BACKBONE|DICT|INTERRES
   195   99  100 1    
   196   99  220 1    
   197  100  101 1    
   198  100  102 1    
   199  100  221 1    
   200  101  222 1    
   201  101  223 1    
   202  101  224 1    
   203  102  103 2    
   204  102  104 am   BACKBONE|DICT|INTERRES
   205  104  105 1    
   206  104  225 1    
   207  105  106 1    
   208  105  107 1    
   209  105  226 1    
   210  106  227 1    
   211  106  228 1    
   212  106  229 1    
   213  107  108 2    
   214  107  109 am   BACKBONE|DICT|INTERRES
   215  109  110 1    
   216  109  230 1    
   217  110  111 1    
   218  110  112 1    
   219  110  231 1    
   220  111  232 1    
   221  111  233 1    
   222  111  234 1    
   223  112  113 2    
   224  112  114 am   BACKBONE|DICT|INTERRES
   225  114  115 1    
   226  114  235 1    
   227  115  116 1    
   228  115  117 1    
   229  115  236 1    
   230  116  237 1    
   231  116  238 1    
   232  116  239 1    
   233  117  118 2    
   234  117  119 am   BACKBONE|DICT|INTERRES
   235  119  120 1    
   236  119  240 1    
   237  120  121 1    
   238  120  124 1    
   239  120  241 1    
   240  121  122 am   BACKBONE|DICT|INTERRES
   241  121  123 2    
   242  122  242 1    
   243  122  243 1    
   244  124  125 1    
   245  124  244 1    
   246  124  245 1    
   247  125  126 1    
   248  126  246 1    
   249  126  247 1    
@<TRIPOS>SUBSTRUCTURE
     1 UNK         1 GROUP             0       ****    0 ROOT    
