@<TRIPOS>MOLECULE
3R540
247   249    1
SMALL
USER_CHARGES


@<TRIPOS>ATOM
      1 CA          1.2542  -13.5728  -53.0497 C.3       0 UNK        -0.1800 
      2 C           1.3271  -13.7518  -51.5397 C.2       0 UNK         0.5000 
      3 O           2.4124  -13.9725  -51.0018 O.2       0 UNK        -0.5000 
      4 N           0.1771  -13.6655  -50.8604 N.am      1 UNK        -0.5000 
      5 CA          0.0564  -13.7992  -49.4062 C.3       1 UNK         0.1400 
      6 C6         -1.4075  -14.0982  -48.9842 C.3       23 UNK        -0.0398 
      7 S7         -1.4875  -15.2482  -47.5694 S.3       23 UNK        -0.2404 
      8 C8         -1.8637  -16.8149  -48.4168 C.3       23 UNK        -0.0205 
      9 C9         -0.7369  -17.2421  -49.3457 C.ar      23 UNK        -0.0193 
     10 C10        -0.8613  -17.1068  -50.7308 C.ar      23 UNK        -0.1150 
     11 C11         0.1721  -17.5168  -51.5786 C.ar      23 UNK        -0.0193 
     12 C12         1.3438  -18.0493  -51.0310 C.ar      23 UNK        -0.1150 
     13 C13         1.4784  -18.1910  -49.6472 C.ar      23 UNK        -0.0193 
     14 C14         0.4326  -17.7859  -48.8146 C.ar      23 UNK        -0.1150 
     15 C15         2.7530  -18.7703  -49.0466 C.3       23 UNK        -0.0205 
     16 S16         2.9183  -20.5640  -49.3277 S.3       23 UNK        -0.2404 
     17 C17         1.3901  -21.2374  -48.5907 C.3       23 UNK        -0.0398 
     18 CA          1.6559  -22.3690  -47.5651 C.3       11 UNK         0.1400 
     19 N           2.2966  -21.8732  -46.3447 N.am      11 UNK        -0.5000 
     20 C           3.0789  -22.5950  -45.5333 C.2       10 UNK         0.5000 
     21 O           3.4135  -23.7574  -45.7684 O.2       10 UNK        -0.5000 
     22 CA          3.5064  -21.9297  -44.2139 C.3       10 UNK         0.1400 
     23 CB          4.5348  -20.8144  -44.4606 C.3       10 UNK        -0.1800 
     24 N           2.3609  -21.3982  -43.4731 N.am      10 UNK        -0.5000 
     25 C           1.4240  -22.1493  -42.8741 C.2       9 UNK         0.5000 
     26 O           1.4593  -23.3790  -42.8336 O.2       9 UNK        -0.5000 
     27 CA          0.2456  -21.4092  -42.2105 C.3       9 UNK         0.1400 
     28 CB          0.6185  -20.9379  -40.7970 C.3       9 UNK        -0.1800 
     29 N          -0.2115  -20.2681  -43.0015 N.am      9 UNK        -0.5000 
     30 C          -0.8612  -20.3710  -44.1693 C.2       8 UNK         0.5000 
     31 O          -1.2506  -21.4386  -44.6389 O.2       8 UNK        -0.5000 
     32 CA         -1.0881  -19.0662  -44.9575 C.3       8 UNK         0.1400 
     33 CB         -2.4498  -18.4418  -44.6189 C.3       8 UNK        -0.1800 
     34 N          -0.0345  -18.0759  -44.7241 N.am      8 UNK        -0.5000 
     35 C           1.2325  -18.2150  -45.1344 C.2       7 UNK         0.5000 
     36 O           1.6403  -19.1899  -45.7623 O.2       7 UNK        -0.5000 
     37 CA          2.2141  -17.0967  -44.7497 C.3       7 UNK         0.1400 
     38 CB          2.0141  -15.8622  -45.6405 C.3       7 UNK        -0.1800 
     39 N           2.0952  -16.7210  -43.3407 N.am      7 UNK        -0.5000 
     40 C           2.4123  -17.5359  -42.3230 C.2       6 UNK         0.5000 
     41 O           2.8943  -18.6573  -42.4760 O.2       6 UNK        -0.5000 
     42 CA          2.0970  -17.0435  -40.8973 C.3       6 UNK         0.1400 
     43 CB          3.3009  -16.2908  -40.3119 C.3       6 UNK        -0.1800 
     44 N           0.9139  -16.1859  -40.8172 N.am      6 UNK        -0.5000 
     45 C          -0.3245  -16.5135  -41.2141 C.2       5 UNK         0.5000 
     46 O          -0.6217  -17.6191  -41.6667 O.2       5 UNK        -0.5000 
     47 CA         -1.4074  -15.4188  -41.1174 C.3       5 UNK         0.1400 
     48 CB         -2.3920  -15.7383  -39.9824 C.3       5 UNK        -0.1800 
     49 N          -0.8739  -14.0657  -40.9184 N.am      5 UNK        -0.5000 
     50 C          -0.1647  -13.3771  -41.8223 C.2       4 UNK         0.5000 
     51 O           0.1425  -13.8171  -42.9331 O.2       4 UNK        -0.5000 
     52 CA          0.3566  -12.0030  -41.3704 C.3       4 UNK         0.1400 
     53 CB          1.7973  -12.1311  -40.8504 C.3       4 UNK        -0.1800 
     54 N           0.3385  -11.0523  -42.4771 N.am      4 UNK        -0.5000 
     55 C          -0.7366  -10.3595  -42.8760 C.2       3 UNK         0.5000 
     56 O          -1.8199  -10.3791  -42.2901 O.2       3 UNK        -0.5000 
     57 CA         -0.5732   -9.5013  -44.1480 C.3       3 UNK         0.1400 
     58 CB         -0.1893   -8.0596  -43.7808 C.3       3 UNK        -0.1800 
     59 N           0.4284  -10.0455  -45.0699 N.am      3 UNK        -0.5000 
     60 C           0.2559  -11.1675  -45.7802 C.2       2 UNK         0.5000 
     61 O          -0.8046  -11.7971  -45.8100 O.2       2 UNK        -0.5000 
     62 CA          1.4923  -11.6830  -46.5412 C.3       2 UNK         0.1400 
     63 CB          2.5404  -12.2215  -45.5526 C.3       2 UNK        -0.1800 
     64 N           1.1250  -12.7529  -47.4677 N.am      2 UNK        -0.5000 
     65 C           0.5987  -12.5502  -48.6803 C.2       1 UNK         0.5000 
     66 O           0.4952  -11.4376  -49.2054 O.2       1 UNK        -0.5000 
     67 C           0.3609  -23.1206  -47.1912 C.2       11 UNK         0.5000 
     68 O          -0.7274  -22.6945  -47.5710 O.2       11 UNK        -0.5000 
     69 N           0.4991  -24.2184  -46.4335 N.am      12 UNK        -0.5000 
     70 CA         -0.6070  -25.0415  -45.9348 C.3       12 UNK         0.1400 
     71 CB         -0.0577  -26.0606  -44.9259 C.3       12 UNK        -0.1800 
     72 C          -1.3931  -25.7637  -47.0472 C.2       12 UNK         0.5000 
     73 O          -2.5836  -26.0352  -46.8718 O.2       12 UNK        -0.5000 
     74 N          -0.7144  -26.0485  -48.1682 N.am      13 UNK        -0.5000 
     75 CA         -1.2661  -26.6450  -49.3855 C.3       13 UNK         0.1400 
     76 CB         -0.1338  -26.7978  -50.4127 C.3       13 UNK        -0.1800 
     77 C          -2.4192  -25.8182  -49.9847 C.2       13 UNK         0.5000 
     78 O          -2.4642  -24.6024  -49.7962 O.2       13 UNK        -0.5000 
     79 N          -3.3320  -26.5007  -50.6899 N.am      14 UNK        -0.5000 
     80 CA         -4.5496  -25.9479  -51.3007 C.3       14 UNK         0.1400 
     81 CB         -4.1975  -24.9835  -52.4535 C.3       14 UNK        -0.1800 
     82 C          -5.5202  -25.3301  -50.2674 C.2       14 UNK         0.5000 
     83 O          -6.2199  -24.3672  -50.5800 O.2       14 UNK        -0.5000 
     84 N          -5.5421  -25.9166  -49.0587 N.am      15 UNK        -0.5000 
     85 CA         -6.3180  -25.5136  -47.8818 C.3       15 UNK         0.1400 
     86 CB         -7.8314  -25.6876  -48.1320 C.3       15 UNK        -0.1800 
     87 C          -5.9376  -24.0990  -47.4014 C.2       15 UNK         0.5000 
     88 O          -6.7769  -23.1969  -47.4003 O.2       15 UNK        -0.5000 
     89 N          -4.6635  -23.9458  -47.0100 N.am      16 UNK        -0.5000 
     90 CA         -4.0222  -22.7004  -46.5720 C.3       16 UNK         0.1400 
     91 CB         -4.6647  -22.1672  -45.2737 C.3       16 UNK        -0.1800 
     92 C          -3.9614  -21.6570  -47.7064 C.2       16 UNK         0.5000 
     93 O          -4.3694  -20.5066  -47.5267 O.2       16 UNK        -0.5000 
     94 N          -3.4720  -22.1062  -48.8697 N.am      17 UNK        -0.5000 
     95 CA         -3.2871  -21.4085  -50.1408 C.3       17 UNK         0.1400 
     96 CB         -2.3668  -20.1843  -49.9927 C.3       17 UNK        -0.1800 
     97 C          -4.6012  -21.0475  -50.8495 C.2       17 UNK         0.5000 
     98 O          -4.7732  -21.4067  -52.0150 O.2       17 UNK        -0.5000 
     99 N          -5.4787  -20.3109  -50.1519 N.am      18 UNK        -0.5000 
    100 CA        -6.8368  -19.8948  -50.5352 C.3       18 UNK         0.1400 
    101 CB        -7.7634  -21.1274  -50.5452 C.3       18 UNK        -0.1800 
    102 C         -6.9434  -19.0992  -51.8586 C.2       18 UNK         0.5000 
    103 O         -8.0456  -18.9548  -52.3894 O.2       18 UNK        -0.5000 
    104 N         -5.7997  -18.6353  -52.3874 N.am      19 UNK        -0.5000 
    105 CA        -5.5827  -18.1129  -53.7432 C.3       19 UNK         0.1400 
    106 CB        -6.3369  -16.7843  -53.9548 C.3       19 UNK        -0.1800 
    107 C         -5.8739  -19.1466  -54.8598 C.2       19 UNK         0.5000 
    108 O         -6.0171  -18.7672  -56.0231 O.2       19 UNK        -0.5000 
    109 N         -5.9287  -20.4385  -54.5065 N.am      20 UNK        -0.5000 
    110 CA        -6.2280  -21.5625  -55.3915 C.3       20 UNK         0.1400 
    111 CB        -7.0644  -22.5892  -54.6071 C.3       20 UNK        -0.1800 
    112 C         -4.9134  -22.1472  -55.9347 C.2       20 UNK         0.5000 
    113 O         -4.5699  -23.2940  -55.6458 O.2       20 UNK        -0.5000 
    114 N         -4.1607  -21.2965  -56.6475 N.am      21 UNK        -0.5000 
    115 CA        -2.7949  -21.4973  -57.1562 C.3       21 UNK         0.1400 
    116 CB        -2.7248  -22.6963  -58.1243 C.3       21 UNK        -0.1800 
    117 C         -1.7112  -21.5754  -56.0556 C.2       21 UNK         0.5000 
    118 O         -0.5356  -21.7468  -56.3803 O.2       21 UNK        -0.5000 
    119 N         -2.1149  -21.4166  -54.7879 N.am      22 UNK        -0.5000 
    120 CA        -1.2717  -21.3773  -53.5820 C.3       22 UNK         0.1400 
    121 C         -0.5708  -22.7237  -53.2230 C.2       22 UNK         0.5000 
    122 N         -1.0028  -23.8552  -53.7666 N.am      22 UNK        -0.7600 
    123 O          0.3575  -22.7524  -52.4205 O.2       22 UNK        -0.5000 
    124 C124       -0.3072  -20.1585  -53.5547 C.3       23 UNK        -0.0398 
    125 S125       -1.1913  -18.5699  -53.7548 S.3       23 UNK        -0.2404 
    126 C126        0.0171  -17.3834  -53.0854 C.3       23 UNK        -0.0205 
    127 H127        1.8440  -12.7083  -53.3542 H         1 UNK         0.0600 
    128 H128        0.2297  -13.4245  -53.3920 H         1 UNK         0.0600 
    129 H129        1.6547  -14.4542  -53.5507 H         1 UNK         0.0600 
    130 H130       -0.6725  -13.4354  -51.3543 H         1 UNK         0.3000 
    131 H131        0.6842  -14.6482  -49.1246 H         1 UNK         0.0600 
    132 H132       -1.9540  -13.1877  -48.7294 H         1 UNK         0.0800 
    133 H133       -1.9668  -14.5385  -49.8102 H         1 UNK         0.0800 
    134 H134       -2.0278  -17.5915  -47.6689 H         1 UNK         0.0800 
    135 H135       -2.8027  -16.7186  -48.9641 H         1 UNK         0.0800 
    136 H136       -1.7663  -16.6951  -51.1542 H         1 UNK         0.1150 
    137 H137        2.1486  -18.3658  -51.6793 H         1 UNK         0.1150 
    138 H138        0.5218  -17.8920  -47.7469 H         1 UNK         0.1150 
    139 H139        3.6137  -18.2669  -49.4886 H         1 UNK         0.0800 
    140 H140        2.8063  -18.5687  -47.9772 H         1 UNK         0.0800 
    141 H141        0.7875  -21.6072  -49.4228 H         1 UNK         0.0800 
    142 H142        0.8078  -20.4431  -48.1234 H         1 UNK         0.0800 
    143 H143        2.3141  -23.0970  -48.0443 H         1 UNK         0.0600 
    144 H144        2.0528  -20.9222  -46.0723 H         1 UNK         0.3000 
    145 H145        3.9840  -22.6927  -43.5957 H         1 UNK         0.0600 
    146 H146        4.8980  -20.4005  -43.5198 H         1 UNK         0.0600 
    147 H147        5.4002  -21.1953  -45.0042 H         1 UNK         0.0600 
    148 H148        4.1155  -19.9949  -45.0444 H         1 UNK         0.0600 
    149 H149        2.2944  -20.3886  -43.4082 H         1 UNK         0.3000 
    150 H150       -0.5843  -22.1136  -42.1221 H         1 UNK         0.0600 
    151 H151        0.8820  -21.7852  -40.1628 H         1 UNK         0.0600 
    152 H152       -0.2134  -20.4190  -40.3203 H         1 UNK         0.0600 
    153 H153        1.4728  -20.2620  -40.8090 H         1 UNK         0.0600 
    154 H154       -0.0063  -19.3418  -42.6441 H         1 UNK         0.3000 
    155 H155       -1.0844  -19.3201  -46.0201 H         1 UNK         0.0600 
    156 H156       -3.2631  -19.1210  -44.8742 H         1 UNK         0.0600 
    157 H157       -2.6127  -17.5205  -45.1784 H         1 UNK         0.0600 
    158 H158       -2.5350  -18.2092  -43.5569 H         1 UNK         0.0600 
    159 H159       -0.2826  -17.2722  -44.1661 H         1 UNK         0.3000 
    160 H160        3.2251  -17.4738  -44.9187 H         1 UNK         0.0600 
    161 H161        1.0614  -15.3690  -45.4424 H         1 UNK         0.0600 
    162 H162        2.0352  -16.1309  -46.6975 H         1 UNK         0.0600 
    163 H163        2.8129  -15.1401  -45.4774 H         1 UNK         0.0600 
    164 H164        1.6828  -15.8207  -43.1359 H         1 UNK         0.3000 
    165 H165        1.9078  -17.9224  -40.2786 H         1 UNK         0.0600 
    166 H166        3.1275  -16.0166  -39.2711 H         1 UNK         0.0600 
    167 H167        4.1988  -16.9099  -40.3379 H         1 UNK         0.0600 
    168 H168        3.5148  -15.3778  -40.8693 H         1 UNK         0.0600 
    169 H169        1.0569  -15.2569  -40.4520 H         1 UNK         0.3000 
    170 H170       -1.9579  -15.4291  -42.0605 H         1 UNK         0.0600 
    171 H171       -2.8361  -16.7259  -40.1158 H         1 UNK         0.0600 
    172 H172       -1.9006  -15.7285  -39.0087 H         1 UNK         0.0600 
    173 H173       -3.2100  -15.0182  -39.9546 H         1 UNK         0.0600 
    174 H174       -1.0667  -13.6404  -40.0226 H         1 UNK         0.3000 
    175 H175       -0.2729  -11.6254  -40.5616 H         1 UNK         0.0600 
    176 H176        2.4715  -12.5148  -41.6176 H         1 UNK         0.0600 
    177 H177        2.1829  -11.1672  -40.5178 H         1 UNK         0.0600 
    178 H178        1.8485  -12.8107  -39.9988 H         1 UNK         0.0600 
    179 H179        1.1699  -11.0117  -43.0460 H         1 UNK         0.3000 
    180 H180       -1.5383   -9.4774  -44.6588 H         1 UNK         0.0600 
    181 H181        0.7760   -8.0153  -43.2750 H         1 UNK         0.0600 
    182 H182       -0.9300   -7.6169  -43.1134 H         1 UNK         0.0600 
    183 H183       -0.1342   -7.4277  -44.6675 H         1 UNK         0.0600 
    184 H184        1.3183   -9.5690  -45.1039 H         1 UNK         0.3000 
    185 H185        1.9317  -10.8546  -47.1011 H         1 UNK         0.0600 
    186 H186        3.3765  -12.6877  -46.0743 H         1 UNK         0.0600 
    187 H187        2.9526  -11.4186  -44.9408 H         1 UNK         0.0600 
    188 H188        2.1106  -12.9581  -44.8727 H         1 UNK         0.0600 
    189 H189        1.1013  -13.6843  -47.0803 H         1 UNK         0.3000 
    190 H190        1.4326  -24.4691  -46.1286 H         1 UNK         0.3000 
    191 H191       -1.3017  -24.3834  -45.4095 H         1 UNK         0.0600 
    192 H192        0.4289  -25.5632  -44.0873 H         1 UNK         0.0600 
    193 H193       -0.8596  -26.6757  -44.5154 H         1 UNK         0.0600 
    194 H194        0.6691  -26.7312  -45.3860 H         1 UNK         0.0600 
    195 H195        0.2483  -25.7523  -48.2146 H         1 UNK         0.3000 
    196 H196       -1.6459  -27.6349  -49.1251 H         1 UNK         0.0600 
    197 H197       -0.4932  -27.2734  -51.3261 H         1 UNK         0.0600 
    198 H198        0.6745  -27.4167  -50.0227 H         1 UNK         0.0600 
    199 H199        0.2868  -25.8302  -50.6915 H         1 UNK         0.0600 
    200 H200       -3.2084  -27.4980  -50.7988 H         1 UNK         0.3000 
    201 H201       -5.0809  -26.7943  -51.7380 H         1 UNK         0.0600 
    202 H202       -3.5188  -25.4508  -53.1664 H         1 UNK         0.0600 
    203 H203       -3.7269  -24.0690  -52.0928 H         1 UNK         0.0600 
    204 H204       -5.0905  -24.6915  -53.0058 H         1 UNK         0.0600 
    205 H205       -4.9069  -26.6878  -48.9110 H         1 UNK         0.3000 
    206 H206       -6.0411  -26.1987  -47.0790 H         1 UNK         0.0600 
    207 H207       -8.0658  -26.7080  -48.4347 H         1 UNK         0.0600 
    208 H208       -8.4002  -25.4788  -47.2253 H         1 UNK         0.0600 
    209 H209       -8.1991  -25.0152  -48.9077 H         1 UNK         0.0600 
    210 H210       -4.0443  -24.7502  -47.0640 H         1 UNK         0.3000 
    211 H211       -2.9911  -22.9563  -46.3334 H         1 UNK         0.0600 
    212 H212       -5.6820  -21.8101  -45.4339 H         1 UNK         0.0600 
    213 H213       -4.0877  -21.3344  -44.8733 H         1 UNK         0.0600 
    214 H214       -4.6942  -22.9377  -44.5035 H         1 UNK         0.0600 
    215 H215       -3.1617  -23.0747  -48.9074 H         1 UNK         0.3000 
    216 H216       -2.7725  -22.1250  -50.7810 H         1 UNK         0.0600 
    217 H217       -2.1769  -19.7159  -50.9579 H         1 UNK         0.0600 
    218 H218       -1.4017  -20.4653  -49.5726 H         1 UNK         0.0600 
    219 H219       -2.8014  -19.4228  -49.3468 H         1 UNK         0.0600 
    220 H220       -5.2121  -20.0995  -49.1930 H         1 UNK         0.3000 
    221 H221       -7.1817  -19.2231  -49.7483 H         1 UNK         0.0600 
    222 H222       -7.5040  -21.8180  -51.3488 H         1 UNK         0.0600 
    223 H223       -7.7002  -21.6760  -49.6052 H         1 UNK         0.0600 
    224 H224       -8.8066  -20.8406  -50.6818 H         1 UNK         0.0600 
    225 H225       -4.9587  -18.8148  -51.8584 H         1 UNK         0.3000 
    226 H226       -4.5153  -17.8975  -53.8114 H         1 UNK         0.0600 
    227 H227       -6.1177  -16.0750  -53.1568 H         1 UNK         0.0600 
    228 H228       -6.0437  -16.3140  -54.8941 H         1 UNK         0.0600 
    229 H229       -7.4167  -16.9300  -53.9883 H         1 UNK         0.0600 
    230 H230       -5.7070  -20.6878  -53.5457 H         1 UNK         0.3000 
    231 H231       -6.8214  -21.2259  -56.2440 H         1 UNK         0.0600 
    232 H232       -6.5415  -22.9379  -53.7158 H         1 UNK         0.0600 
    233 H233       -7.2946  -23.4612  -55.2203 H         1 UNK         0.0600 
    234 H234       -8.0121  -22.1573  -54.2853 H         1 UNK         0.0600 
    235 H235       -4.5396  -20.3682  -56.7927 H         1 UNK         0.3000 
    236 H236       -2.5637  -20.6008  -57.7331 H         1 UNK         0.0600 
    237 H237       -3.4887  -22.6245  -58.8984 H         1 UNK         0.0600 
    238 H238       -1.7579  -22.7344  -58.6272 H         1 UNK         0.0600 
    239 H239       -2.8566  -23.6472  -57.6078 H         1 UNK         0.0600 
    240 H240       -3.1050  -21.3116  -54.6259 H         1 UNK         0.3000 
    241 H241       -1.9791  -21.2299  -52.7696 H         1 UNK         0.0600 
    242 H242       -0.5494  -24.7222  -53.5297 H         1 UNK         0.3800 
    243 H243       -1.7714  -23.8472  -54.4184 H         1 UNK         0.3800 
    244 H244        0.2318  -20.1354  -52.6069 H         1 UNK         0.0800 
    245 H245        0.4496  -20.2439  -54.3353 H         1 UNK         0.0800 
    246 H246        0.9748  -17.5158  -53.5911 H         1 UNK         0.0800 
    247 H247       -0.3160  -16.3717  -53.3204 H         1 UNK         0.0800 
@<TRIPOS>BOND
     1    1    2 1    
     2    1  127 1    
     3    1  128 1    
     4    1  129 1    
     5    2    3 2    
     6    2    4 am   BACKBONE|DICT|INTERRES
     7    4    5 1    
     8    4  130 1    
     9    5    6 1    
    10    5   65 1    
    11    5  131 1    
    12    6    7 1    
    13    6  132 1    
    14    6  133 1    
    15    7    8 1    
    16    8    9 1    
    17    8  134 1    
    18    8  135 1    
    19    9   10 ar   
    20    9   14 ar   
    21   10   11 ar   
    22   10  136 1    
    23   11   12 ar   
    24   11  126 1    
    25   12   13 ar   
    26   12  137 1    
    27   13   14 ar   
    28   13   15 1    
    29   14  138 1    
    30   15   16 1    
    31   15  139 1    
    32   15  140 1    
    33   16   17 1    
    34   17   18 1    
    35   17  141 1    
    36   17  142 1    
    37   18   19 1    
    38   18   67 1    
    39   18  143 1    
    40   19   20 am   BACKBONE|DICT|INTERRES
    41   19  144 1    
    42   20   21 2    
    43   20   22 1    
    44   22   23 1    
    45   22   24 1    
    46   22  145 1    
    47   23  146 1    
    48   23  147 1    
    49   23  148 1    
    50   24   25 am   BACKBONE|DICT|INTERRES
    51   24  149 1    
    52   25   26 2    
    53   25   27 1    
    54   27   28 1    
    55   27   29 1    
    56   27  150 1    
    57   28  151 1    
    58   28  152 1    
    59   28  153 1    
    60   29   30 am   BACKBONE|DICT|INTERRES
    61   29  154 1    
    62   30   31 2    
    63   30   32 1    
    64   32   33 1    
    65   32   34 1    
    66   32  155 1    
    67   33  156 1    
    68   33  157 1    
    69   33  158 1    
    70   34   35 am   BACKBONE|DICT|INTERRES
    71   34  159 1    
    72   35   36 2    
    73   35   37 1    
    74   37   38 1    
    75   37   39 1    
    76   37  160 1    
    77   38  161 1    
    78   38  162 1    
    79   38  163 1    
    80   39   40 am   BACKBONE|DICT|INTERRES
    81   39  164 1    
    82   40   41 2    
    83   40   42 1    
    84   42   43 1    
    85   42   44 1    
    86   42  165 1    
    87   43  166 1    
    88   43  167 1    
    89   43  168 1    
    90   44   45 am   BACKBONE|DICT|INTERRES
    91   44  169 1    
    92   45   46 2    
    93   45   47 1    
    94   47   48 1    
    95   47   49 1    
    96   47  170 1    
    97   48  171 1    
    98   48  172 1    
    99   48  173 1    
   100   49   50 am   BACKBONE|DICT|INTERRES
   101   49  174 1    
   102   50   51 2    
   103   50   52 1    
   104   52   53 1    
   105   52   54 1    
   106   52  175 1    
   107   53  176 1    
   108   53  177 1    
   109   53  178 1    
   110   54   55 am   BACKBONE|DICT|INTERRES
   111   54  179 1    
   112   55   56 2    
   113   55   57 1    
   114   57   58 1    
   115   57   59 1    
   116   57  180 1    
   117   58  181 1    
   118   58  182 1    
   119   58  183 1    
   120   59   60 am   BACKBONE|DICT|INTERRES
   121   59  184 1    
   122   60   61 2    
   123   60   62 1    
   124   62   63 1    
   125   62   64 1    
   126   62  185 1    
   127   63  186 1    
   128   63  187 1    
   129   63  188 1    
   130   64   65 am   BACKBONE|DICT|INTERRES
   131   64  189 1    
   132   65   66 2    
   133   67   68 2    
   134   67   69 am   BACKBONE|DICT|INTERRES
   135   69   70 1    
   136   69  190 1    
   137   70   71 1    
   138   70   72 1    
   139   70  191 1    
   140   71  192 1    
   141   71  193 1    
   142   71  194 1    
   143   72   73 2    
   144   72   74 am   BACKBONE|DICT|INTERRES
   145   74   75 1    
   146   74  195 1    
   147   75   76 1    
   148   75   77 1    
   149   75  196 1    
   150   76  197 1    
   151   76  198 1    
   152   76  199 1    
   153   77   78 2    
   154   77   79 am   BACKBONE|DICT|INTERRES
   155   79   80 1    
   156   79  200 1    
   157   80   81 1    
   158   80   82 1    
   159   80  201 1    
   160   81  202 1    
   161   81  203 1    
   162   81  204 1    
   163   82   83 2    
   164   82   84 am   BACKBONE|DICT|INTERRES
   165   84   85 1    
   166   84  205 1    
   167   85   86 1    
   168   85   87 1    
   169   85  206 1    
   170   86  207 1    
   171   86  208 1    
   172   86  209 1    
   173   87   88 2    
   174   87   89 am   BACKBONE|DICT|INTERRES
   175   89   90 1    
   176   89  210 1    
   177   90   91 1    
   178   90   92 1    
   179   90  211 1    
   180   91  212 1    
   181   91  213 1    
   182   91  214 1    
   183   92   93 2    
   184   92   94 am   BACKBONE|DICT|INTERRES
   185   94   95 1    
   186   94  215 1    
   187   95   96 1    
   188   95   97 1    
   189   95  216 1    
   190   96  217 1    
   191   96  218 1    
   192   96  219 1    
   193   97   98 2    
   194   97   99 am   BACKBONE|DICT|INTERRES
   195   99  100 1    
   196   99  220 1    
   197  100  101 1    
   198  100  102 1    
   199  100  221 1    
   200  101  222 1    
   201  101  223 1    
   202  101  224 1    
   203  102  103 2    
   204  102  104 am   BACKBONE|DICT|INTERRES
   205  104  105 1    
   206  104  225 1    
   207  105  106 1    
   208  105  107 1    
   209  105  226 1    
   210  106  227 1    
   211  106  228 1    
   212  106  229 1    
   213  107  108 2    
   214  107  109 am   BACKBONE|DICT|INTERRES
   215  109  110 1    
   216  109  230 1    
   217  110  111 1    
   218  110  112 1    
   219  110  231 1    
   220  111  232 1    
   221  111  233 1    
   222  111  234 1    
   223  112  113 2    
   224  112  114 am   BACKBONE|DICT|INTERRES
   225  114  115 1    
   226  114  235 1    
   227  115  116 1    
   228  115  117 1    
   229  115  236 1    
   230  116  237 1    
   231  116  238 1    
   232  116  239 1    
   233  117  118 2    
   234  117  119 am   BACKBONE|DICT|INTERRES
   235  119  120 1    
   236  119  240 1    
   237  120  121 1    
   238  120  124 1    
   239  120  241 1    
   240  121  122 am   BACKBONE|DICT|INTERRES
   241  121  123 2    
   242  122  242 1    
   243  122  243 1    
   244  124  125 1    
   245  124  244 1    
   246  124  245 1    
   247  125  126 1    
   248  126  246 1    
   249  126  247 1    
@<TRIPOS>SUBSTRUCTURE
     1 UNK         1 GROUP             0       ****    0 ROOT    
