@<TRIPOS>MOLECULE
3R540
247   249    1
SMALL
USER_CHARGES


@<TRIPOS>ATOM
      1 CA          7.1068  -15.3946  -48.1661 C.3       0 UNK        -0.1800 
      2 C           6.3848  -15.0334  -49.4633 C.2       0 UNK         0.5000 
      3 O           7.0410  -14.8353  -50.4843 O.2       0 UNK        -0.5000 
      4 N           5.0480  -14.9508  -49.4840 N.am      1 UNK        -0.5000 
      5 CA          4.1377  -15.0717  -48.3406 C.3       1 UNK         0.1400 
      6 C6          2.7150  -15.4861  -48.7995 C.3       23 UNK        -0.0398 
      7 S7          1.8310  -14.2336  -49.8029 S.3       23 UNK        -0.2404 
      8 C8          1.2731  -15.2004  -51.2425 C.3       23 UNK        -0.0205 
      9 C9          0.3878  -16.3709  -50.8399 C.ar      23 UNK        -0.0193 
     10 C10        -0.8407  -16.1475  -50.2103 C.ar      23 UNK        -0.1150 
     11 C11        -1.6356  -17.2229  -49.8046 C.ar      23 UNK        -0.0193 
     12 C12        -1.1949  -18.5285  -50.0383 C.ar      23 UNK        -0.1150 
     13 C13         0.0185  -18.7642  -50.6913 C.ar      23 UNK        -0.0193 
     14 C14         0.8042  -17.6809  -51.0903 C.ar      23 UNK        -0.1150 
     15 C15         0.4798  -20.1868  -50.9723 C.3       23 UNK        -0.0205 
     16 S16         1.9686  -20.6481  -50.0252 S.3       23 UNK        -0.2404 
     17 C17         1.4230  -20.4269  -48.2973 C.3       23 UNK        -0.0398 
     18 CA          0.9078  -21.7259  -47.6349 C.3       11 UNK         0.1400 
     19 N           0.8768  -21.6122  -46.1765 N.am      11 UNK        -0.5000 
     20 C           0.6003  -22.6161  -45.3320 C.2       10 UNK         0.5000 
     21 O           0.4058  -23.7795  -45.6858 O.2       10 UNK        -0.5000 
     22 CA          0.4647  -22.2426  -43.8458 C.3       10 UNK         0.1400 
     23 CB          1.8452  -22.1203  -43.1837 C.3       10 UNK        -0.1800 
     24 N          -0.2807  -20.9987  -43.6534 N.am      10 UNK        -0.5000 
     25 C          -1.5657  -20.8157  -43.9861 C.2       9 UNK         0.5000 
     26 O          -2.2856  -21.7007  -44.4468 O.2       9 UNK        -0.5000 
     27 CA         -2.1252  -19.3917  -43.8248 C.3       9 UNK         0.1400 
     28 CB         -2.4901  -19.1005  -42.3611 C.3       9 UNK        -0.1800 
     29 N          -1.1977  -18.3723  -44.3179 N.am      9 UNK        -0.5000 
     30 C          -0.8668  -18.2151  -45.6072 C.2       8 UNK         0.5000 
     31 O          -1.3173  -18.9094  -46.5167 O.2       8 UNK        -0.5000 
     32 CA          0.1722  -17.1267  -45.9325 C.3       8 UNK         0.1400 
     33 CB         -0.5086  -15.7604  -46.0862 C.3       8 UNK        -0.1800 
     34 N           1.2410  -17.0431  -44.9320 N.am      8 UNK        -0.5000 
     35 C           2.1327  -18.0243  -44.7268 C.2       7 UNK         0.5000 
     36 O           2.1515  -19.0728  -45.3711 O.2       7 UNK        -0.5000 
     37 CA          3.1481  -17.8257  -43.5884 C.3       7 UNK         0.1400 
     38 CB          4.2380  -16.8236  -43.9987 C.3       7 UNK        -0.1800 
     39 N           2.5484  -17.4008  -42.3221 N.am      7 UNK        -0.5000 
     40 C           1.5749  -18.0415  -41.6570 C.2       6 UNK         0.5000 
     41 O           1.0227  -19.0562  -42.0776 O.2       6 UNK        -0.5000 
     42 CA          1.1471  -17.4774  -40.2856 C.3       6 UNK         0.1400 
     43 CB          1.5211  -18.4576  -39.1626 C.3       6 UNK        -0.1800 
     44 N           1.7301  -16.1683  -39.9814 N.am      6 UNK        -0.5000 
     45 C           1.3400  -15.0179  -40.5421 C.2       5 UNK         0.5000 
     46 O           0.3984  -14.9361  -41.3344 O.2       5 UNK        -0.5000 
     47 CA          2.1678  -13.7750  -40.1731 C.3       5 UNK         0.1400 
     48 CB          3.6360  -13.9438  -40.6050 C.3       5 UNK        -0.1800 
     49 N           1.6264  -12.6098  -40.8603 N.am      5 UNK        -0.5000 
     50 C           1.1300  -11.5093  -40.2846 C.2       4 UNK         0.5000 
     51 O           1.1205  -11.3176  -39.0678 O.2       4 UNK        -0.5000 
     52 CA          0.5575  -10.4277  -41.2255 C.3       4 UNK         0.1400 
     53 CB          1.4584   -9.1823  -41.2258 C.3       4 UNK        -0.1800 
     54 N           0.4089  -10.8947  -42.6061 N.am      4 UNK        -0.5000 
     55 C          -0.5807  -11.6817  -43.0506 C.2       3 UNK         0.5000 
     56 O          -1.5410  -12.0251  -42.3614 O.2       3 UNK        -0.5000 
     57 CA         -0.4708  -12.1788  -44.5043 C.3       3 UNK         0.1400 
     58 CB         -1.4021  -11.3747  -45.4241 C.3       3 UNK        -0.1800 
     59 N           0.8959  -12.1076  -45.0316 N.am      3 UNK        -0.5000 
     60 C           1.8566  -13.0060  -44.7836 C.2       2 UNK         0.5000 
     61 O           1.6995  -14.0219  -44.1031 O.2       2 UNK        -0.5000 
     62 CA          3.2205  -12.7435  -45.4272 C.3       2 UNK         0.1400 
     63 CB          4.3302  -12.5919  -44.3735 C.3       2 UNK        -0.1800 
     64 N           3.5061  -13.8722  -46.3021 N.am      2 UNK        -0.5000 
     65 C           4.1190  -13.7824  -47.4858 C.2       1 UNK         0.5000 
     66 O           4.6267  -12.7415  -47.9124 O.2       1 UNK        -0.5000 
     67 C          -0.4641  -22.1550  -48.1928 C.2       11 UNK         0.5000 
     68 O          -0.5273  -23.1173  -48.9565 O.2       11 UNK        -0.5000 
     69 N          -1.5390  -21.4698  -47.7736 N.am      12 UNK        -0.5000 
     70 CA         -2.9169  -21.7821  -48.1549 C.3       12 UNK         0.1400 
     71 CB         -3.8750  -20.7226  -47.5951 C.3       12 UNK        -0.1800 
     72 C          -3.3562  -23.1903  -47.7234 C.2       12 UNK         0.5000 
     73 O          -3.9929  -23.8831  -48.5145 O.2       12 UNK        -0.5000 
     74 N          -2.9800  -23.6042  -46.5055 N.am      13 UNK        -0.5000 
     75 CA         -3.2258  -24.9449  -45.9742 C.3       13 UNK         0.1400 
     76 CB         -2.8204  -25.0020  -44.4938 C.3       13 UNK        -0.1800 
     77 C          -2.5141  -26.0429  -46.7852 C.2       13 UNK         0.5000 
     78 O          -3.1466  -27.0403  -47.1335 O.2       13 UNK        -0.5000 
     79 N          -1.2324  -25.8222  -47.1131 N.am      14 UNK        -0.5000 
     80 CA         -0.4237  -26.7129  -47.9511 C.3       14 UNK         0.1400 
     81 CB          1.0395  -26.2458  -47.9264 C.3       14 UNK        -0.1800 
     82 C          -0.9414  -26.8097  -49.4000 C.2       14 UNK         0.5000 
     83 O          -0.9245  -27.8924  -49.9861 O.2       14 UNK        -0.5000 
     84 N          -1.4213  -25.6807  -49.9343 N.am      15 UNK        -0.5000 
     85 CA         -2.0326  -25.5506  -51.2571 C.3       15 UNK         0.1400 
     86 CB         -1.9755  -24.0685  -51.6542 C.3       15 UNK        -0.1800 
     87 C          -3.4873  -26.0619  -51.3296 C.2       15 UNK         0.5000 
     88 O          -4.0608  -26.0754  -52.4209 O.2       15 UNK        -0.5000 
     89 N          -4.0748  -26.4201  -50.1762 N.am      16 UNK        -0.5000 
     90 CA         -5.4739  -26.8154  -49.9708 C.3       16 UNK         0.1400 
     91 CB         -5.7421  -28.1961  -50.6034 C.3       16 UNK        -0.1800 
     92 C          -6.4722  -25.7341  -50.4417 C.2       16 UNK         0.5000 
     93 O          -7.5304  -26.0583  -50.9846 O.2       16 UNK        -0.5000 
     94 N          -6.0818  -24.4632  -50.2641 N.am      17 UNK        -0.5000 
     95 CA         -6.6917  -23.2097  -50.7201 C.3       17 UNK         0.1400 
     96 CB         -8.0752  -22.9949  -50.0812 C.3       17 UNK        -0.1800 
     97 C          -6.7547  -23.0458  -52.2521 C.2       17 UNK         0.5000 
     98 O          -6.3965  -21.9825  -52.7594 O.2       17 UNK        -0.5000 
     99 N          -7.2010  -24.0894  -52.9593 N.am      18 UNK        -0.5000 
    100 CA        -7.4829  -24.1165  -54.3934 C.3       18 UNK         0.1400 
    101 CB        -8.0687  -25.4883  -54.7604 C.3       18 UNK        -0.1800 
    102 C         -6.2782  -23.7877  -55.2914 C.2       18 UNK         0.5000 
    103 O         -6.4502  -23.0786  -56.2836 O.2       18 UNK        -0.5000 
    104 N         -5.0867  -24.2906  -54.9358 N.am      19 UNK        -0.5000 
    105 CA        -3.8584  -24.0402  -55.6964 C.3       19 UNK         0.1400 
    106 CB        -2.8644  -25.1911  -55.4746 C.3       19 UNK        -0.1800 
    107 C         -3.2196  -22.6736  -55.3777 C.2       19 UNK         0.5000 
    108 O         -2.4045  -22.1976  -56.1688 O.2       19 UNK        -0.5000 
    109 N         -3.5939  -22.0644  -54.2433 N.am      20 UNK        -0.5000 
    110 CA        -3.1624  -20.7237  -53.8512 C.3       20 UNK         0.1400 
    111 CB        -3.1571  -20.5977  -52.3188 C.3       20 UNK        -0.1800 
    112 C         -4.0676  -19.6559  -54.4815 C.2       20 UNK         0.5000 
    113 O         -3.5620  -18.7117  -55.0886 O.2       20 UNK        -0.5000 
    114 N         -5.3885  -19.8352  -54.3180 N.am      21 UNK        -0.5000 
    115 CA        -6.4725  -18.9627  -54.7858 C.3       21 UNK         0.1400 
    116 CB        -6.5617  -18.9902  -56.3255 C.3       21 UNK        -0.1800 
    117 C         -6.4068  -17.5281  -54.2112 C.2       21 UNK         0.5000 
    118 O         -6.8826  -16.5855  -54.8468 O.2       21 UNK        -0.5000 
    119 N         -5.8146  -17.3887  -53.0182 N.am      22 UNK        -0.5000 
    120 CA        -5.5925  -16.1138  -52.3183 C.3       22 UNK         0.1400 
    121 C         -6.8296  -15.5513  -51.5562 C.2       22 UNK         0.5000 
    122 N         -7.9396  -16.2732  -51.4602 N.am      22 UNK        -0.7600 
    123 O         -6.7876  -14.4293  -51.0585 O.2       22 UNK        -0.5000 
    124 C124       -4.3239  -16.1760  -51.4276 C.3       23 UNK        -0.0398 
    125 S125       -4.3822  -17.4666  -50.1349 S.3       23 UNK        -0.2404 
    126 C126       -2.9634  -16.9776  -49.1032 C.3       23 UNK        -0.0205 
    127 H127        8.1844  -15.4328  -48.3276 H         1 UNK         0.0600 
    128 H128        6.7925  -16.3738  -47.8055 H         1 UNK         0.0600 
    129 H129        6.9159  -14.6533  -47.3906 H         1 UNK         0.0600 
    130 H130        4.5999  -14.6740  -50.3453 H         1 UNK         0.3000 
    131 H131        4.5041  -15.8736  -47.6975 H         1 UNK         0.0600 
    132 H132        2.0911  -15.7195  -47.9368 H         1 UNK         0.0800 
    133 H133        2.7846  -16.4193  -49.3595 H         1 UNK         0.0800 
    134 H134        0.7150  -14.5466  -51.9140 H         1 UNK         0.0800 
    135 H135        2.1456  -15.5429  -51.8009 H         1 UNK         0.0800 
    136 H136       -1.1667  -15.1341  -50.0228 H         1 UNK         0.1150 
    137 H137       -1.8073  -19.3594  -49.7193 H         1 UNK         0.1150 
    138 H138        1.7484  -17.8633  -51.5843 H         1 UNK         0.1150 
    139 H139       -0.3163  -20.9018  -50.7658 H         1 UNK         0.0800 
    140 H140        0.6987  -20.2830  -52.0365 H         1 UNK         0.0800 
    141 H141        0.6947  -19.6206  -48.2155 H         1 UNK         0.0800 
    142 H142        2.3032  -20.0758  -47.7586 H         1 UNK         0.0800 
    143 H143        1.6163  -22.5242  -47.8664 H         1 UNK         0.0600 
    144 H144        1.0698  -20.6926  -45.7919 H         1 UNK         0.3000 
    145 H145       -0.0848  -23.0439  -43.3479 H         1 UNK         0.0600 
    146 H146        2.4186  -23.0405  -43.3014 H         1 UNK         0.0600 
    147 H147        2.4299  -21.3086  -43.6183 H         1 UNK         0.0600 
    148 H148        1.7525  -21.9276  -42.1147 H         1 UNK         0.0600 
    149 H149        0.2286  -20.2245  -43.2314 H         1 UNK         0.3000 
    150 H150       -3.0398  -19.3268  -44.4180 H         1 UNK         0.0600 
    151 H151       -2.9393  -18.1129  -42.2558 H         1 UNK         0.0600 
    152 H152       -1.6196  -19.1443  -41.7066 H         1 UNK         0.0600 
    153 H153       -3.2137  -19.8275  -41.9902 H         1 UNK         0.0600 
    154 H154       -0.7409  -17.7962  -43.6268 H         1 UNK         0.3000 
    155 H155        0.6242  -17.3865  -46.8921 H         1 UNK         0.0600 
    156 H156       -1.2929  -15.7979  -46.8428 H         1 UNK         0.0600 
    157 H157        0.2009  -14.9944  -46.3974 H         1 UNK         0.0600 
    158 H158       -0.9685  -15.4399  -45.1515 H         1 UNK         0.0600 
    159 H159        1.2779  -16.2074  -44.3586 H         1 UNK         0.3000 
    160 H160        3.6265  -18.7910  -43.4107 H         1 UNK         0.0600 
    161 H161        4.6938  -17.1036  -44.9494 H         1 UNK         0.0600 
    162 H162        5.0358  -16.7841  -43.2568 H         1 UNK         0.0600 
    163 H163        3.8359  -15.8172  -44.1081 H         1 UNK         0.0600 
    164 H164        2.9321  -16.5691  -41.9014 H         1 UNK         0.3000 
    165 H165        0.0595  -17.3801  -40.3024 H         1 UNK         0.0600 
    166 H166        1.1682  -18.1020  -38.1944 H         1 UNK         0.0600 
    167 H167        1.0701  -19.4367  -39.3302 H         1 UNK         0.0600 
    168 H168        2.6003  -18.6009  -39.0962 H         1 UNK         0.0600 
    169 H169        2.5050  -16.1631  -39.3334 H         1 UNK         0.3000 
    170 H170        2.1220  -13.6460  -39.0900 H         1 UNK         0.0600 
    171 H171        4.2057  -13.0317  -40.4261 H         1 UNK         0.0600 
    172 H172        4.1281  -14.7416  -40.0481 H         1 UNK         0.0600 
    173 H173        3.7162  -14.1834  -41.6655 H         1 UNK         0.0600 
    174 H174        1.4939  -12.7284  -41.8553 H         1 UNK         0.3000 
    175 H175       -0.4235  -10.1415  -40.8404 H         1 UNK         0.0600 
    176 H176        2.4589   -9.4092  -41.5965 H         1 UNK         0.0600 
    177 H177        1.0395   -8.3921  -41.8492 H         1 UNK         0.0600 
    178 H178        1.5659   -8.7763  -40.2191 H         1 UNK         0.0600 
    179 H179        1.1481  -10.6481  -43.2470 H         1 UNK         0.3000 
    180 H180       -0.8003  -13.2184  -44.5133 H         1 UNK         0.0600 
    181 H181       -1.3821  -11.7647  -46.4420 H         1 UNK         0.0600 
    182 H182       -1.1219  -10.3213  -45.4610 H         1 UNK         0.0600 
    183 H183       -2.4351  -11.4280  -45.0778 H         1 UNK         0.0600 
    184 H184        1.1025  -11.3188  -45.6281 H         1 UNK         0.3000 
    185 H185        3.1607  -11.8202  -46.0078 H         1 UNK         0.0600 
    186 H186        4.4801  -13.5107  -43.8075 H         1 UNK         0.0600 
    187 H187        5.2801  -12.3339  -44.8417 H         1 UNK         0.0600 
    188 H188        4.0913  -11.8005  -43.6620 H         1 UNK         0.0600 
    189 H189        3.0822  -14.7422  -46.0127 H         1 UNK         0.3000 
    190 H190       -1.4109  -20.6633  -47.1666 H         1 UNK         0.3000 
    191 H191       -2.9723  -21.7398  -49.2442 H         1 UNK         0.0600 
    192 H192       -3.8254  -20.6667  -46.5076 H         1 UNK         0.0600 
    193 H193       -4.9074  -20.9438  -47.8687 H         1 UNK         0.0600 
    194 H194       -3.6416  -19.7368  -47.9916 H         1 UNK         0.0600 
    195 H195       -2.5086  -22.9477  -45.8889 H         1 UNK         0.3000 
    196 H196       -4.2998  -25.1321  -46.0364 H         1 UNK         0.0600 
    197 H197       -3.0116  -25.9903  -44.0740 H         1 UNK         0.0600 
    198 H198       -3.3872  -24.2823  -43.9030 H         1 UNK         0.0600 
    199 H199       -1.7610  -24.7855  -44.3558 H         1 UNK         0.0600 
    200 H200       -0.7741  -24.9843  -46.7666 H         1 UNK         0.3000 
    201 H201       -0.4687  -27.7134  -47.5160 H         1 UNK         0.0600 
    202 H202        1.4368  -26.2498  -46.9112 H         1 UNK         0.0600 
    203 H203        1.1463  -25.2350  -48.3217 H         1 UNK         0.0600 
    204 H204        1.6706  -26.9027  -48.5262 H         1 UNK         0.0600 
    205 H205       -1.3230  -24.8191  -49.4033 H         1 UNK         0.3000 
    206 H206       -1.4453  -26.1256  -51.9756 H         1 UNK         0.0600 
    207 H207       -2.3869  -23.9052  -52.6469 H         1 UNK         0.0600 
    208 H208       -2.5476  -23.4530  -50.9603 H         1 UNK         0.0600 
    209 H209       -0.9500  -23.6986  -51.6654 H         1 UNK         0.0600 
    210 H210       -3.5251  -26.3346  -49.3310 H         1 UNK         0.3000 
    211 H211       -5.6104  -26.9091  -48.8927 H         1 UNK         0.0600 
    212 H212       -5.6757  -28.1626  -51.6913 H         1 UNK         0.0600 
    213 H213       -6.7387  -28.5574  -50.3471 H         1 UNK         0.0600 
    214 H214       -5.0274  -28.9375  -50.2463 H         1 UNK         0.0600 
    215 H215       -5.2061  -24.3333  -49.7581 H         1 UNK         0.3000 
    216 H216       -6.0363  -22.4188  -50.3514 H         1 UNK         0.0600 
    217 H217       -8.4805  -22.0193  -50.3521 H         1 UNK         0.0600 
    218 H218       -8.0151  -23.0314  -48.9935 H         1 UNK         0.0600 
    219 H219       -8.7958  -23.7473  -50.4027 H         1 UNK         0.0600 
    220 H220       -7.4433  -24.9246  -52.4314 H         1 UNK         0.3000 
    221 H221       -8.2461  -23.3596  -54.5850 H         1 UNK         0.0600 
    222 H222       -7.3682  -26.2951  -54.5403 H         1 UNK         0.0600 
    223 H223       -8.9884  -25.6845  -54.2088 H         1 UNK         0.0600 
    224 H224       -8.3098  -25.5410  -55.8230 H         1 UNK         0.0600 
    225 H225       -5.0099  -24.8708  -54.1080 H         1 UNK         0.3000 
    226 H226       -4.1030  -24.0332  -56.7609 H         1 UNK         0.0600 
    227 H227       -3.3038  -26.1488  -55.7539 H         1 UNK         0.0600 
    228 H228       -1.9701  -25.0553  -56.0840 H         1 UNK         0.0600 
    229 H229       -2.5417  -25.2641  -54.4385 H         1 UNK         0.0600 
    230 H230       -4.3165  -22.4943  -53.6835 H         1 UNK         0.3000 
    231 H231       -2.1421  -20.5495  -54.2002 H         1 UNK         0.0600 
    232 H232       -2.4061  -21.2485  -51.8757 H         1 UNK         0.0600 
    233 H233       -2.9167  -19.5775  -52.0191 H         1 UNK         0.0600 
    234 H234       -4.1215  -20.8480  -51.8772 H         1 UNK         0.0600 
    235 H235       -5.6979  -20.6444  -53.7820 H         1 UNK         0.3000 
    236 H236       -7.3940  -19.3983  -54.3972 H         1 UNK         0.0600 
    237 H237       -5.6987  -18.5121  -56.7896 H         1 UNK         0.0600 
    238 H238       -6.6183  -20.0138  -56.6969 H         1 UNK         0.0600 
    239 H239       -7.4530  -18.4694  -56.6769 H         1 UNK         0.0600 
    240 H240       -5.4658  -18.2124  -52.5507 H         1 UNK         0.3000 
    241 H241       -5.3823  -15.3661  -53.0855 H         1 UNK         0.0600 
    242 H242       -7.9867  -17.1943  -51.8645 H         1 UNK         0.3800 
    243 H243       -8.7369  -15.8971  -50.9714 H         1 UNK         0.3800 
    244 H244       -3.4521  -16.3700  -52.0544 H         1 UNK         0.0800 
    245 H245       -4.1400  -15.2074  -50.9595 H         1 UNK         0.0800 
    246 H246       -2.9844  -17.5428  -48.1719 H         1 UNK         0.0800 
    247 H247       -3.0675  -15.9295  -48.8190 H         1 UNK         0.0800 
@<TRIPOS>BOND
     1    1    2 1    
     2    1  127 1    
     3    1  128 1    
     4    1  129 1    
     5    2    3 2    
     6    2    4 am   BACKBONE|DICT|INTERRES
     7    4    5 1    
     8    4  130 1    
     9    5    6 1    
    10    5   65 1    
    11    5  131 1    
    12    6    7 1    
    13    6  132 1    
    14    6  133 1    
    15    7    8 1    
    16    8    9 1    
    17    8  134 1    
    18    8  135 1    
    19    9   10 ar   
    20    9   14 ar   
    21   10   11 ar   
    22   10  136 1    
    23   11   12 ar   
    24   11  126 1    
    25   12   13 ar   
    26   12  137 1    
    27   13   14 ar   
    28   13   15 1    
    29   14  138 1    
    30   15   16 1    
    31   15  139 1    
    32   15  140 1    
    33   16   17 1    
    34   17   18 1    
    35   17  141 1    
    36   17  142 1    
    37   18   19 1    
    38   18   67 1    
    39   18  143 1    
    40   19   20 am   BACKBONE|DICT|INTERRES
    41   19  144 1    
    42   20   21 2    
    43   20   22 1    
    44   22   23 1    
    45   22   24 1    
    46   22  145 1    
    47   23  146 1    
    48   23  147 1    
    49   23  148 1    
    50   24   25 am   BACKBONE|DICT|INTERRES
    51   24  149 1    
    52   25   26 2    
    53   25   27 1    
    54   27   28 1    
    55   27   29 1    
    56   27  150 1    
    57   28  151 1    
    58   28  152 1    
    59   28  153 1    
    60   29   30 am   BACKBONE|DICT|INTERRES
    61   29  154 1    
    62   30   31 2    
    63   30   32 1    
    64   32   33 1    
    65   32   34 1    
    66   32  155 1    
    67   33  156 1    
    68   33  157 1    
    69   33  158 1    
    70   34   35 am   BACKBONE|DICT|INTERRES
    71   34  159 1    
    72   35   36 2    
    73   35   37 1    
    74   37   38 1    
    75   37   39 1    
    76   37  160 1    
    77   38  161 1    
    78   38  162 1    
    79   38  163 1    
    80   39   40 am   BACKBONE|DICT|INTERRES
    81   39  164 1    
    82   40   41 2    
    83   40   42 1    
    84   42   43 1    
    85   42   44 1    
    86   42  165 1    
    87   43  166 1    
    88   43  167 1    
    89   43  168 1    
    90   44   45 am   BACKBONE|DICT|INTERRES
    91   44  169 1    
    92   45   46 2    
    93   45   47 1    
    94   47   48 1    
    95   47   49 1    
    96   47  170 1    
    97   48  171 1    
    98   48  172 1    
    99   48  173 1    
   100   49   50 am   BACKBONE|DICT|INTERRES
   101   49  174 1    
   102   50   51 2    
   103   50   52 1    
   104   52   53 1    
   105   52   54 1    
   106   52  175 1    
   107   53  176 1    
   108   53  177 1    
   109   53  178 1    
   110   54   55 am   BACKBONE|DICT|INTERRES
   111   54  179 1    
   112   55   56 2    
   113   55   57 1    
   114   57   58 1    
   115   57   59 1    
   116   57  180 1    
   117   58  181 1    
   118   58  182 1    
   119   58  183 1    
   120   59   60 am   BACKBONE|DICT|INTERRES
   121   59  184 1    
   122   60   61 2    
   123   60   62 1    
   124   62   63 1    
   125   62   64 1    
   126   62  185 1    
   127   63  186 1    
   128   63  187 1    
   129   63  188 1    
   130   64   65 am   BACKBONE|DICT|INTERRES
   131   64  189 1    
   132   65   66 2    
   133   67   68 2    
   134   67   69 am   BACKBONE|DICT|INTERRES
   135   69   70 1    
   136   69  190 1    
   137   70   71 1    
   138   70   72 1    
   139   70  191 1    
   140   71  192 1    
   141   71  193 1    
   142   71  194 1    
   143   72   73 2    
   144   72   74 am   BACKBONE|DICT|INTERRES
   145   74   75 1    
   146   74  195 1    
   147   75   76 1    
   148   75   77 1    
   149   75  196 1    
   150   76  197 1    
   151   76  198 1    
   152   76  199 1    
   153   77   78 2    
   154   77   79 am   BACKBONE|DICT|INTERRES
   155   79   80 1    
   156   79  200 1    
   157   80   81 1    
   158   80   82 1    
   159   80  201 1    
   160   81  202 1    
   161   81  203 1    
   162   81  204 1    
   163   82   83 2    
   164   82   84 am   BACKBONE|DICT|INTERRES
   165   84   85 1    
   166   84  205 1    
   167   85   86 1    
   168   85   87 1    
   169   85  206 1    
   170   86  207 1    
   171   86  208 1    
   172   86  209 1    
   173   87   88 2    
   174   87   89 am   BACKBONE|DICT|INTERRES
   175   89   90 1    
   176   89  210 1    
   177   90   91 1    
   178   90   92 1    
   179   90  211 1    
   180   91  212 1    
   181   91  213 1    
   182   91  214 1    
   183   92   93 2    
   184   92   94 am   BACKBONE|DICT|INTERRES
   185   94   95 1    
   186   94  215 1    
   187   95   96 1    
   188   95   97 1    
   189   95  216 1    
   190   96  217 1    
   191   96  218 1    
   192   96  219 1    
   193   97   98 2    
   194   97   99 am   BACKBONE|DICT|INTERRES
   195   99  100 1    
   196   99  220 1    
   197  100  101 1    
   198  100  102 1    
   199  100  221 1    
   200  101  222 1    
   201  101  223 1    
   202  101  224 1    
   203  102  103 2    
   204  102  104 am   BACKBONE|DICT|INTERRES
   205  104  105 1    
   206  104  225 1    
   207  105  106 1    
   208  105  107 1    
   209  105  226 1    
   210  106  227 1    
   211  106  228 1    
   212  106  229 1    
   213  107  108 2    
   214  107  109 am   BACKBONE|DICT|INTERRES
   215  109  110 1    
   216  109  230 1    
   217  110  111 1    
   218  110  112 1    
   219  110  231 1    
   220  111  232 1    
   221  111  233 1    
   222  111  234 1    
   223  112  113 2    
   224  112  114 am   BACKBONE|DICT|INTERRES
   225  114  115 1    
   226  114  235 1    
   227  115  116 1    
   228  115  117 1    
   229  115  236 1    
   230  116  237 1    
   231  116  238 1    
   232  116  239 1    
   233  117  118 2    
   234  117  119 am   BACKBONE|DICT|INTERRES
   235  119  120 1    
   236  119  240 1    
   237  120  121 1    
   238  120  124 1    
   239  120  241 1    
   240  121  122 am   BACKBONE|DICT|INTERRES
   241  121  123 2    
   242  122  242 1    
   243  122  243 1    
   244  124  125 1    
   245  124  244 1    
   246  124  245 1    
   247  125  126 1    
   248  126  246 1    
   249  126  247 1    
@<TRIPOS>SUBSTRUCTURE
     1 UNK         1 GROUP             0       ****    0 ROOT    
