@<TRIPOS>MOLECULE
3R540
247   249    1
SMALL
USER_CHARGES


@<TRIPOS>ATOM
      1 CA         -1.1563  -12.6270  -44.4400 C.3       0 UNK        -0.1800 
      2 C          -0.5487  -12.8530  -45.8167 C.2       0 UNK         0.5000 
      3 O           0.6711  -12.9758  -45.9337 O.2       0 UNK        -0.5000 
      4 N          -1.3950  -12.9015  -46.8561 N.am      1 UNK        -0.5000 
      5 CA         -1.0349  -13.0780  -48.2699 C.3       1 UNK         0.1400 
      6 C6         -0.4650  -14.4905  -48.5859 C.3       23 UNK        -0.0398 
      7 S7         -1.6825  -15.8168  -48.2860 S.3       23 UNK        -0.2404 
      8 C8         -2.0387  -16.3884  -49.9795 C.3       23 UNK        -0.0205 
      9 C9         -0.8262  -17.0221  -50.6489 C.ar      23 UNK        -0.0193 
     10 C10        -0.2950  -16.4706  -51.8164 C.ar      23 UNK        -0.1150 
     11 C11         0.7989  -17.0679  -52.4468 C.ar      23 UNK        -0.0193 
     12 C12         1.3760  -18.2128  -51.8886 C.ar      23 UNK        -0.1150 
     13 C13         0.8583  -18.7812  -50.7199 C.ar      23 UNK        -0.0193 
     14 C14        -0.2501  -18.1759  -50.1128 C.ar      23 UNK        -0.1150 
     15 C15         1.4890  -20.0704  -50.1840 C.3       23 UNK        -0.0205 
     16 S16         1.5045  -20.2371  -48.3637 S.3       23 UNK        -0.2404 
     17 C17        -0.1883  -20.8256  -48.0229 C.3       23 UNK        -0.0398 
     18 CA         -0.2428  -22.1867  -47.2967 C.3       11 UNK         0.1400 
     19 N           0.2852  -22.1233  -45.9307 N.am      11 UNK        -0.5000 
     20 C           0.4549  -23.1830  -45.1274 C.2       10 UNK         0.5000 
     21 O           0.2522  -24.3446  -45.4800 O.2       10 UNK        -0.5000 
     22 CA          0.8551  -22.8962  -43.6681 C.3       10 UNK         0.1400 
     23 CB          2.3646  -22.6423  -43.5418 C.3       10 UNK        -0.1800 
     24 N           0.1062  -21.7756  -43.0952 N.am      10 UNK        -0.5000 
     25 C          -1.2186  -21.7877  -42.8861 C.2       9 UNK         0.5000 
     26 O          -1.9320  -22.7671  -43.1022 O.2       9 UNK        -0.5000 
     27 CA         -1.8667  -20.4799  -42.3960 C.3       9 UNK         0.1400 
     28 CB         -1.7152  -20.3328  -40.8750 C.3       9 UNK        -0.1800 
     29 N          -1.3314  -19.2942  -43.0659 N.am      9 UNK        -0.5000 
     30 C          -1.4488  -19.0441  -44.3782 C.2       8 UNK         0.5000 
     31 O          -2.0743  -19.7635  -45.1557 O.2       8 UNK        -0.5000 
     32 CA         -0.6924  -17.8204  -44.9272 C.3       8 UNK         0.1400 
     33 CB         -1.4873  -16.5306  -44.6885 C.3       8 UNK        -0.1800 
     34 N           0.6494  -17.6823  -44.3600 N.am      8 UNK        -0.5000 
     35 C           1.6204  -18.5991  -44.4762 C.2       7 UNK         0.5000 
     36 O           1.4963  -19.6495  -45.1015 O.2       7 UNK        -0.5000 
     37 CA          2.9219  -18.3327  -43.7040 C.3       7 UNK         0.1400 
     38 CB          3.8146  -17.3241  -44.4418 C.3       7 UNK        -0.1800 
     39 N           2.6490  -17.8602  -42.3479 N.am      7 UNK        -0.5000 
     40 C           2.1361  -18.6257  -41.3743 C.2       6 UNK         0.5000 
     41 O           1.8890  -19.8248  -41.5057 O.2       6 UNK        -0.5000 
     42 CA          1.8114  -17.9222  -40.0434 C.3       6 UNK         0.1400 
     43 CB          3.0616  -17.8406  -39.1549 C.3       6 UNK        -0.1800 
     44 N           1.2647  -16.5773  -40.2357 N.am      6 UNK        -0.5000 
     45 C           0.0694  -16.3198  -40.7853 C.2       5 UNK         0.5000 
     46 O          -0.7129  -17.1930  -41.1570 O.2       5 UNK        -0.5000 
     47 CA         -0.2924  -14.8379  -41.0005 C.3       5 UNK         0.1400 
     48 CB         -0.9441  -14.2518  -39.7397 C.3       5 UNK        -0.1800 
     49 N           0.8491  -14.0038  -41.3911 N.am      5 UNK        -0.5000 
     50 C           1.5879  -14.1898  -42.4924 C.2       4 UNK         0.5000 
     51 O           1.4003  -15.1090  -43.2941 O.2       4 UNK        -0.5000 
     52 CA          2.7537  -13.2169  -42.7076 C.3       4 UNK         0.1400 
     53 CB          3.9201  -13.5478  -41.7576 C.3       4 UNK        -0.1800 
     54 N           3.1973  -13.3251  -44.0915 N.am      4 UNK        -0.5000 
     55 C           3.9063  -12.4158  -44.7664 C.2       3 UNK         0.5000 
     56 O           4.2660  -11.3376  -44.2907 O.2       3 UNK        -0.5000 
     57 CA          4.2774  -12.7587  -46.2170 C.3       3 UNK         0.1400 
     58 CB          4.4550  -14.2690  -46.4739 C.3       3 UNK        -0.1800 
     59 N           3.2475  -12.2381  -47.1080 N.am      3 UNK        -0.5000 
     60 C           3.4774  -11.6045  -48.2669 C.2       2 UNK         0.5000 
     61 O           4.6069  -11.3499  -48.6890 O.2       2 UNK        -0.5000 
     62 CA          2.2423  -11.2241  -49.1083 C.3       2 UNK         0.1400 
     63 CB          2.5450  -11.1260  -50.6155 C.3       2 UNK        -0.1800 
     64 N           1.1794  -12.2010  -48.8894 N.am      2 UNK        -0.5000 
     65 C          -0.1169  -11.9193  -48.7231 C.2       1 UNK         0.5000 
     66 O          -0.5973  -10.7935  -48.8684 O.2       1 UNK        -0.5000 
     67 C          -1.6828  -22.7392  -47.3273 C.2       11 UNK         0.5000 
     68 O          -1.9834  -23.5817  -48.1704 O.2       11 UNK        -0.5000 
     69 N          -2.5437  -22.2846  -46.4059 N.am      12 UNK        -0.5000 
     70 CA         -3.9207  -22.7592  -46.2611 C.3       12 UNK         0.1400 
     71 CB         -4.6784  -21.8744  -45.2612 C.3       12 UNK        -0.1800 
     72 C          -3.9997  -24.2437  -45.8647 C.2       12 UNK         0.5000 
     73 O          -4.7957  -24.9793  -46.4481 O.2       12 UNK        -0.5000 
     74 N          -3.1370  -24.6730  -44.9325 N.am      13 UNK        -0.5000 
     75 CA         -2.9830  -26.0713  -44.5204 C.3       13 UNK         0.1400 
     76 CB         -2.0469  -26.1468  -43.3049 C.3       13 UNK        -0.1800 
     77 C          -2.4786  -26.9830  -45.6572 C.2       13 UNK         0.5000 
     78 O          -2.9086  -28.1330  -45.7516 O.2       13 UNK        -0.5000 
     79 N          -1.6092  -26.4412  -46.5204 N.am      14 UNK        -0.5000 
     80 CA         -1.1082  -27.0883  -47.7347 C.3       14 UNK         0.1400 
     81 CB          0.2117  -26.4124  -48.1416 C.3       14 UNK        -0.1800 
     82 C          -2.1108  -27.0674  -48.9099 C.2       14 UNK         0.5000 
     83 O          -1.8350  -27.6948  -49.9333 O.2       14 UNK        -0.5000 
     84 N          -3.2341  -26.3476  -48.7566 N.am      15 UNK        -0.5000 
     85 CA         -4.2742  -26.0841  -49.7572 C.3       15 UNK         0.1400 
     86 CB         -5.0187  -27.3802  -50.1400 C.3       15 UNK        -0.1800 
     87 C          -3.7316  -25.3041  -50.9740 C.2       15 UNK         0.5000 
     88 O          -4.0332  -25.6427  -52.1191 O.2       15 UNK        -0.5000 
     89 N          -2.9251  -24.2766  -50.6884 N.am      16 UNK        -0.5000 
     90 CA         -2.2201  -23.4325  -51.6487 C.3       16 UNK         0.1400 
     91 CB         -0.7318  -23.8296  -51.6399 C.3       16 UNK        -0.1800 
     92 C          -2.4330  -21.9411  -51.3222 C.2       16 UNK         0.5000 
     93 O          -1.5226  -21.1394  -51.5182 O.2       16 UNK        -0.5000 
     94 N          -3.6203  -21.5923  -50.8129 N.am      17 UNK        -0.5000 
     95 CA         -4.0364  -20.2261  -50.5027 C.3       17 UNK         0.1400 
     96 CB         -3.9359  -19.9956  -48.9845 C.3       17 UNK        -0.1800 
     97 C          -5.4791  -20.0066  -50.9827 C.2       17 UNK         0.5000 
     98 O          -6.1802  -20.9759  -51.2905 O.2       17 UNK        -0.5000 
     99 N          -5.9067  -18.7359  -50.9913 N.am      18 UNK        -0.5000 
    100 CA        -7.2642  -18.2585  -51.2757 C.3       18 UNK         0.1400 
    101 CB        -8.2132  -18.6330  -50.1146 C.3       18 UNK        -0.1800 
    102 C         -7.7603  -18.7146  -52.6624 C.2       18 UNK         0.5000 
    103 O         -7.2437  -18.2339  -53.6717 O.2       18 UNK        -0.5000 
    104 N         -8.7188  -19.6505  -52.6965 N.am      19 UNK        -0.5000 
    105 CA        -9.2808  -20.2492  -53.9103 C.3       19 UNK         0.1400 
    106 CB       -10.4599  -21.1528  -53.5190 C.3       19 UNK        -0.1800 
    107 C         -8.2560  -21.0347  -54.7545 C.2       19 UNK         0.5000 
    108 O         -8.4488  -21.1672  -55.9634 O.2       19 UNK        -0.5000 
    109 N         -7.1782  -21.5145  -54.1180 N.am      20 UNK        -0.5000 
    110 CA        -6.0491  -22.1763  -54.7733 C.3       20 UNK         0.1400 
    111 CB        -5.4764  -23.2349  -53.8195 C.3       20 UNK        -0.1800 
    112 C         -4.9554  -21.1865  -55.2292 C.2       20 UNK         0.5000 
    113 O         -3.9146  -21.6336  -55.7145 O.2       20 UNK        -0.5000 
    114 N         -5.1903  -19.8742  -55.0658 N.am      21 UNK        -0.5000 
    115 CA        -4.2933  -18.7606  -55.3821 C.3       21 UNK         0.1400 
    116 CB        -4.0910  -18.6300  -56.9089 C.3       21 UNK        -0.1800 
    117 C         -2.9861  -18.8580  -54.5741 C.2       21 UNK         0.5000 
    118 O         -3.0081  -18.5625  -53.3801 O.2       21 UNK        -0.5000 
    119 N         -1.9024  -19.2836  -55.2312 N.am      22 UNK        -0.5000 
    120 CA        -0.5912  -19.5707  -54.6298 C.3       22 UNK         0.1400 
    121 C         -0.2400  -21.0890  -54.6553 C.2       22 UNK         0.5000 
    122 N         -1.1413  -21.9863  -55.0424 N.am      22 UNK        -0.7600 
    123 O          0.8801  -21.4691  -54.3251 O.2       22 UNK        -0.5000 
    124 C124        0.5371  -18.7268  -55.2864 C.3       23 UNK        -0.0398 
    125 S125        0.2734  -16.9229  -55.1620 S.3       23 UNK        -0.2404 
    126 C126        1.3353  -16.4882  -53.7462 C.3       23 UNK        -0.0205 
    127 H127       -2.1988  -12.3148  -44.5038 H         1 UNK         0.0600 
    128 H128       -0.6020  -11.8555  -43.9056 H         1 UNK         0.0600 
    129 H129       -1.1104  -13.5459  -43.8582 H         1 UNK         0.0600 
    130 H130       -2.3822  -12.7755  -46.6844 H         1 UNK         0.3000 
    131 H131       -1.9586  -12.9634  -48.8394 H         1 UNK         0.0600 
    132 H132       -0.1350  -14.5404  -49.6242 H         1 UNK         0.0800 
    133 H133        0.4129  -14.7097  -47.9766 H         1 UNK         0.0800 
    134 H134       -2.8415  -17.1248  -49.9408 H         1 UNK         0.0800 
    135 H135       -2.4184  -15.5514  -50.5674 H         1 UNK         0.0800 
    136 H136       -0.7452  -15.5895  -52.2515 H         1 UNK         0.1150 
    137 H137        2.2166  -18.6798  -52.3824 H         1 UNK         0.1150 
    138 H138       -0.6846  -18.5884  -49.2186 H         1 UNK         0.1150 
    139 H139        0.9859  -20.9287  -50.6304 H         1 UNK         0.0800 
    140 H140        2.5264  -20.1271  -50.5168 H         1 UNK         0.0800 
    141 H141       -0.7196  -20.8924  -48.9727 H         1 UNK         0.0800 
    142 H142       -0.7019  -20.0632  -47.4365 H         1 UNK         0.0800 
    143 H143        0.3796  -22.8902  -47.8536 H         1 UNK         0.0600 
    144 H144        0.5419  -21.2013  -45.5847 H         1 UNK         0.3000 
    145 H145        0.6175  -23.7859  -43.0812 H         1 UNK         0.0600 
    146 H146        2.6522  -22.4877  -42.5017 H         1 UNK         0.0600 
    147 H147        2.6801  -21.7670  -44.1085 H         1 UNK         0.0600 
    148 H148        2.9338  -23.4948  -43.9142 H         1 UNK         0.0600 
    149 H149        0.6336  -20.9410  -42.8668 H         1 UNK         0.3000 
    150 H150       -2.9330  -20.5344  -42.6237 H         1 UNK         0.0600 
    151 H151       -2.1195  -21.2028  -40.3561 H         1 UNK         0.0600 
    152 H152       -2.2523  -19.4577  -40.5089 H         1 UNK         0.0600 
    153 H153       -0.6704  -20.2308  -40.5814 H         1 UNK         0.0600 
    154 H154       -0.8547  -18.6164  -42.4783 H         1 UNK         0.3000 
    155 H155       -0.5809  -17.9544  -46.0052 H         1 UNK         0.0600 
    156 H156       -2.4769  -16.5918  -45.1427 H         1 UNK         0.0600 
    157 H157       -0.9777  -15.6773  -45.1336 H         1 UNK         0.0600 
    158 H158       -1.6222  -16.3274  -43.6266 H         1 UNK         0.0600 
    159 H159        0.8474  -16.8233  -43.8534 H         1 UNK         0.3000 
    160 H160        3.4682  -19.2760  -43.6342 H         1 UNK         0.0600 
    161 H161        3.3325  -16.3530  -44.5386 H         1 UNK         0.0600 
    162 H162        4.0478  -17.6746  -45.4480 H         1 UNK         0.0600 
    163 H163        4.7604  -17.1778  -43.9201 H         1 UNK         0.0600 
    164 H164        2.7627  -16.8720  -42.1796 H         1 UNK         0.3000 
    165 H165        1.0619  -18.5232  -39.5240 H         1 UNK         0.0600 
    166 H166        2.8249  -17.4142  -38.1799 H         1 UNK         0.0600 
    167 H167        3.4817  -18.8322  -38.9814 H         1 UNK         0.0600 
    168 H168        3.8414  -17.2282  -39.6094 H         1 UNK         0.0600 
    169 H169        1.8452  -15.8007  -39.9561 H         1 UNK         0.3000 
    170 H170       -1.0250  -14.7967  -41.8080 H         1 UNK         0.0600 
    171 H171       -0.2497  -14.2305  -38.8990 H         1 UNK         0.0600 
    172 H172       -1.8091  -14.8433  -39.4364 H         1 UNK         0.0600 
    173 H173       -1.2938  -13.2339  -39.9133 H         1 UNK         0.0600 
    174 H174        1.0717  -13.2341  -40.7764 H         1 UNK         0.3000 
    175 H175        2.3944  -12.2027  -42.5218 H         1 UNK         0.0600 
    176 H176        4.3031  -14.5547  -41.9292 H         1 UNK         0.0600 
    177 H177        4.7479  -12.8506  -41.8879 H         1 UNK         0.0600 
    178 H178        3.6113  -13.4855  -40.7136 H         1 UNK         0.0600 
    179 H179        2.8386  -14.1413  -44.5714 H         1 UNK         0.3000 
    180 H180        5.2340  -12.2691  -46.4115 H         1 UNK         0.0600 
    181 H181        4.8794  -14.4454  -47.4624 H         1 UNK         0.0600 
    182 H182        3.5069  -14.8057  -46.4258 H         1 UNK         0.0600 
    183 H183        5.1342  -14.7165  -45.7471 H         1 UNK         0.0600 
    184 H184        2.2902  -12.3708  -46.7871 H         1 UNK         0.3000 
    185 H185        1.9239  -10.2417  -48.7537 H         1 UNK         0.0600 
    186 H186        1.6538  -10.8480  -51.1784 H         1 UNK         0.0600 
    187 H187        3.3028  -10.3681  -50.8170 H         1 UNK         0.0600 
    188 H188        2.9101  -12.0738  -51.0126 H         1 UNK         0.0600 
    189 H189        1.4976  -13.1439  -48.7164 H         1 UNK         0.3000 
    190 H190       -2.2522  -21.5360  -45.7821 H         1 UNK         0.3000 
    191 H191       -4.4076  -22.6601  -47.2328 H         1 UNK         0.0600 
    192 H192       -4.6843  -20.8330  -45.5837 H         1 UNK         0.0600 
    193 H193       -4.2327  -21.9144  -44.2677 H         1 UNK         0.0600 
    194 H194       -5.7174  -22.1925  -45.1681 H         1 UNK         0.0600 
    195 H195       -2.5480  -23.9916  -44.4608 H         1 UNK         0.3000 
    196 H196       -3.9654  -26.4375  -44.2154 H         1 UNK         0.0600 
    197 H197       -2.4355  -25.5611  -42.4716 H         1 UNK         0.0600 
    198 H198       -1.0505  -25.7722  -43.5400 H         1 UNK         0.0600 
    199 H199       -1.9385  -27.1751  -42.9581 H         1 UNK         0.0600 
    200 H200       -1.2563  -25.5093  -46.3298 H         1 UNK         0.3000 
    201 H201       -0.8962  -28.1350  -47.5080 H         1 UNK         0.0600 
    202 H202        0.9434  -26.4567  -47.3347 H         1 UNK         0.0600 
    203 H203        0.0631  -25.3642  -48.4013 H         1 UNK         0.0600 
    204 H204        0.6548  -26.9042  -49.0084 H         1 UNK         0.0600 
    205 H205       -3.3584  -25.8641  -47.8760 H         1 UNK         0.3000 
    206 H206       -4.9968  -25.4247  -49.2746 H         1 UNK         0.0600 
    207 H207       -4.3764  -28.0753  -50.6812 H         1 UNK         0.0600 
    208 H208       -5.3973  -27.8920  -49.2552 H         1 UNK         0.0600 
    209 H209       -5.8745  -27.1624  -50.7798 H         1 UNK         0.0600 
    210 H210       -2.7056  -24.0822  -49.7110 H         1 UNK         0.3000 
    211 H211       -2.6122  -23.5895  -52.6551 H         1 UNK         0.0600 
    212 H212       -0.2768  -23.6472  -50.6654 H         1 UNK         0.0600 
    213 H213       -0.1658  -23.2626  -52.3793 H         1 UNK         0.0600 
    214 H214       -0.6049  -24.8863  -51.8755 H         1 UNK         0.0600 
    215 H215       -4.3490  -22.2885  -50.7347 H         1 UNK         0.3000 
    216 H216       -3.3944  -19.5073  -51.0139 H         1 UNK         0.0600 
    217 H217       -4.1885  -18.9680  -48.7215 H         1 UNK         0.0600 
    218 H218       -2.9275  -20.1771  -48.6203 H         1 UNK         0.0600 
    219 H219       -4.6141  -20.6477  -48.4347 H         1 UNK         0.0600 
    220 H220       -5.2401  -18.0110  -50.7688 H         1 UNK         0.3000 
    221 H221       -7.2100  -17.1697  -51.3167 H         1 UNK         0.0600 
    222 H222       -8.2807  -19.7109  -49.9632 H         1 UNK         0.0600 
    223 H223       -7.8691  -18.1940  -49.1781 H         1 UNK         0.0600 
    224 H224       -9.2212  -18.2557  -50.2918 H         1 UNK         0.0600 
    225 H225       -9.0606  -20.0124  -51.8181 H         1 UNK         0.3000 
    226 H226       -9.6625  -19.4384  -54.5341 H         1 UNK         0.0600 
    227 H227      -11.2327  -20.5897  -52.9954 H         1 UNK         0.0600 
    228 H228      -10.9240  -21.5948  -54.4018 H         1 UNK         0.0600 
    229 H229      -10.1414  -21.9706  -52.8713 H         1 UNK         0.0600 
    230 H230       -7.0798  -21.3456  -53.1216 H         1 UNK         0.3000 
    231 H231       -6.4007  -22.6946  -55.6676 H         1 UNK         0.0600 
    232 H232       -4.6762  -23.8033  -54.2951 H         1 UNK         0.0600 
    233 H233       -6.2410  -23.9499  -53.5156 H         1 UNK         0.0600 
    234 H234       -5.0652  -22.7838  -52.9185 H         1 UNK         0.0600 
    235 H235       -6.0583  -19.5956  -54.6219 H         1 UNK         0.3000 
    236 H236       -4.7952  -17.8535  -55.0419 H         1 UNK         0.0600 
    237 H237       -3.6548  -19.5243  -57.3542 H         1 UNK         0.0600 
    238 H238       -5.0420  -18.4472  -57.4091 H         1 UNK         0.0600 
    239 H239       -3.4378  -17.7890  -57.1453 H         1 UNK         0.0600 
    240 H240       -1.9998  -19.5303  -56.2050 H         1 UNK         0.3000 
    241 H241       -0.6223  -19.3163  -53.5697 H         1 UNK         0.0600 
    242 H242       -0.8794  -22.9577  -55.0688 H         1 UNK         0.3800 
    243 H243       -2.0878  -21.7185  -55.3014 H         1 UNK         0.3800 
    244 H244        1.5061  -18.9656  -54.8456 H         1 UNK         0.0800 
    245 H245        0.6228  -18.9790  -56.3444 H         1 UNK         0.0800 
    246 H246        1.3857  -15.4016  -53.6631 H         1 UNK         0.0800 
    247 H247        2.3557  -16.8266  -53.9328 H         1 UNK         0.0800 
@<TRIPOS>BOND
     1    1    2 1    
     2    1  127 1    
     3    1  128 1    
     4    1  129 1    
     5    2    3 2    
     6    2    4 am   BACKBONE|DICT|INTERRES
     7    4    5 1    
     8    4  130 1    
     9    5    6 1    
    10    5   65 1    
    11    5  131 1    
    12    6    7 1    
    13    6  132 1    
    14    6  133 1    
    15    7    8 1    
    16    8    9 1    
    17    8  134 1    
    18    8  135 1    
    19    9   10 ar   
    20    9   14 ar   
    21   10   11 ar   
    22   10  136 1    
    23   11   12 ar   
    24   11  126 1    
    25   12   13 ar   
    26   12  137 1    
    27   13   14 ar   
    28   13   15 1    
    29   14  138 1    
    30   15   16 1    
    31   15  139 1    
    32   15  140 1    
    33   16   17 1    
    34   17   18 1    
    35   17  141 1    
    36   17  142 1    
    37   18   19 1    
    38   18   67 1    
    39   18  143 1    
    40   19   20 am   BACKBONE|DICT|INTERRES
    41   19  144 1    
    42   20   21 2    
    43   20   22 1    
    44   22   23 1    
    45   22   24 1    
    46   22  145 1    
    47   23  146 1    
    48   23  147 1    
    49   23  148 1    
    50   24   25 am   BACKBONE|DICT|INTERRES
    51   24  149 1    
    52   25   26 2    
    53   25   27 1    
    54   27   28 1    
    55   27   29 1    
    56   27  150 1    
    57   28  151 1    
    58   28  152 1    
    59   28  153 1    
    60   29   30 am   BACKBONE|DICT|INTERRES
    61   29  154 1    
    62   30   31 2    
    63   30   32 1    
    64   32   33 1    
    65   32   34 1    
    66   32  155 1    
    67   33  156 1    
    68   33  157 1    
    69   33  158 1    
    70   34   35 am   BACKBONE|DICT|INTERRES
    71   34  159 1    
    72   35   36 2    
    73   35   37 1    
    74   37   38 1    
    75   37   39 1    
    76   37  160 1    
    77   38  161 1    
    78   38  162 1    
    79   38  163 1    
    80   39   40 am   BACKBONE|DICT|INTERRES
    81   39  164 1    
    82   40   41 2    
    83   40   42 1    
    84   42   43 1    
    85   42   44 1    
    86   42  165 1    
    87   43  166 1    
    88   43  167 1    
    89   43  168 1    
    90   44   45 am   BACKBONE|DICT|INTERRES
    91   44  169 1    
    92   45   46 2    
    93   45   47 1    
    94   47   48 1    
    95   47   49 1    
    96   47  170 1    
    97   48  171 1    
    98   48  172 1    
    99   48  173 1    
   100   49   50 am   BACKBONE|DICT|INTERRES
   101   49  174 1    
   102   50   51 2    
   103   50   52 1    
   104   52   53 1    
   105   52   54 1    
   106   52  175 1    
   107   53  176 1    
   108   53  177 1    
   109   53  178 1    
   110   54   55 am   BACKBONE|DICT|INTERRES
   111   54  179 1    
   112   55   56 2    
   113   55   57 1    
   114   57   58 1    
   115   57   59 1    
   116   57  180 1    
   117   58  181 1    
   118   58  182 1    
   119   58  183 1    
   120   59   60 am   BACKBONE|DICT|INTERRES
   121   59  184 1    
   122   60   61 2    
   123   60   62 1    
   124   62   63 1    
   125   62   64 1    
   126   62  185 1    
   127   63  186 1    
   128   63  187 1    
   129   63  188 1    
   130   64   65 am   BACKBONE|DICT|INTERRES
   131   64  189 1    
   132   65   66 2    
   133   67   68 2    
   134   67   69 am   BACKBONE|DICT|INTERRES
   135   69   70 1    
   136   69  190 1    
   137   70   71 1    
   138   70   72 1    
   139   70  191 1    
   140   71  192 1    
   141   71  193 1    
   142   71  194 1    
   143   72   73 2    
   144   72   74 am   BACKBONE|DICT|INTERRES
   145   74   75 1    
   146   74  195 1    
   147   75   76 1    
   148   75   77 1    
   149   75  196 1    
   150   76  197 1    
   151   76  198 1    
   152   76  199 1    
   153   77   78 2    
   154   77   79 am   BACKBONE|DICT|INTERRES
   155   79   80 1    
   156   79  200 1    
   157   80   81 1    
   158   80   82 1    
   159   80  201 1    
   160   81  202 1    
   161   81  203 1    
   162   81  204 1    
   163   82   83 2    
   164   82   84 am   BACKBONE|DICT|INTERRES
   165   84   85 1    
   166   84  205 1    
   167   85   86 1    
   168   85   87 1    
   169   85  206 1    
   170   86  207 1    
   171   86  208 1    
   172   86  209 1    
   173   87   88 2    
   174   87   89 am   BACKBONE|DICT|INTERRES
   175   89   90 1    
   176   89  210 1    
   177   90   91 1    
   178   90   92 1    
   179   90  211 1    
   180   91  212 1    
   181   91  213 1    
   182   91  214 1    
   183   92   93 2    
   184   92   94 am   BACKBONE|DICT|INTERRES
   185   94   95 1    
   186   94  215 1    
   187   95   96 1    
   188   95   97 1    
   189   95  216 1    
   190   96  217 1    
   191   96  218 1    
   192   96  219 1    
   193   97   98 2    
   194   97   99 am   BACKBONE|DICT|INTERRES
   195   99  100 1    
   196   99  220 1    
   197  100  101 1    
   198  100  102 1    
   199  100  221 1    
   200  101  222 1    
   201  101  223 1    
   202  101  224 1    
   203  102  103 2    
   204  102  104 am   BACKBONE|DICT|INTERRES
   205  104  105 1    
   206  104  225 1    
   207  105  106 1    
   208  105  107 1    
   209  105  226 1    
   210  106  227 1    
   211  106  228 1    
   212  106  229 1    
   213  107  108 2    
   214  107  109 am   BACKBONE|DICT|INTERRES
   215  109  110 1    
   216  109  230 1    
   217  110  111 1    
   218  110  112 1    
   219  110  231 1    
   220  111  232 1    
   221  111  233 1    
   222  111  234 1    
   223  112  113 2    
   224  112  114 am   BACKBONE|DICT|INTERRES
   225  114  115 1    
   226  114  235 1    
   227  115  116 1    
   228  115  117 1    
   229  115  236 1    
   230  116  237 1    
   231  116  238 1    
   232  116  239 1    
   233  117  118 2    
   234  117  119 am   BACKBONE|DICT|INTERRES
   235  119  120 1    
   236  119  240 1    
   237  120  121 1    
   238  120  124 1    
   239  120  241 1    
   240  121  122 am   BACKBONE|DICT|INTERRES
   241  121  123 2    
   242  122  242 1    
   243  122  243 1    
   244  124  125 1    
   245  124  244 1    
   246  124  245 1    
   247  125  126 1    
   248  126  246 1    
   249  126  247 1    
@<TRIPOS>SUBSTRUCTURE
     1 UNK         1 GROUP             0       ****    0 ROOT    
