@<TRIPOS>MOLECULE
3R540
247   249    1
SMALL
USER_CHARGES


@<TRIPOS>ATOM
      1 CA         -5.3203  -17.0125  -45.0468 C.3       0 UNK        -0.1800 
      2 C          -3.8154  -16.9729  -45.2617 C.2       0 UNK         0.5000 
      3 O          -3.1741  -15.9874  -44.8964 O.2       0 UNK        -0.5000 
      4 N          -3.2530  -18.0394  -45.8454 N.am      1 UNK        -0.5000 
      5 CA         -1.8433  -18.1660  -46.2397 C.3       1 UNK         0.1400 
      6 C6         -1.5373  -19.5162  -46.9258 C.3       23 UNK        -0.0398 
      7 S7         -2.6683  -19.8716  -48.3116 S.3       23 UNK        -0.2404 
      8 C8         -1.7808  -19.1578  -49.7373 C.3       23 UNK        -0.0205 
      9 C9         -0.5363  -19.9115  -50.2156 C.ar      23 UNK        -0.0193 
     10 C10         0.1768  -19.3872  -51.2963 C.ar      23 UNK        -0.1150 
     11 C11         1.3477  -19.9989  -51.7508 C.ar      23 UNK        -0.0193 
     12 C12         1.8204  -21.1447  -51.1064 C.ar      23 UNK        -0.1150 
     13 C13         1.1163  -21.6924  -50.0311 C.ar      23 UNK        -0.0193 
     14 C14        -0.0706  -21.0860  -49.6117 C.ar      23 UNK        -0.1150 
     15 C15         1.6392  -22.9353  -49.3227 C.3       23 UNK        -0.0205 
     16 S16         2.5725  -22.5138  -47.8118 S.3       23 UNK        -0.2404 
     17 C17         1.2330  -22.2109  -46.6081 C.3       23 UNK        -0.0398 
     18 CA          1.3924  -23.0316  -45.3047 C.3       11 UNK         0.1400 
     19 N           2.5980  -22.6436  -44.5663 N.am      11 UNK        -0.5000 
     20 C           3.3072  -23.4422  -43.7566 C.2       10 UNK         0.5000 
     21 O           2.9872  -24.6055  -43.5091 O.2       10 UNK        -0.5000 
     22 CA          4.5658  -22.8489  -43.0928 C.3       10 UNK         0.1400 
     23 CB          5.8211  -23.2422  -43.8862 C.3       10 UNK        -0.1800 
     24 N           4.5226  -21.3921  -42.9711 N.am      10 UNK        -0.5000 
     25 C           3.7100  -20.7109  -42.1513 C.2       9 UNK         0.5000 
     26 O           2.9575  -21.2465  -41.3380 O.2       9 UNK        -0.5000 
     27 CA          3.7289  -19.1730  -42.2731 C.3       9 UNK         0.1400 
     28 CB          4.5629  -18.5538  -41.1417 C.3       9 UNK        -0.1800 
     29 N           4.2356  -18.6869  -43.5613 N.am      9 UNK        -0.5000 
     30 C           3.6351  -18.8751  -44.7440 C.2       8 UNK         0.5000 
     31 O           2.5810  -19.4982  -44.8866 O.2       8 UNK        -0.5000 
     32 CA          4.3942  -18.3561  -45.9773 C.3       8 UNK         0.1400 
     33 CB          5.2100  -19.4938  -46.6110 C.3       8 UNK        -0.1800 
     34 N           3.4936  -17.8032  -46.9856 N.am      8 UNK        -0.5000 
     35 C           2.8395  -16.6410  -46.8686 C.2       7 UNK         0.5000 
     36 O           2.9587  -15.8904  -45.8971 O.2       7 UNK        -0.5000 
     37 CA          1.9309  -16.2256  -48.0409 C.3       7 UNK         0.1400 
     38 CB          1.4974  -17.3897  -48.9510 C.3       7 UNK        -0.1800 
     39 N           0.7577  -15.5414  -47.5122 N.am      7 UNK        -0.5000 
     40 C           0.0806  -14.5615  -48.1222 C.2       6 UNK         0.5000 
     41 O           0.3187  -14.1801  -49.2688 O.2       6 UNK        -0.5000 
     42 CA         -1.0417  -13.8715  -47.3181 C.3       6 UNK         0.1400 
     43 CB         -2.4278  -14.3504  -47.7783 C.3       6 UNK        -0.1800 
     44 N          -0.9148  -14.0602  -45.8708 N.am      6 UNK        -0.5000 
     45 C           0.0314  -13.4800  -45.1158 C.2       5 UNK         0.5000 
     46 O           0.8538  -12.6767  -45.5610 O.2       5 UNK        -0.5000 
     47 CA          0.0561  -13.8634  -43.6206 C.3       5 UNK         0.1400 
     48 CB          0.8803  -12.8875  -42.7556 C.3       5 UNK        -0.1800 
     49 N          -1.2834  -14.0500  -43.0580 N.am      5 UNK        -0.5000 
     50 C          -2.2803  -13.1528  -42.9904 C.2       4 UNK         0.5000 
     51 O          -2.1768  -11.9815  -43.3568 O.2       4 UNK        -0.5000 
     52 CA         -3.6260  -13.6491  -42.4261 C.3       4 UNK         0.1400 
     53 CB         -4.7771  -13.3736  -43.4097 C.3       4 UNK        -0.1800 
     54 N          -3.5852  -15.0848  -42.1353 N.am      4 UNK        -0.5000 
     55 C          -3.5959  -15.6175  -40.9077 C.2       3 UNK         0.5000 
     56 O          -3.7031  -14.9578  -39.8733 O.2       3 UNK        -0.5000 
     57 CA         -3.4477  -17.1464  -40.8108 C.3       3 UNK         0.1400 
     58 CB         -4.8145  -17.8345  -40.9477 C.3       3 UNK        -0.1800 
     59 N          -2.5146  -17.7307  -41.7789 N.am      3 UNK        -0.5000 
     60 C          -1.1858  -17.5414  -41.7758 C.2       2 UNK         0.5000 
     61 O          -0.6132  -16.7186  -41.0629 O.2       2 UNK        -0.5000 
     62 CA         -0.3560  -18.4322  -42.7166 C.3       2 UNK         0.1400 
     63 CB         -0.0670  -19.7810  -42.0444 C.3       2 UNK        -0.1800 
     64 N          -1.0501  -18.6675  -43.9804 N.am      2 UNK        -0.5000 
     65 C          -0.8825  -17.9035  -45.0656 C.2       1 UNK         0.5000 
     66 O          -0.0758  -16.9775  -45.1403 O.2       1 UNK        -0.5000 
     67 C           0.1370  -22.9525  -44.4039 C.2       11 UNK         0.5000 
     68 O          -0.8649  -22.3468  -44.7842 O.2       11 UNK        -0.5000 
     69 N           0.2044  -23.5660  -43.2159 N.am      12 UNK        -0.5000 
     70 CA         -0.8650  -23.5709  -42.2150 C.3       12 UNK         0.1400 
     71 CB         -0.2876  -24.0432  -40.8726 C.3       12 UNK        -0.1800 
     72 C          -2.0846  -24.4218  -42.6170 C.2       12 UNK         0.5000 
     73 O          -3.1985  -24.1265  -42.1835 O.2       12 UNK        -0.5000 
     74 N          -1.8543  -25.4573  -43.4342 N.am      13 UNK        -0.5000 
     75 CA         -2.8830  -26.3771  -43.9238 C.3       13 UNK         0.1400 
     76 CB         -2.2409  -27.7606  -44.1186 C.3       13 UNK        -0.1800 
     77 C          -3.5494  -25.9067  -45.2327 C.2       13 UNK         0.5000 
     78 O          -4.5462  -26.5032  -45.6434 O.2       13 UNK        -0.5000 
     79 N          -2.9835  -24.8838  -45.8870 N.am      14 UNK        -0.5000 
     80 CA         -3.4543  -24.3662  -47.1702 C.3       14 UNK         0.1400 
     81 CB         -2.3099  -23.5976  -47.8440 C.3       14 UNK        -0.1800 
     82 C          -4.6813  -23.4527  -47.0110 C.2       14 UNK         0.5000 
     83 O          -4.8028  -22.7455  -46.0076 O.2       14 UNK        -0.5000 
     84 N          -5.5396  -23.4530  -48.0359 N.am      15 UNK        -0.5000 
     85 CA         -6.6183  -22.4848  -48.2111 C.3       15 UNK         0.1400 
     86 CB         -7.7807  -23.1608  -48.9547 C.3       15 UNK        -0.1800 
     87 C          -6.0931  -21.2895  -49.0209 C.2       15 UNK         0.5000 
     88 O          -5.2428  -21.4769  -49.8948 O.2       15 UNK        -0.5000 
     89 N          -6.6444  -20.0959  -48.7574 N.am      16 UNK        -0.5000 
     90 CA         -6.2459  -18.8135  -49.3569 C.3       16 UNK         0.1400 
     91 CB         -7.1143  -17.6933  -48.7659 C.3       16 UNK        -0.1800 
     92 C          -6.2852  -18.7711  -50.8984 C.2       16 UNK         0.5000 
     93 O          -5.5390  -18.0005  -51.5025 O.2       16 UNK        -0.5000 
     94 N          -7.1080  -19.6372  -51.5074 N.am      17 UNK        -0.5000 
     95 CA         -7.1965  -19.8733  -52.9500 C.3       17 UNK         0.1400 
     96 CB         -8.2940  -20.9144  -53.2151 C.3       17 UNK        -0.1800 
     97 C          -5.8702  -20.3132  -53.6055 C.2       17 UNK         0.5000 
     98 O          -5.6958  -20.0919  -54.8037 O.2       17 UNK        -0.5000 
     99 N          -4.9378  -20.8780  -52.8214 N.am      18 UNK        -0.5000 
    100 CA        -3.5832  -21.2211  -53.2609 C.3       18 UNK         0.1400 
    101 CB        -2.8596  -21.9890  -52.1449 C.3       18 UNK        -0.1800 
    102 C         -2.7552  -20.0029  -53.7195 C.2       18 UNK         0.5000 
    103 O         -1.8851  -20.1584  -54.5745 O.2       18 UNK        -0.5000 
    104 N         -3.0702  -18.8009  -53.2116 N.am      19 UNK        -0.5000 
    105 CA        -2.4352  -17.5498  -53.6311 C.3       19 UNK         0.1400 
    106 CB        -2.8364  -16.4188  -52.6739 C.3       19 UNK        -0.1800 
    107 C         -2.7519  -17.1759  -55.0915 C.2       19 UNK         0.5000 
    108 O         -1.9030  -16.5843  -55.7588 O.2       19 UNK        -0.5000 
    109 N         -3.9374  -17.5675  -55.5819 N.am      20 UNK        -0.5000 
    110 CA        -4.3415  -17.3945  -56.9782 C.3       20 UNK         0.1400 
    111 CB        -5.8660  -17.5440  -57.0963 C.3       20 UNK        -0.1800 
    112 C         -3.6186  -18.3708  -57.9262 C.2       20 UNK         0.5000 
    113 O         -3.4415  -18.0455  -59.1006 O.2       20 UNK        -0.5000 
    114 N         -3.1995  -19.5340  -57.4054 N.am      21 UNK        -0.5000 
    115 CA        -2.3659  -20.4996  -58.1208 C.3       21 UNK         0.1400 
    116 CB        -2.4981  -21.8887  -57.4763 C.3       21 UNK        -0.1800 
    117 C         -0.8967  -20.0420  -58.1746 C.2       21 UNK         0.5000 
    118 O         -0.2656  -20.1701  -59.2249 O.2       21 UNK        -0.5000 
    119 N         -0.3878  -19.4990  -57.0590 N.am      22 UNK        -0.5000 
    120 CA         0.9459  -18.8808  -56.9696 C.3       22 UNK         0.1400 
    121 C          1.0825  -17.5878  -57.8218 C.2       22 UNK         0.5000 
    122 N          0.1089  -16.6860  -57.7972 N.am      22 UNK        -0.7600 
    123 O          2.0815  -17.4015  -58.5112 O.2       22 UNK        -0.5000 
    124 C124        1.3702  -18.5976  -55.5076 C.3       23 UNK        -0.0398 
    125 S125        1.5075  -20.1087  -54.4995 S.3       23 UNK        -0.2404 
    126 C126        2.1046  -19.4104  -52.9288 C.3       23 UNK        -0.0205 
    127 H127       -5.8138  -16.3660  -45.7721 H         1 UNK         0.0600 
    128 H128       -5.5711  -16.6521  -44.0498 H         1 UNK         0.0600 
    129 H129       -5.7186  -18.0213  -45.1568 H         1 UNK         0.0600 
    130 H130       -3.8398  -18.8134  -46.1228 H         1 UNK         0.3000 
    131 H131       -1.6524  -17.3861  -46.9774 H         1 UNK         0.0600 
    132 H132       -0.5058  -19.5449  -47.2760 H         1 UNK         0.0800 
    133 H133       -1.6387  -20.3364  -46.2152 H         1 UNK         0.0800 
    134 H134       -2.4890  -19.0999  -50.5624 H         1 UNK         0.0800 
    135 H135       -1.5081  -18.1292  -49.4984 H         1 UNK         0.0800 
    136 H136       -0.1740  -18.4874  -51.7787 H         1 UNK         0.1150 
    137 H137        2.7346  -21.6115  -51.4452 H         1 UNK         0.1150 
    138 H138       -0.6188  -21.5270  -48.7983 H         1 UNK         0.1150 
    139 H139        0.8173  -23.6118  -49.0850 H         1 UNK         0.0800 
    140 H140        2.2984  -23.4907  -49.9914 H         1 UNK         0.0800 
    141 H141        0.2889  -22.4712  -47.0790 H         1 UNK         0.0800 
    142 H142        1.1854  -21.1425  -46.3952 H         1 UNK         0.0800 
    143 H143        1.4862  -24.0800  -45.5960 H         1 UNK         0.0600 
    144 H144        2.8797  -21.6769  -44.6713 H         1 UNK         0.3000 
    145 H145        4.6437  -23.2751  -42.0904 H         1 UNK         0.0600 
    146 H146        6.7270  -22.8880  -43.3938 H         1 UNK         0.0600 
    147 H147        5.9038  -24.3263  -43.9746 H         1 UNK         0.0600 
    148 H148        5.8039  -22.8310  -44.8966 H         1 UNK         0.0600 
    149 H149        5.1209  -20.8679  -43.5914 H         1 UNK         0.3000 
    150 H150        2.7011  -18.8250  -42.1654 H         1 UNK         0.0600 
    151 H151        5.6111  -18.8481  -41.2066 H         1 UNK         0.0600 
    152 H152        4.1929  -18.8698  -40.1654 H         1 UNK         0.0600 
    153 H153        4.5162  -17.4649  -41.1672 H         1 UNK         0.0600 
    154 H154        5.1075  -18.1777  -43.5320 H         1 UNK         0.3000 
    155 H155        5.0833  -17.5682  -45.6653 H         1 UNK         0.0600 
    156 H156        4.5689  -20.3087  -46.9497 H         1 UNK         0.0600 
    157 H157        5.9221  -19.9118  -45.8983 H         1 UNK         0.0600 
    158 H158        5.7820  -19.1394  -47.4687 H         1 UNK         0.0600 
    159 H159        3.3152  -18.3822  -47.7925 H         1 UNK         0.3000 
    160 H160        2.5105  -15.5191  -48.6382 H         1 UNK         0.0600 
    161 H161        0.9921  -18.1717  -48.3861 H         1 UNK         0.0600 
    162 H162        2.3491  -17.8411  -49.4609 H         1 UNK         0.0600 
    163 H163        0.8152  -17.0434  -49.7269 H         1 UNK         0.0600 
    164 H164        0.5209  -15.7836  -46.5527 H         1 UNK         0.3000 
    165 H165       -0.9755  -12.8012  -47.5239 H         1 UNK         0.0600 
    166 H166       -2.5791  -14.1418  -48.8381 H         1 UNK         0.0600 
    167 H167       -2.5572  -15.4217  -47.6374 H         1 UNK         0.0600 
    168 H168       -3.2223  -13.8437  -47.2301 H         1 UNK         0.0600 
    169 H169       -1.5607  -14.7104  -45.4353 H         1 UNK         0.3000 
    170 H170        0.5459  -14.8368  -43.5680 H         1 UNK         0.0600 
    171 H171        1.9181  -12.8520  -43.0888 H         1 UNK         0.0600 
    172 H172        0.4867  -11.8718  -42.8022 H         1 UNK         0.0600 
    173 H173        0.8872  -13.1980  -41.7107 H         1 UNK         0.0600 
    174 H174       -1.4783  -14.9768  -42.7082 H         1 UNK         0.3000 
    175 H175       -3.8174  -13.0763  -41.5168 H         1 UNK         0.0600 
    176 H176       -5.7247  -13.7479  -43.0223 H         1 UNK         0.0600 
    177 H177       -4.8975  -12.3032  -43.5802 H         1 UNK         0.0600 
    178 H178       -4.6041  -13.8396  -44.3798 H         1 UNK         0.0600 
    179 H179       -3.4803  -15.6862  -42.9458 H         1 UNK         0.3000 
    180 H180       -3.0632  -17.3681  -39.8128 H         1 UNK         0.0600 
    181 H181       -5.2375  -17.7014  -41.9430 H         1 UNK         0.0600 
    182 H182       -5.5298  -17.4295  -40.2306 H         1 UNK         0.0600 
    183 H183       -4.7376  -18.9050  -40.7567 H         1 UNK         0.0600 
    184 H184       -2.9007  -18.4151  -42.4099 H         1 UNK         0.3000 
    185 H185        0.5987  -17.9352  -42.9018 H         1 UNK         0.0600 
    186 H186        0.5006  -19.6459  -41.1230 H         1 UNK         0.0600 
    187 H187       -0.9875  -20.3035  -41.7861 H         1 UNK         0.0600 
    188 H188        0.5202  -20.4280  -42.6964 H         1 UNK         0.0600 
    189 H189       -1.7226  -19.4198  -44.0067 H         1 UNK         0.3000 
    190 H190        1.0648  -24.0474  -42.9786 H         1 UNK         0.3000 
    191 H191       -1.2191  -22.5477  -42.0899 H         1 UNK         0.0600 
    192 H192        0.5209  -23.3903  -40.5420 H         1 UNK         0.0600 
    193 H193       -1.0508  -24.0349  -40.0933 H         1 UNK         0.0600 
    194 H194        0.1054  -25.0584  -40.9385 H         1 UNK         0.0600 
    195 H195       -0.9064  -25.6322  -43.7341 H         1 UNK         0.3000 
    196 H196       -3.6712  -26.4749  -43.1742 H         1 UNK         0.0600 
    197 H197       -2.9792  -28.4937  -44.4462 H         1 UNK         0.0600 
    198 H198       -1.8110  -28.1304  -43.1874 H         1 UNK         0.0600 
    199 H199       -1.4488  -27.7353  -44.8681 H         1 UNK         0.0600 
    200 H200       -2.2300  -24.3792  -45.4434 H         1 UNK         0.3000 
    201 H201       -3.7221  -25.2103  -47.8097 H         1 UNK         0.0600 
    202 H202       -2.6049  -23.2382  -48.8312 H         1 UNK         0.0600 
    203 H203       -2.0255  -22.7272  -47.2534 H         1 UNK         0.0600 
    204 H204       -1.4289  -24.2260  -47.9737 H         1 UNK         0.0600 
    205 H205       -5.3245  -24.0136  -48.8477 H         1 UNK         0.3000 
    206 H206       -6.9757  -22.1369  -47.2395 H         1 UNK         0.0600 
    207 H207       -8.1541  -24.0221  -48.4003 H         1 UNK         0.0600 
    208 H208       -8.6163  -22.4718  -49.0843 H         1 UNK         0.0600 
    209 H209       -7.4818  -23.5046  -49.9460 H         1 UNK         0.0600 
    210 H210       -7.3599  -20.0437  -48.0467 H         1 UNK         0.3000 
    211 H211       -5.2124  -18.6251  -49.0636 H         1 UNK         0.0600 
    212 H212       -8.1696  -17.8369  -49.0010 H         1 UNK         0.0600 
    213 H213       -6.8189  -16.7199  -49.1602 H         1 UNK         0.0600 
    214 H214       -7.0143  -17.6457  -47.6816 H         1 UNK         0.0600 
    215 H215       -7.6694  -20.2367  -50.9215 H         1 UNK         0.3000 
    216 H216       -7.4923  -18.9330  -53.4193 H         1 UNK         0.0600 
    217 H217       -8.4084  -21.0989  -54.2843 H         1 UNK         0.0600 
    218 H218       -9.2600  -20.5749  -52.8409 H         1 UNK         0.0600 
    219 H219       -8.0648  -21.8690  -52.7396 H         1 UNK         0.0600 
    220 H220       -5.1433  -21.0295  -51.8377 H         1 UNK         0.3000 
    221 H221       -3.6734  -21.8864  -54.1220 H         1 UNK         0.0600 
    222 H222       -2.8311  -21.4192  -51.2170 H         1 UNK         0.0600 
    223 H223       -3.3562  -22.9358  -51.9337 H         1 UNK         0.0600 
    224 H224       -1.8290  -22.2145  -52.4232 H         1 UNK         0.0600 
    225 H225       -3.8378  -18.7243  -52.5534 H         1 UNK         0.3000 
    226 H226       -1.3545  -17.6824  -53.5622 H         1 UNK         0.0600 
    227 H227       -2.3185  -15.4929  -52.9271 H         1 UNK         0.0600 
    228 H228       -3.9071  -16.2167  -52.7166 H         1 UNK         0.0600 
    229 H229       -2.5811  -16.6623  -51.6425 H         1 UNK         0.0600 
    230 H230       -4.5638  -18.0981  -54.9910 H         1 UNK         0.3000 
    231 H231       -4.0799  -16.3799  -57.2866 H         1 UNK         0.0600 
    232 H232       -6.1942  -18.5565  -56.8624 H         1 UNK         0.0600 
    233 H233       -6.1986  -17.3221  -58.1111 H         1 UNK         0.0600 
    234 H234       -6.3849  -16.8578  -56.4270 H         1 UNK         0.0600 
    235 H235       -3.3716  -19.7169  -56.4270 H         1 UNK         0.3000 
    236 H236       -2.7303  -20.5773  -59.1475 H         1 UNK         0.0600 
    237 H237       -1.9500  -22.6345  -58.0532 H         1 UNK         0.0600 
    238 H238       -2.1021  -21.9108  -56.4616 H         1 UNK         0.0600 
    239 H239       -3.5395  -22.2084  -57.4372 H         1 UNK         0.0600 
    240 H240       -0.9419  -19.5107  -56.2089 H         1 UNK         0.3000 
    241 H241        1.6580  -19.6000  -57.3796 H         1 UNK         0.0600 
    242 H242       -0.6812  -16.7813  -57.1639 H         1 UNK         0.3800 
    243 H243        0.1967  -15.8513  -58.3542 H         1 UNK         0.3800 
    244 H244        0.6597  -17.9205  -55.0308 H         1 UNK         0.0800 
    245 H245        2.3400  -18.0965  -55.4839 H         1 UNK         0.0800 
    246 H246        3.1730  -19.6085  -52.8317 H         1 UNK         0.0800 
    247 H247        1.9953  -18.3249  -52.9252 H         1 UNK         0.0800 
@<TRIPOS>BOND
     1    1    2 1    
     2    1  127 1    
     3    1  128 1    
     4    1  129 1    
     5    2    3 2    
     6    2    4 am   BACKBONE|DICT|INTERRES
     7    4    5 1    
     8    4  130 1    
     9    5    6 1    
    10    5   65 1    
    11    5  131 1    
    12    6    7 1    
    13    6  132 1    
    14    6  133 1    
    15    7    8 1    
    16    8    9 1    
    17    8  134 1    
    18    8  135 1    
    19    9   10 ar   
    20    9   14 ar   
    21   10   11 ar   
    22   10  136 1    
    23   11   12 ar   
    24   11  126 1    
    25   12   13 ar   
    26   12  137 1    
    27   13   14 ar   
    28   13   15 1    
    29   14  138 1    
    30   15   16 1    
    31   15  139 1    
    32   15  140 1    
    33   16   17 1    
    34   17   18 1    
    35   17  141 1    
    36   17  142 1    
    37   18   19 1    
    38   18   67 1    
    39   18  143 1    
    40   19   20 am   BACKBONE|DICT|INTERRES
    41   19  144 1    
    42   20   21 2    
    43   20   22 1    
    44   22   23 1    
    45   22   24 1    
    46   22  145 1    
    47   23  146 1    
    48   23  147 1    
    49   23  148 1    
    50   24   25 am   BACKBONE|DICT|INTERRES
    51   24  149 1    
    52   25   26 2    
    53   25   27 1    
    54   27   28 1    
    55   27   29 1    
    56   27  150 1    
    57   28  151 1    
    58   28  152 1    
    59   28  153 1    
    60   29   30 am   BACKBONE|DICT|INTERRES
    61   29  154 1    
    62   30   31 2    
    63   30   32 1    
    64   32   33 1    
    65   32   34 1    
    66   32  155 1    
    67   33  156 1    
    68   33  157 1    
    69   33  158 1    
    70   34   35 am   BACKBONE|DICT|INTERRES
    71   34  159 1    
    72   35   36 2    
    73   35   37 1    
    74   37   38 1    
    75   37   39 1    
    76   37  160 1    
    77   38  161 1    
    78   38  162 1    
    79   38  163 1    
    80   39   40 am   BACKBONE|DICT|INTERRES
    81   39  164 1    
    82   40   41 2    
    83   40   42 1    
    84   42   43 1    
    85   42   44 1    
    86   42  165 1    
    87   43  166 1    
    88   43  167 1    
    89   43  168 1    
    90   44   45 am   BACKBONE|DICT|INTERRES
    91   44  169 1    
    92   45   46 2    
    93   45   47 1    
    94   47   48 1    
    95   47   49 1    
    96   47  170 1    
    97   48  171 1    
    98   48  172 1    
    99   48  173 1    
   100   49   50 am   BACKBONE|DICT|INTERRES
   101   49  174 1    
   102   50   51 2    
   103   50   52 1    
   104   52   53 1    
   105   52   54 1    
   106   52  175 1    
   107   53  176 1    
   108   53  177 1    
   109   53  178 1    
   110   54   55 am   BACKBONE|DICT|INTERRES
   111   54  179 1    
   112   55   56 2    
   113   55   57 1    
   114   57   58 1    
   115   57   59 1    
   116   57  180 1    
   117   58  181 1    
   118   58  182 1    
   119   58  183 1    
   120   59   60 am   BACKBONE|DICT|INTERRES
   121   59  184 1    
   122   60   61 2    
   123   60   62 1    
   124   62   63 1    
   125   62   64 1    
   126   62  185 1    
   127   63  186 1    
   128   63  187 1    
   129   63  188 1    
   130   64   65 am   BACKBONE|DICT|INTERRES
   131   64  189 1    
   132   65   66 2    
   133   67   68 2    
   134   67   69 am   BACKBONE|DICT|INTERRES
   135   69   70 1    
   136   69  190 1    
   137   70   71 1    
   138   70   72 1    
   139   70  191 1    
   140   71  192 1    
   141   71  193 1    
   142   71  194 1    
   143   72   73 2    
   144   72   74 am   BACKBONE|DICT|INTERRES
   145   74   75 1    
   146   74  195 1    
   147   75   76 1    
   148   75   77 1    
   149   75  196 1    
   150   76  197 1    
   151   76  198 1    
   152   76  199 1    
   153   77   78 2    
   154   77   79 am   BACKBONE|DICT|INTERRES
   155   79   80 1    
   156   79  200 1    
   157   80   81 1    
   158   80   82 1    
   159   80  201 1    
   160   81  202 1    
   161   81  203 1    
   162   81  204 1    
   163   82   83 2    
   164   82   84 am   BACKBONE|DICT|INTERRES
   165   84   85 1    
   166   84  205 1    
   167   85   86 1    
   168   85   87 1    
   169   85  206 1    
   170   86  207 1    
   171   86  208 1    
   172   86  209 1    
   173   87   88 2    
   174   87   89 am   BACKBONE|DICT|INTERRES
   175   89   90 1    
   176   89  210 1    
   177   90   91 1    
   178   90   92 1    
   179   90  211 1    
   180   91  212 1    
   181   91  213 1    
   182   91  214 1    
   183   92   93 2    
   184   92   94 am   BACKBONE|DICT|INTERRES
   185   94   95 1    
   186   94  215 1    
   187   95   96 1    
   188   95   97 1    
   189   95  216 1    
   190   96  217 1    
   191   96  218 1    
   192   96  219 1    
   193   97   98 2    
   194   97   99 am   BACKBONE|DICT|INTERRES
   195   99  100 1    
   196   99  220 1    
   197  100  101 1    
   198  100  102 1    
   199  100  221 1    
   200  101  222 1    
   201  101  223 1    
   202  101  224 1    
   203  102  103 2    
   204  102  104 am   BACKBONE|DICT|INTERRES
   205  104  105 1    
   206  104  225 1    
   207  105  106 1    
   208  105  107 1    
   209  105  226 1    
   210  106  227 1    
   211  106  228 1    
   212  106  229 1    
   213  107  108 2    
   214  107  109 am   BACKBONE|DICT|INTERRES
   215  109  110 1    
   216  109  230 1    
   217  110  111 1    
   218  110  112 1    
   219  110  231 1    
   220  111  232 1    
   221  111  233 1    
   222  111  234 1    
   223  112  113 2    
   224  112  114 am   BACKBONE|DICT|INTERRES
   225  114  115 1    
   226  114  235 1    
   227  115  116 1    
   228  115  117 1    
   229  115  236 1    
   230  116  237 1    
   231  116  238 1    
   232  116  239 1    
   233  117  118 2    
   234  117  119 am   BACKBONE|DICT|INTERRES
   235  119  120 1    
   236  119  240 1    
   237  120  121 1    
   238  120  124 1    
   239  120  241 1    
   240  121  122 am   BACKBONE|DICT|INTERRES
   241  121  123 2    
   242  122  242 1    
   243  122  243 1    
   244  124  125 1    
   245  124  244 1    
   246  124  245 1    
   247  125  126 1    
   248  126  246 1    
   249  126  247 1    
@<TRIPOS>SUBSTRUCTURE
     1 UNK         1 GROUP             0       ****    0 ROOT    
