@<TRIPOS>MOLECULE
3R540
247   249    1
SMALL
USER_CHARGES


@<TRIPOS>ATOM
      1 CA          9.1744  -15.1807  -46.2726 C.3       0 UNK        -0.1800 
      2 C           7.7966  -15.0621  -45.6366 C.2       0 UNK         0.5000 
      3 O           7.6821  -15.0861  -44.4113 O.2       0 UNK        -0.5000 
      4 N           6.7520  -14.9326  -46.4643 N.am      1 UNK        -0.5000 
      5 CA          5.3545  -14.7907  -46.0360 C.3       1 UNK         0.1400 
      6 C6          4.3659  -15.1799  -47.1658 C.3       23 UNK        -0.0398 
      7 S7          4.4876  -14.1448  -48.6723 S.3       23 UNK        -0.2404 
      8 C8          5.2835  -15.2713  -49.8612 C.3       23 UNK        -0.0205 
      9 C9          4.3656  -16.4125  -50.2718 C.ar      23 UNK        -0.0193 
     10 C10         3.3166  -16.1846  -51.1662 C.ar      23 UNK        -0.1150 
     11 C11         2.4707  -17.2293  -51.5496 C.ar      23 UNK        -0.0193 
     12 C12         2.6837  -18.5124  -51.0363 C.ar      23 UNK        -0.1150 
     13 C13         3.7320  -18.7521  -50.1422 C.ar      23 UNK        -0.0193 
     14 C14         4.5705  -17.6992  -49.7672 C.ar      23 UNK        -0.1150 
     15 C15         3.9707  -20.1444  -49.5791 C.3       23 UNK        -0.0205 
     16 S16         2.9741  -20.4344  -48.0846 S.3       23 UNK        -0.2404 
     17 C17         1.3646  -20.9004  -48.8054 C.3       23 UNK        -0.0398 
     18 CA          0.6913  -22.0321  -47.9962 C.3       11 UNK         0.1400 
     19 N           0.1882  -21.5736  -46.6977 N.am      11 UNK        -0.5000 
     20 C          -0.2729  -22.3818  -45.7333 C.2       10 UNK         0.5000 
     21 O          -0.2431  -23.6098  -45.8036 O.2       10 UNK        -0.5000 
     22 CA         -0.9387  -21.7119  -44.5172 C.3       10 UNK         0.1400 
     23 CB          0.1071  -21.2791  -43.4794 C.3       10 UNK        -0.1800 
     24 N          -1.7767  -20.5728  -44.8999 N.am      10 UNK        -0.5000 
     25 C          -2.8907  -20.6789  -45.6391 C.2       9 UNK         0.5000 
     26 O          -3.3581  -21.7561  -46.0058 O.2       9 UNK        -0.5000 
     27 CA         -3.5789  -19.3747  -46.0818 C.3       9 UNK         0.1400 
     28 CB         -4.5375  -18.8707  -44.9941 C.3       9 UNK        -0.1800 
     29 N          -2.6276  -18.3203  -46.4353 N.am      9 UNK        -0.5000 
     30 C          -1.7928  -18.3678  -47.4835 C.2       8 UNK         0.5000 
     31 O          -1.7905  -19.2842  -48.3055 O.2       8 UNK        -0.5000 
     32 CA         -0.7523  -17.2346  -47.6021 C.3       8 UNK         0.1400 
     33 CB         -1.3584  -15.9843  -48.2494 C.3       8 UNK        -0.1800 
     34 N          -0.1678  -16.8677  -46.3128 N.am      8 UNK        -0.5000 
     35 C           0.5624  -17.6952  -45.5538 C.2       7 UNK         0.5000 
     36 O           0.8507  -18.8447  -45.8814 O.2       7 UNK        -0.5000 
     37 CA          0.9853  -17.1718  -44.1715 C.3       7 UNK         0.1400 
     38 CB          2.2192  -16.2647  -44.2748 C.3       7 UNK        -0.1800 
     39 N          -0.1040  -16.4547  -43.5093 N.am      7 UNK        -0.5000 
     40 C          -1.2079  -17.0451  -43.0297 C.2       6 UNK         0.5000 
     41 O          -1.4020  -18.2596  -43.0628 O.2       6 UNK        -0.5000 
     42 CA         -2.2938  -16.1185  -42.4537 C.3       6 UNK         0.1400 
     43 CB         -1.9721  -15.7445  -40.9992 C.3       6 UNK        -0.1800 
     44 N          -2.4683  -14.8979  -43.2420 N.am      6 UNK        -0.5000 
     45 C          -2.9309  -14.8676  -44.5001 C.2       5 UNK         0.5000 
     46 O          -3.2883  -15.8664  -45.1209 O.2       5 UNK        -0.5000 
     47 CA         -2.9525  -13.4968  -45.1988 C.3       5 UNK         0.1400 
     48 CB         -4.2709  -12.7639  -44.9107 C.3       5 UNK        -0.1800 
     49 N          -1.8252  -12.6418  -44.8199 N.am      5 UNK        -0.5000 
     50 C          -0.5409  -12.9258  -45.0713 C.2       4 UNK         0.5000 
     51 O          -0.1619  -13.9611  -45.6258 O.2       4 UNK        -0.5000 
     52 CA          0.4923  -11.9043  -44.5714 C.3       4 UNK         0.1400 
     53 CB          1.1670  -12.4070  -43.2861 C.3       4 UNK        -0.1800 
     54 N           1.5095  -11.6467  -45.5872 N.am      4 UNK        -0.5000 
     55 C           1.3053  -10.9039  -46.6862 C.2       3 UNK         0.5000 
     56 O           0.2311  -10.3510  -46.9313 O.2       3 UNK        -0.5000 
     57 CA          2.4830  -10.7476  -47.6773 C.3       3 UNK         0.1400 
     58 CB          2.4661   -9.3926  -48.4152 C.3       3 UNK        -0.1800 
     59 N           3.7990  -10.9987  -47.0810 N.am      3 UNK        -0.5000 
     60 C           4.3883  -10.3411  -46.0691 C.2       2 UNK         0.5000 
     61 O           3.9304   -9.3188  -45.5565 O.2       2 UNK        -0.5000 
     62 CA          5.7011  -10.9541  -45.5255 C.3       2 UNK         0.1400 
     63 CB          5.8826  -10.7062  -44.0136 C.3       2 UNK        -0.1800 
     64 N           5.8549  -12.3847  -45.8319 N.am      2 UNK        -0.5000 
     65 C           5.0324  -13.3874  -45.4779 C.2       1 UNK         0.5000 
     66 O           4.0192  -13.2309  -44.7968 O.2       1 UNK        -0.5000 
     67 C          -0.4077  -22.7320  -48.8223 C.2       11 UNK         0.5000 
     68 O          -0.1381  -23.7829  -49.4039 O.2       11 UNK        -0.5000 
     69 N          -1.6306  -22.1798  -48.8249 N.am      12 UNK        -0.5000 
     70 CA         -2.8039  -22.7926  -49.4544 C.3       12 UNK         0.1400 
     71 CB         -3.9913  -21.8184  -49.4250 C.3       12 UNK        -0.1800 
     72 C          -3.1794  -24.1406  -48.8114 C.2       12 UNK         0.5000 
     73 O          -3.4688  -25.0928  -49.5307 O.2       12 UNK        -0.5000 
     74 N          -3.1221  -24.2158  -47.4744 N.am      13 UNK        -0.5000 
     75 CA         -3.3330  -25.4428  -46.7063 C.3       13 UNK         0.1400 
     76 CB         -3.4069  -25.1136  -45.2076 C.3       13 UNK        -0.1800 
     77 C          -2.2645  -26.5147  -46.9861 C.2       13 UNK         0.5000 
     78 O          -2.6169  -27.6792  -47.1729 O.2       13 UNK        -0.5000 
     79 N          -0.9904  -26.1035  -47.0567 N.am      14 UNK        -0.5000 
     80 CA          0.1474  -26.9636  -47.3947 C.3       14 UNK         0.1400 
     81 CB          1.4569  -26.1922  -47.1725 C.3       14 UNK        -0.1800 
     82 C           0.0792  -27.5211  -48.8303 C.2       14 UNK         0.5000 
     83 O           0.4449  -28.6756  -49.0530 O.2       14 UNK        -0.5000 
     84 N          -0.4203  -26.7055  -49.7680 N.am      15 UNK        -0.5000 
     85 CA         -0.6753  -27.0770  -51.1622 C.3       15 UNK         0.1400 
     86 CB         -0.7533  -25.7915  -52.0018 C.3       15 UNK        -0.1800 
     87 C          -1.9494  -27.9297  -51.3583 C.2       15 UNK         0.5000 
     88 O          -2.1545  -28.4397  -52.4609 O.2       15 UNK        -0.5000 
     89 N          -2.7618  -28.0618  -50.2988 N.am      16 UNK        -0.5000 
     90 CA         -4.1069  -28.6392  -50.2134 C.3       16 UNK         0.1400 
     91 CB         -4.1850  -30.0556  -50.8170 C.3       16 UNK        -0.1800 
     92 C          -5.1825  -27.7024  -50.7980 C.2       16 UNK         0.5000 
     93 O          -4.9317  -26.9961  -51.7763 O.2       16 UNK        -0.5000 
     94 N          -6.3707  -27.7393  -50.1747 N.am      17 UNK        -0.5000 
     95 CA         -7.5202  -26.8492  -50.3761 C.3       17 UNK         0.1400 
     96 CB         -8.0467  -26.8914  -51.8266 C.3       17 UNK        -0.1800 
     97 C          -7.1984  -25.4230  -49.8883 C.2       17 UNK         0.5000 
     98 O          -6.8231  -24.5568  -50.6802 O.2       17 UNK        -0.5000 
     99 N          -7.3366  -25.2197  -48.5706 N.am      18 UNK        -0.5000 
    100 CA        -7.0863  -23.9679  -47.8500 C.3       18 UNK         0.1400 
    101 CB        -6.9771  -24.2863  -46.3468 C.3       18 UNK        -0.1800 
    102 C         -8.1552  -22.8880  -48.1343 C.2       18 UNK         0.5000 
    103 O         -8.8854  -22.4817  -47.2281 O.2       18 UNK        -0.5000 
    104 N         -8.2412  -22.4523  -49.3924 N.am      19 UNK        -0.5000 
    105 CA        -9.1534  -21.4272  -49.8833 C.3       19 UNK         0.1400 
    106 CB       -10.4074  -22.0997  -50.4662 C.3       19 UNK        -0.1800 
    107 C         -8.4350  -20.5850  -50.9455 C.2       19 UNK         0.5000 
    108 O         -7.5047  -21.0740  -51.5893 O.2       19 UNK        -0.5000 
    109 N         -8.8828  -19.3313  -51.0990 N.am      20 UNK        -0.5000 
    110 CA        -8.4207  -18.3132  -52.0564 C.3       20 UNK         0.1400 
    111 CB        -8.6205  -18.7900  -53.5101 C.3       20 UNK        -0.1800 
    112 C         -6.9888  -17.7797  -51.8242 C.2       20 UNK         0.5000 
    113 O         -6.5468  -16.9159  -52.5849 O.2       20 UNK        -0.5000 
    114 N         -6.2996  -18.2623  -50.7782 N.am      21 UNK        -0.5000 
    115 CA        -4.9350  -17.9043  -50.3786 C.3       21 UNK         0.1400 
    116 CB        -4.9240  -16.4739  -49.7940 C.3       21 UNK        -0.1800 
    117 C         -3.9325  -18.1426  -51.5319 C.2       21 UNK         0.5000 
    118 O         -3.8437  -19.2696  -52.0212 O.2       21 UNK        -0.5000 
    119 N         -3.2272  -17.0933  -51.9701 N.am      22 UNK        -0.5000 
    120 CA        -2.3485  -17.1171  -53.1529 C.3       22 UNK         0.1400 
    121 C         -3.1009  -17.0550  -54.5180 C.2       22 UNK         0.5000 
    122 N         -4.4185  -16.8973  -54.5661 N.am      22 UNK        -0.7600 
    123 O         -2.4715  -17.1615  -55.5672 O.2       22 UNK        -0.5000 
    124 C124       -1.2515  -16.0239  -53.0758 C.3       23 UNK        -0.0398 
    125 S125       -0.1131  -16.2710  -51.6721 S.3       23 UNK        -0.2404 
    126 C126        1.3343  -16.9670  -52.5238 C.3       23 UNK        -0.0205 
    127 H127        9.8137  -14.3639  -45.9376 H         1 UNK         0.0600 
    128 H128        9.1232  -15.1482  -47.3612 H         1 UNK         0.0600 
    129 H129        9.6415  -16.1218  -45.9825 H         1 UNK         0.0600 
    130 H130        6.9077  -14.9125  -47.4616 H         1 UNK         0.3000 
    131 H131        5.1903  -15.4890  -45.2124 H         1 UNK         0.0600 
    132 H132        4.5110  -16.2284  -47.4221 H         1 UNK         0.0800 
    133 H133        3.3368  -15.1173  -46.8097 H         1 UNK         0.0800 
    134 H134        5.5642  -14.7022  -50.7487 H         1 UNK         0.0800 
    135 H135        6.2140  -15.6545  -49.4407 H         1 UNK         0.0800 
    136 H136        3.1531  -15.1901  -51.5576 H         1 UNK         0.1150 
    137 H137        2.0320  -19.3223  -51.3311 H         1 UNK         0.1150 
    138 H138        5.3818  -17.8828  -49.0768 H         1 UNK         0.1150 
    139 H139        3.7648  -20.9048  -50.3336 H         1 UNK         0.0800 
    140 H140        5.0240  -20.2613  -49.3196 H         1 UNK         0.0800 
    141 H141        1.5249  -21.2187  -49.8367 H         1 UNK         0.0800 
    142 H142        0.7281  -20.0163  -48.8546 H         1 UNK         0.0800 
    143 H143        1.4487  -22.7929  -47.7943 H         1 UNK         0.0600 
    144 H144        0.2045  -20.5715  -46.5297 H         1 UNK         0.3000 
    145 H145       -1.5861  -22.4544  -44.0463 H         1 UNK         0.0600 
    146 H146       -0.3677  -20.8533  -42.5954 H         1 UNK         0.0600 
    147 H147        0.7023  -22.1317  -43.1501 H         1 UNK         0.0600 
    148 H148        0.7959  -20.5365  -43.8800 H         1 UNK         0.0600 
    149 H149       -1.4813  -19.6577  -44.5782 H         1 UNK         0.3000 
    150 H150       -4.1706  -19.5997  -46.9713 H         1 UNK         0.0600 
    151 H151       -5.2628  -19.6395  -44.7249 H         1 UNK         0.0600 
    152 H152       -5.0982  -18.0007  -45.3364 H         1 UNK         0.0600 
    153 H153       -4.0036  -18.5889  -44.0862 H         1 UNK         0.0600 
    154 H154       -2.6250  -17.4958  -45.8406 H         1 UNK         0.3000 
    155 H155        0.0565  -17.5896  -48.2447 H         1 UNK         0.0600 
    156 H156       -0.6180  -15.1895  -48.3433 H         1 UNK         0.0600 
    157 H157       -2.1980  -15.5954  -47.6736 H         1 UNK         0.0600 
    158 H158       -1.7162  -16.2103  -49.2522 H         1 UNK         0.0600 
    159 H159       -0.3283  -15.9187  -45.9888 H         1 UNK         0.3000 
    160 H160        1.2525  -18.0334  -43.5558 H         1 UNK         0.0600 
    161 H161        2.5632  -15.9503  -43.2894 H         1 UNK         0.0600 
    162 H162        2.0127  -15.3672  -44.8574 H         1 UNK         0.0600 
    163 H163        3.0456  -16.7890  -44.7558 H         1 UNK         0.0600 
    164 H164       -0.0436  -15.4479  -43.4933 H         1 UNK         0.3000 
    165 H165       -3.2384  -16.6665  -42.4646 H         1 UNK         0.0600 
    166 H166       -2.7747  -15.1536  -40.5574 H         1 UNK         0.0600 
    167 H167       -1.8517  -16.6377  -40.3846 H         1 UNK         0.0600 
    168 H168       -1.0495  -15.1675  -40.9243 H         1 UNK         0.0600 
    169 H169       -2.1990  -14.0283  -42.8067 H         1 UNK         0.3000 
    170 H170       -2.8899  -13.6737  -46.2744 H         1 UNK         0.0600 
    171 H171       -5.1274  -13.3729  -45.2032 H         1 UNK         0.0600 
    172 H172       -4.3804  -12.5307  -43.8509 H         1 UNK         0.0600 
    173 H173       -4.3330  -11.8296  -45.4690 H         1 UNK         0.0600 
    174 H174       -2.0551  -11.7735  -44.3583 H         1 UNK         0.3000 
    175 H175       -0.0127  -10.9631  -44.3436 H         1 UNK         0.0600 
    176 H176        1.6720  -13.3607  -43.4400 H         1 UNK         0.0600 
    177 H177        1.9084  -11.6934  -42.9256 H         1 UNK         0.0600 
    178 H178        0.4358  -12.5481  -42.4893 H         1 UNK         0.0600 
    179 H179        2.4045  -12.1038  -45.4516 H         1 UNK         0.3000 
    180 H180        2.3425  -11.5286  -48.4260 H         1 UNK         0.0600 
    181 H181        3.3011   -9.3122  -49.1112 H         1 UNK         0.0600 
    182 H182        2.5238   -8.5527  -47.7225 H         1 UNK         0.0600 
    183 H183        1.5506   -9.2736  -48.9958 H         1 UNK         0.0600 
    184 H184        4.2692  -11.8254  -47.4232 H         1 UNK         0.3000 
    185 H185        6.5112  -10.4409  -46.0452 H         1 UNK         0.0600 
    186 H186        6.8104  -11.1482  -43.6504 H         1 UNK         0.0600 
    187 H187        5.9255   -9.6391  -43.7928 H         1 UNK         0.0600 
    188 H188        5.0609  -11.1268  -43.4330 H         1 UNK         0.0600 
    189 H189        6.6495  -12.6228  -46.4086 H         1 UNK         0.3000 
    190 H190       -1.7657  -21.2795  -48.3757 H         1 UNK         0.3000 
    191 H191       -2.5525  -22.9815  -50.5001 H         1 UNK         0.0600 
    192 H192       -4.8286  -22.2104  -50.0043 H         1 UNK         0.0600 
    193 H193       -3.7177  -20.8581  -49.8588 H         1 UNK         0.0600 
    194 H194       -4.3504  -21.6379  -48.4131 H         1 UNK         0.0600 
    195 H195       -2.9373  -23.3680  -46.9449 H         1 UNK         0.3000 
    196 H196       -4.2930  -25.8602  -47.0141 H         1 UNK         0.0600 
    197 H197       -2.4599  -24.7290  -44.8302 H         1 UNK         0.0600 
    198 H198       -4.1727  -24.3658  -45.0019 H         1 UNK         0.0600 
    199 H199       -3.6537  -26.0027  -44.6263 H         1 UNK         0.0600 
    200 H200       -0.7778  -25.1351  -46.8311 H         1 UNK         0.3000 
    201 H201        0.1347  -27.8139  -46.7098 H         1 UNK         0.0600 
    202 H202        1.5235  -25.3175  -47.8195 H         1 UNK         0.0600 
    203 H203        2.3220  -26.8224  -47.3819 H         1 UNK         0.0600 
    204 H204        1.5440  -25.8519  -46.1405 H         1 UNK         0.0600 
    205 H205       -0.6335  -25.7462  -49.5123 H         1 UNK         0.3000 
    206 H206        0.1694  -27.6670  -51.5234 H         1 UNK         0.0600 
    207 H207        0.1631  -25.2072  -51.9161 H         1 UNK         0.0600 
    208 H208       -0.8960  -26.0195  -53.0587 H         1 UNK         0.0600 
    209 H209       -1.5845  -25.1595  -51.6868 H         1 UNK         0.0600 
    210 H210       -2.4789  -27.5680  -49.4623 H         1 UNK         0.3000 
    211 H211       -4.3006  -28.7308  -49.1437 H         1 UNK         0.0600 
    212 H212       -5.1341  -30.5300  -50.5655 H         1 UNK         0.0600 
    213 H213       -3.3899  -30.6948  -50.4329 H         1 UNK         0.0600 
    214 H214       -4.1135  -30.0423  -51.9047 H         1 UNK         0.0600 
    215 H215       -6.4657  -28.3755  -49.3953 H         1 UNK         0.3000 
    216 H216       -8.3199  -27.2363  -49.7423 H         1 UNK         0.0600 
    217 H217       -8.9707  -26.3191  -51.9153 H         1 UNK         0.0600 
    218 H218       -7.3396  -26.4685  -52.5401 H         1 UNK         0.0600 
    219 H219       -8.2652  -27.9131  -52.1369 H         1 UNK         0.0600 
    220 H220       -7.6689  -25.9857  -48.0031 H         1 UNK         0.3000 
    221 H221       -6.1240  -23.5719  -48.1781 H         1 UNK         0.0600 
    222 H222       -6.2459  -25.0679  -46.1528 H         1 UNK         0.0600 
    223 H223       -7.9291  -24.6239  -45.9350 H         1 UNK         0.0600 
    224 H224       -6.6674  -23.4047  -45.7839 H         1 UNK         0.0600 
    225 H225       -7.6140  -22.8456  -50.0912 H         1 UNK         0.3000 
    226 H226       -9.4449  -20.7660  -49.0643 H         1 UNK         0.0600 
    227 H227      -10.1558  -22.7719  -51.2878 H         1 UNK         0.0600 
    228 H228      -10.9312  -22.6811  -49.7072 H         1 UNK         0.0600 
    229 H229      -11.1094  -21.3583  -50.8496 H         1 UNK         0.0600 
    230 H230       -9.6401  -19.0284  -50.5014 H         1 UNK         0.3000 
    231 H231       -9.0770  -17.4547  -51.9067 H         1 UNK         0.0600 
    232 H232       -7.9431  -19.6043  -53.7679 H         1 UNK         0.0600 
    233 H233       -8.4350  -17.9800  -54.2165 H         1 UNK         0.0600 
    234 H234       -9.6409  -19.1352  -53.6762 H         1 UNK         0.0600 
    235 H235       -6.7299  -19.0068  -50.2508 H         1 UNK         0.3000 
    236 H236       -4.6506  -18.5892  -49.5785 H         1 UNK         0.0600 
    237 H237       -3.9483  -16.2172  -49.3897 H         1 UNK         0.0600 
    238 H238       -5.1885  -15.7194  -50.5356 H         1 UNK         0.0600 
    239 H239       -5.6349  -16.3873  -48.9721 H         1 UNK         0.0600 
    240 H240       -3.3696  -16.1930  -51.5379 H         1 UNK         0.3000 
    241 H241       -1.8341  -18.0801  -53.1606 H         1 UNK         0.0600 
    242 H242       -4.8724  -16.8637  -55.4647 H         1 UNK         0.3800 
    243 H243       -4.9856  -16.8398  -53.7252 H         1 UNK         0.3800 
    244 H244       -1.7076  -15.0374  -52.9802 H         1 UNK         0.0800 
    245 H245       -0.6650  -15.9916  -53.9957 H         1 UNK         0.0800 
    246 H246        1.0474  -17.8888  -53.0323 H         1 UNK         0.0800 
    247 H247        1.6707  -16.2760  -53.2985 H         1 UNK         0.0800 
@<TRIPOS>BOND
     1    1    2 1    
     2    1  127 1    
     3    1  128 1    
     4    1  129 1    
     5    2    3 2    
     6    2    4 am   BACKBONE|DICT|INTERRES
     7    4    5 1    
     8    4  130 1    
     9    5    6 1    
    10    5   65 1    
    11    5  131 1    
    12    6    7 1    
    13    6  132 1    
    14    6  133 1    
    15    7    8 1    
    16    8    9 1    
    17    8  134 1    
    18    8  135 1    
    19    9   10 ar   
    20    9   14 ar   
    21   10   11 ar   
    22   10  136 1    
    23   11   12 ar   
    24   11  126 1    
    25   12   13 ar   
    26   12  137 1    
    27   13   14 ar   
    28   13   15 1    
    29   14  138 1    
    30   15   16 1    
    31   15  139 1    
    32   15  140 1    
    33   16   17 1    
    34   17   18 1    
    35   17  141 1    
    36   17  142 1    
    37   18   19 1    
    38   18   67 1    
    39   18  143 1    
    40   19   20 am   BACKBONE|DICT|INTERRES
    41   19  144 1    
    42   20   21 2    
    43   20   22 1    
    44   22   23 1    
    45   22   24 1    
    46   22  145 1    
    47   23  146 1    
    48   23  147 1    
    49   23  148 1    
    50   24   25 am   BACKBONE|DICT|INTERRES
    51   24  149 1    
    52   25   26 2    
    53   25   27 1    
    54   27   28 1    
    55   27   29 1    
    56   27  150 1    
    57   28  151 1    
    58   28  152 1    
    59   28  153 1    
    60   29   30 am   BACKBONE|DICT|INTERRES
    61   29  154 1    
    62   30   31 2    
    63   30   32 1    
    64   32   33 1    
    65   32   34 1    
    66   32  155 1    
    67   33  156 1    
    68   33  157 1    
    69   33  158 1    
    70   34   35 am   BACKBONE|DICT|INTERRES
    71   34  159 1    
    72   35   36 2    
    73   35   37 1    
    74   37   38 1    
    75   37   39 1    
    76   37  160 1    
    77   38  161 1    
    78   38  162 1    
    79   38  163 1    
    80   39   40 am   BACKBONE|DICT|INTERRES
    81   39  164 1    
    82   40   41 2    
    83   40   42 1    
    84   42   43 1    
    85   42   44 1    
    86   42  165 1    
    87   43  166 1    
    88   43  167 1    
    89   43  168 1    
    90   44   45 am   BACKBONE|DICT|INTERRES
    91   44  169 1    
    92   45   46 2    
    93   45   47 1    
    94   47   48 1    
    95   47   49 1    
    96   47  170 1    
    97   48  171 1    
    98   48  172 1    
    99   48  173 1    
   100   49   50 am   BACKBONE|DICT|INTERRES
   101   49  174 1    
   102   50   51 2    
   103   50   52 1    
   104   52   53 1    
   105   52   54 1    
   106   52  175 1    
   107   53  176 1    
   108   53  177 1    
   109   53  178 1    
   110   54   55 am   BACKBONE|DICT|INTERRES
   111   54  179 1    
   112   55   56 2    
   113   55   57 1    
   114   57   58 1    
   115   57   59 1    
   116   57  180 1    
   117   58  181 1    
   118   58  182 1    
   119   58  183 1    
   120   59   60 am   BACKBONE|DICT|INTERRES
   121   59  184 1    
   122   60   61 2    
   123   60   62 1    
   124   62   63 1    
   125   62   64 1    
   126   62  185 1    
   127   63  186 1    
   128   63  187 1    
   129   63  188 1    
   130   64   65 am   BACKBONE|DICT|INTERRES
   131   64  189 1    
   132   65   66 2    
   133   67   68 2    
   134   67   69 am   BACKBONE|DICT|INTERRES
   135   69   70 1    
   136   69  190 1    
   137   70   71 1    
   138   70   72 1    
   139   70  191 1    
   140   71  192 1    
   141   71  193 1    
   142   71  194 1    
   143   72   73 2    
   144   72   74 am   BACKBONE|DICT|INTERRES
   145   74   75 1    
   146   74  195 1    
   147   75   76 1    
   148   75   77 1    
   149   75  196 1    
   150   76  197 1    
   151   76  198 1    
   152   76  199 1    
   153   77   78 2    
   154   77   79 am   BACKBONE|DICT|INTERRES
   155   79   80 1    
   156   79  200 1    
   157   80   81 1    
   158   80   82 1    
   159   80  201 1    
   160   81  202 1    
   161   81  203 1    
   162   81  204 1    
   163   82   83 2    
   164   82   84 am   BACKBONE|DICT|INTERRES
   165   84   85 1    
   166   84  205 1    
   167   85   86 1    
   168   85   87 1    
   169   85  206 1    
   170   86  207 1    
   171   86  208 1    
   172   86  209 1    
   173   87   88 2    
   174   87   89 am   BACKBONE|DICT|INTERRES
   175   89   90 1    
   176   89  210 1    
   177   90   91 1    
   178   90   92 1    
   179   90  211 1    
   180   91  212 1    
   181   91  213 1    
   182   91  214 1    
   183   92   93 2    
   184   92   94 am   BACKBONE|DICT|INTERRES
   185   94   95 1    
   186   94  215 1    
   187   95   96 1    
   188   95   97 1    
   189   95  216 1    
   190   96  217 1    
   191   96  218 1    
   192   96  219 1    
   193   97   98 2    
   194   97   99 am   BACKBONE|DICT|INTERRES
   195   99  100 1    
   196   99  220 1    
   197  100  101 1    
   198  100  102 1    
   199  100  221 1    
   200  101  222 1    
   201  101  223 1    
   202  101  224 1    
   203  102  103 2    
   204  102  104 am   BACKBONE|DICT|INTERRES
   205  104  105 1    
   206  104  225 1    
   207  105  106 1    
   208  105  107 1    
   209  105  226 1    
   210  106  227 1    
   211  106  228 1    
   212  106  229 1    
   213  107  108 2    
   214  107  109 am   BACKBONE|DICT|INTERRES
   215  109  110 1    
   216  109  230 1    
   217  110  111 1    
   218  110  112 1    
   219  110  231 1    
   220  111  232 1    
   221  111  233 1    
   222  111  234 1    
   223  112  113 2    
   224  112  114 am   BACKBONE|DICT|INTERRES
   225  114  115 1    
   226  114  235 1    
   227  115  116 1    
   228  115  117 1    
   229  115  236 1    
   230  116  237 1    
   231  116  238 1    
   232  116  239 1    
   233  117  118 2    
   234  117  119 am   BACKBONE|DICT|INTERRES
   235  119  120 1    
   236  119  240 1    
   237  120  121 1    
   238  120  124 1    
   239  120  241 1    
   240  121  122 am   BACKBONE|DICT|INTERRES
   241  121  123 2    
   242  122  242 1    
   243  122  243 1    
   244  124  125 1    
   245  124  244 1    
   246  124  245 1    
   247  125  126 1    
   248  126  246 1    
   249  126  247 1    
@<TRIPOS>SUBSTRUCTURE
     1 UNK         1 GROUP             0       ****    0 ROOT    
