@<TRIPOS>MOLECULE
3R540
247   249    1
SMALL
USER_CHARGES


@<TRIPOS>ATOM
      1 CA         -2.2355  -14.2347  -45.6083 C.3       0 UNK        -0.1800 
      2 C          -1.5230  -13.0736  -46.2885 C.2       0 UNK         0.5000 
      3 O          -1.5829  -11.9463  -45.7980 O.2       0 UNK        -0.5000 
      4 N          -0.8242  -13.3501  -47.3984 N.am      1 UNK        -0.5000 
      5 CA         -0.1067  -12.3766  -48.2390 C.3       1 UNK         0.1400 
      6 C6          0.4547  -13.0421  -49.5197 C.3       23 UNK        -0.0398 
      7 S7         -0.8654  -13.6905  -50.5996 S.3       23 UNK        -0.2404 
      8 C8          0.0918  -14.7098  -51.7656 C.3       23 UNK        -0.0205 
      9 C9          0.0259  -16.1872  -51.4086 C.ar      23 UNK        -0.0193 
     10 C10        -0.9781  -16.9922  -51.9580 C.ar      23 UNK        -0.1150 
     11 C11        -1.0465  -18.3594  -51.6571 C.ar      23 UNK        -0.0193 
     12 C12        -0.0976  -18.9048  -50.7893 C.ar      23 UNK        -0.1150 
     13 C13         0.9000  -18.1106  -50.2194 C.ar      23 UNK        -0.0193 
     14 C14         0.9658  -16.7524  -50.5417 C.ar      23 UNK        -0.1150 
     15 C15         1.8824  -18.7264  -49.2333 C.3       23 UNK        -0.0205 
     16 S16         1.6019  -18.1915  -47.5105 S.3       23 UNK        -0.2404 
     17 C17        -0.2120  -18.2990  -47.3134 C.3       23 UNK        -0.0398 
     18 CA         -0.7368  -19.7345  -47.0978 C.3       11 UNK         0.1400 
     19 N          -0.2512  -20.3348  -45.8494 N.am      11 UNK        -0.5000 
     20 C          -0.4810  -21.6006  -45.4694 C.2       10 UNK         0.5000 
     21 O          -1.1194  -22.4035  -46.1542 O.2       10 UNK        -0.5000 
     22 CA          0.0341  -22.0118  -44.0749 C.3       10 UNK         0.1400 
     23 CB          0.1182  -23.5403  -43.8826 C.3       10 UNK        -0.1800 
     24 N           1.2914  -21.3574  -43.7055 N.am      10 UNK        -0.5000 
     25 C           2.4981  -21.5161  -44.2699 C.2       9 UNK         0.5000 
     26 O           2.7202  -22.2857  -45.2054 O.2       9 UNK        -0.5000 
     27 CA          3.6632  -20.6752  -43.7027 C.3       9 UNK         0.1400 
     28 CB          4.1882  -19.6975  -44.7657 C.3       9 UNK        -0.1800 
     29 N           3.3158  -19.9214  -42.4939 N.am      9 UNK        -0.5000 
     30 C           3.1899  -20.4460  -41.2669 C.2       8 UNK         0.5000 
     31 O           3.4178  -21.6270  -41.0036 O.2       8 UNK        -0.5000 
     32 CA          2.6866  -19.5039  -40.1544 C.3       8 UNK         0.1400 
     33 CB          3.8608  -18.7616  -39.4991 C.3       8 UNK        -0.1800 
     34 N           1.6956  -18.5313  -40.6241 N.am      8 UNK        -0.5000 
     35 C           0.4776  -18.8441  -41.0922 C.2       7 UNK         0.5000 
     36 O           0.0397  -19.9933  -41.1451 O.2       7 UNK        -0.5000 
     37 CA         -0.3638  -17.6886  -41.6680 C.3       7 UNK         0.1400 
     38 CB         -1.0305  -16.8732  -40.5510 C.3       7 UNK        -0.1800 
     39 N           0.4299  -16.8064  -42.5242 N.am      7 UNK        -0.5000 
     40 C           1.0201  -17.1982  -43.6613 C.2       6 UNK         0.5000 
     41 O           0.8743  -18.3190  -44.1479 O.2       6 UNK        -0.5000 
     42 CA          1.9675  -16.1959  -44.3404 C.3       6 UNK         0.1400 
     43 CB          1.2149  -15.2576  -45.2886 C.3       6 UNK        -0.1800 
     44 N           2.7232  -15.4049  -43.3719 N.am      6 UNK        -0.5000 
     45 C           3.7378  -15.8821  -42.6401 C.2       5 UNK         0.5000 
     46 O           4.1739  -17.0278  -42.7417 O.2       5 UNK        -0.5000 
     47 CA          4.3283  -14.9316  -41.5843 C.3       5 UNK         0.1400 
     48 CB          5.4048  -14.0282  -42.2031 C.3       5 UNK        -0.1800 
     49 N           3.2976  -14.1092  -40.9469 N.am      5 UNK        -0.5000 
     50 C           2.3733  -14.5987  -40.1074 C.2       4 UNK         0.5000 
     51 O           2.3201  -15.7820  -39.7726 O.2       4 UNK        -0.5000 
     52 CA          1.3047  -13.6210  -39.5829 C.3       4 UNK         0.1400 
     53 CB          1.7787  -12.9557  -38.2826 C.3       4 UNK        -0.1800 
     54 N           0.9221  -12.5835  -40.5428 N.am      4 UNK        -0.5000 
     55 C           0.3815  -12.8030  -41.7491 C.2       3 UNK         0.5000 
     56 O           0.1709  -13.9288  -42.2032 O.2       3 UNK        -0.5000 
     57 CA          0.0368  -11.5700  -42.6115 C.3       3 UNK         0.1400 
     58 CB          0.2478  -10.2155  -41.8979 C.3       3 UNK        -0.1800 
     59 N           0.7471  -11.5811  -43.8936 N.am      3 UNK        -0.5000 
     60 C           2.0747  -11.6498  -44.0839 C.2       2 UNK         0.5000 
     61 O           2.8885  -11.7414  -43.1632 O.2       2 UNK        -0.5000 
     62 CA          2.5706  -11.6390  -45.5441 C.3       2 UNK         0.1400 
     63 CB          3.8943  -12.4068  -45.7187 C.3       2 UNK        -0.1800 
     64 N           1.5627  -12.2106  -46.4381 N.am      2 UNK        -0.5000 
     65 C           1.0156  -11.6086  -47.5003 C.2       1 UNK         0.5000 
     66 O           1.3467  -10.4914  -47.8992 O.2       1 UNK        -0.5000 
     67 C          -2.2764  -19.7266  -47.1822 C.2       11 UNK         0.5000 
     68 O          -2.8186  -19.8921  -48.2721 O.2       11 UNK        -0.5000 
     69 N          -2.9525  -19.5647  -46.0350 N.am      12 UNK        -0.5000 
     70 CA         -4.4114  -19.6031  -45.9222 C.3       12 UNK         0.1400 
     71 CB         -4.8220  -19.1726  -44.5063 C.3       12 UNK        -0.1800 
     72 C          -4.9985  -20.9849  -46.2662 C.2       12 UNK         0.5000 
     73 O          -6.0274  -21.0578  -46.9378 O.2       12 UNK        -0.5000 
     74 N          -4.3121  -22.0546  -45.8385 N.am      13 UNK        -0.5000 
     75 CA         -4.6645  -23.4370  -46.1627 C.3       13 UNK         0.1400 
     76 CB         -3.8947  -24.4013  -45.2482 C.3       13 UNK        -0.1800 
     77 C          -4.4029  -23.7532  -47.6441 C.2       13 UNK         0.5000 
     78 O          -5.2452  -24.3796  -48.2877 O.2       13 UNK        -0.5000 
     79 N          -3.2684  -23.2668  -48.1701 N.am      14 UNK        -0.5000 
     80 CA         -2.9132  -23.3551  -49.5873 C.3       14 UNK         0.1400 
     81 CB         -1.4851  -22.8334  -49.8032 C.3       14 UNK        -0.1800 
     82 C          -3.9117  -22.6127  -50.4935 C.2       14 UNK         0.5000 
     83 O          -4.2682  -23.1364  -51.5444 O.2       14 UNK        -0.5000 
     84 N          -4.3755  -21.4339  -50.0568 N.am      15 UNK        -0.5000 
     85 CA         -5.3960  -20.6374  -50.7364 C.3       15 UNK         0.1400 
     86 CB         -5.4691  -19.2381  -50.1061 C.3       15 UNK        -0.1800 
     87 C          -6.7769  -21.3120  -50.7281 C.2       15 UNK         0.5000 
     88 O          -7.4484  -21.3190  -51.7596 O.2       15 UNK        -0.5000 
     89 N          -7.1641  -21.8938  -49.5834 N.am      16 UNK        -0.5000 
     90 CA         -8.4138  -22.6395  -49.4141 C.3       16 UNK         0.1400 
     91 CB         -8.6154  -22.9762  -47.9290 C.3       16 UNK        -0.1800 
     92 C          -8.4709  -23.9146  -50.2766 C.2       16 UNK         0.5000 
     93 O          -9.5161  -24.2131  -50.8553 O.2       16 UNK        -0.5000 
     94 N          -7.3390  -24.6240  -50.3700 N.am      17 UNK        -0.5000 
     95 CA         -7.1645  -25.8080  -51.2127 C.3       17 UNK         0.1400 
     96 CB         -5.9829  -26.6227  -50.6626 C.3       17 UNK        -0.1800 
     97 C          -6.9266  -25.4751  -52.7002 C.2       17 UNK         0.5000 
     98 O          -6.9767  -26.3826  -53.5318 O.2       17 UNK        -0.5000 
     99 N          -6.6087  -24.2080  -53.0030 N.am      18 UNK        -0.5000 
    100 CA        -6.1093  -23.6373  -54.2623 C.3       18 UNK         0.1400 
    101 CB        -7.0876  -23.8552  -55.4311 C.3       18 UNK        -0.1800 
    102 C         -4.6838  -24.1084  -54.6145 C.2       18 UNK         0.5000 
    103 O         -3.8256  -23.2726  -54.9192 O.2       18 UNK        -0.5000 
    104 N         -4.4694  -25.4322  -54.5514 N.am      19 UNK        -0.5000 
    105 CA        -3.2073  -26.1853  -54.5206 C.3       19 UNK         0.1400 
    106 CB        -2.4747  -25.8779  -53.1978 C.3       19 UNK        -0.1800 
    107 C         -2.2664  -26.0058  -55.7311 C.2       19 UNK         0.5000 
    108 O         -1.1376  -26.4967  -55.6897 O.2       19 UNK        -0.5000 
    109 N         -2.7170  -25.2667  -56.7555 N.am      20 UNK        -0.5000 
    110 CA        -1.9195  -24.6524  -57.8264 C.3       20 UNK         0.1400 
    111 CB        -1.2715  -25.7203  -58.7320 C.3       20 UNK        -0.1800 
    112 C         -0.8981  -23.6142  -57.2977 C.2       20 UNK         0.5000 
    113 O          0.0271  -23.2414  -58.0207 O.2       20 UNK        -0.5000 
    114 N         -1.0895  -23.1611  -56.0504 N.am      21 UNK        -0.5000 
    115 CA        -0.2699  -22.1655  -55.3688 C.3       21 UNK         0.1400 
    116 CB        -0.2704  -22.4599  -53.8591 C.3       21 UNK        -0.1800 
    117 C         -0.8060  -20.7572  -55.6549 C.2       21 UNK         0.5000 
    118 O         -0.0284  -19.8665  -55.9990 O.2       21 UNK        -0.5000 
    119 N         -2.1295  -20.5959  -55.5386 N.am      22 UNK        -0.5000 
    120 CA        -2.8509  -19.3576  -55.8631 C.3       22 UNK         0.1400 
    121 C         -4.3380  -19.5765  -56.2664 C.2       22 UNK         0.5000 
    122 N         -4.8721  -20.7938  -56.2550 N.am      22 UNK        -0.7600 
    123 O         -5.0192  -18.6231  -56.6336 O.2       22 UNK        -0.5000 
    124 C124       -2.6453  -18.2373  -54.8038 C.3       23 UNK        -0.0398 
    125 S125       -3.4566  -18.5467  -53.1962 S.3       23 UNK        -0.2404 
    126 C126       -2.1117  -19.3021  -52.2194 C.3       23 UNK        -0.0205 
    127 H127       -1.8704  -14.3530  -44.5876 H         1 UNK         0.0600 
    128 H128       -3.3076  -14.0434  -45.5670 H         1 UNK         0.0600 
    129 H129       -2.0780  -15.1750  -46.1372 H         1 UNK         0.0600 
    130 H130       -0.8378  -14.2920  -47.7624 H         1 UNK         0.3000 
    131 H131       -0.8377  -11.6245  -48.5435 H         1 UNK         0.0600 
    132 H132        1.0320  -12.3251  -50.1071 H         1 UNK         0.0800 
    133 H133        1.1390  -13.8516  -49.2599 H         1 UNK         0.0800 
    134 H134        1.1291  -14.3738  -51.8043 H         1 UNK         0.0800 
    135 H135       -0.3083  -14.5570  -52.7691 H         1 UNK         0.0800 
    136 H136       -1.7012  -16.5389  -52.6192 H         1 UNK         0.1150 
    137 H137       -0.1475  -19.9557  -50.5427 H         1 UNK         0.1150 
    138 H138        1.7381  -16.1357  -50.1040 H         1 UNK         0.1150 
    139 H139        1.8324  -19.8156  -49.2715 H         1 UNK         0.0800 
    140 H140        2.8995  -18.4604  -49.5237 H         1 UNK         0.0800 
    141 H141       -0.6923  -17.8242  -48.1699 H         1 UNK         0.0800 
    142 H142       -0.4953  -17.6873  -46.4581 H         1 UNK         0.0800 
    143 H143       -0.3743  -20.3562  -47.9180 H         1 UNK         0.0600 
    144 H144        0.2762  -19.7199  -45.2323 H         1 UNK         0.3000 
    145 H145       -0.7076  -21.6399  -43.3669 H         1 UNK         0.0600 
    146 H146        0.4999  -23.7928  -42.8933 H         1 UNK         0.0600 
    147 H147       -0.8659  -23.9999  -43.9751 H         1 UNK         0.0600 
    148 H148        0.7664  -24.0088  -44.6235 H         1 UNK         0.0600 
    149 H149        1.2154  -20.6800  -42.9573 H         1 UNK         0.3000 
    150 H150        4.4700  -21.3680  -43.4553 H         1 UNK         0.0600 
    151 H151        4.5239  -20.2287  -45.6571 H         1 UNK         0.0600 
    152 H152        5.0358  -19.1227  -44.3926 H         1 UNK         0.0600 
    153 H153        3.4158  -18.9959  -45.0777 H         1 UNK         0.0600 
    154 H154        3.1751  -18.9250  -42.6115 H         1 UNK         0.3000 
    155 H155        2.2087  -20.1219  -39.3914 H         1 UNK         0.0600 
    156 H156        4.3649  -18.1019  -40.2056 H         1 UNK         0.0600 
    157 H157        4.6031  -19.4634  -39.1169 H         1 UNK         0.0600 
    158 H158        3.5234  -18.1551  -38.6584 H         1 UNK         0.0600 
    159 H159        1.9603  -17.5524  -40.5664 H         1 UNK         0.3000 
    160 H160       -1.1533  -18.1244  -42.2840 H         1 UNK         0.0600 
    161 H161       -1.6233  -16.0542  -40.9591 H         1 UNK         0.0600 
    162 H162       -0.2968  -16.4481  -39.8673 H         1 UNK         0.0600 
    163 H163       -1.7006  -17.4996  -39.9612 H         1 UNK         0.0600 
    164 H164        0.5308  -15.8400  -42.2289 H         1 UNK         0.3000 
    165 H165        2.6722  -16.7740  -44.9404 H         1 UNK         0.0600 
    166 H166        1.9105  -14.8029  -45.9910 H         1 UNK         0.0600 
    167 H167        0.4763  -15.7897  -45.8831 H         1 UNK         0.0600 
    168 H168        0.6914  -14.4721  -44.7463 H         1 UNK         0.0600 
    169 H169        2.3848  -14.4747  -43.1713 H         1 UNK         0.3000 
    170 H170        4.8030  -15.5433  -40.8141 H         1 UNK         0.0600 
    171 H171        6.2039  -14.6236  -42.6466 H         1 UNK         0.0600 
    172 H172        4.9976  -13.3918  -42.9884 H         1 UNK         0.0600 
    173 H173        5.8589  -13.3834  -41.4507 H         1 UNK         0.0600 
    174 H174        3.2526  -13.1351  -41.2175 H         1 UNK         0.3000 
    175 H175        0.4096  -14.2036  -39.3580 H         1 UNK         0.0600 
    176 H176        0.9951  -12.3348  -37.8479 H         1 UNK         0.0600 
    177 H177        2.0488  -13.7046  -37.5367 H         1 UNK         0.0600 
    178 H178        2.6541  -12.3264  -38.4482 H         1 UNK         0.0600 
    179 H179        1.0853  -11.6281  -40.2607 H         1 UNK         0.3000 
    180 H180       -1.0246  -11.6570  -42.8481 H         1 UNK         0.0600 
    181 H181        1.2930  -10.0432  -41.6382 H         1 UNK         0.0600 
    182 H182       -0.3418  -10.1537  -40.9823 H         1 UNK         0.0600 
    183 H183       -0.0704   -9.3902  -42.5350 H         1 UNK         0.0600 
    184 H184        0.1457  -11.5430  -44.7097 H         1 UNK         0.3000 
    185 H185        2.7505  -10.5923  -45.7964 H         1 UNK         0.0600 
    186 H186        3.8093  -13.4435  -45.3925 H         1 UNK         0.0600 
    187 H187        4.2135  -12.4085  -46.7609 H         1 UNK         0.0600 
    188 H188        4.6941  -11.9453  -45.1384 H         1 UNK         0.0600 
    189 H189        1.2101  -13.1216  -46.1835 H         1 UNK         0.3000 
    190 H190       -2.4305  -19.4316  -45.1817 H         1 UNK         0.3000 
    191 H191       -4.8233  -18.8821  -46.6316 H         1 UNK         0.0600 
    192 H192       -4.4147  -19.8404  -43.7461 H         1 UNK         0.0600 
    193 H193       -5.9074  -19.1749  -44.3979 H         1 UNK         0.0600 
    194 H194       -4.4769  -18.1622  -44.2857 H         1 UNK         0.0600 
    195 H195       -3.4467  -21.9116  -45.3400 H         1 UNK         0.3000 
    196 H196       -5.7317  -23.5713  -45.9732 H         1 UNK         0.0600 
    197 H197       -4.1974  -25.4329  -45.4320 H         1 UNK         0.0600 
    198 H198       -4.0871  -24.1885  -44.1966 H         1 UNK         0.0600 
    199 H199       -2.8189  -24.3443  -45.4122 H         1 UNK         0.0600 
    200 H200       -2.6120  -22.7935  -47.5587 H         1 UNK         0.3000 
    201 H201       -2.9340  -24.4104  -49.8676 H         1 UNK         0.0600 
    202 H202       -0.7686  -23.3716  -49.1824 H         1 UNK         0.0600 
    203 H203       -1.4047  -21.7739  -49.5658 H         1 UNK         0.0600 
    204 H204       -1.1782  -22.9601  -50.8421 H         1 UNK         0.0600 
    205 H205       -3.9654  -21.0264  -49.2205 H         1 UNK         0.3000 
    206 H206       -5.0941  -20.5288  -51.7794 H         1 UNK         0.0600 
    207 H207       -4.5106  -18.7234  -50.1731 H         1 UNK         0.0600 
    208 H208       -6.2055  -18.6180  -50.6185 H         1 UNK         0.0600 
    209 H209       -5.7500  -19.2831  -49.0538 H         1 UNK         0.0600 
    210 H210       -6.5754  -21.8001  -48.7620 H         1 UNK         0.3000 
    211 H211       -9.2338  -21.9905  -49.7283 H         1 UNK         0.0600 
    212 H212       -7.8077  -23.5987  -47.5433 H         1 UNK         0.0600 
    213 H213       -9.5500  -23.5167  -47.7739 H         1 UNK         0.0600 
    214 H214       -8.6587  -22.0715  -47.3224 H         1 UNK         0.0600 
    215 H215       -6.5395  -24.3453  -49.8081 H         1 UNK         0.3000 
    216 H216       -8.0641  -26.4239  -51.1517 H         1 UNK         0.0600 
    217 H217       -5.8267  -27.5336  -51.2418 H         1 UNK         0.0600 
    218 H218       -6.1572  -26.9208  -49.6286 H         1 UNK         0.0600 
    219 H219       -5.0551  -26.0496  -50.6924 H         1 UNK         0.0600 
    220 H220       -6.5445  -23.5715  -52.2195 H         1 UNK         0.3000 
    221 H221       -6.0456  -22.5627  -54.0837 H         1 UNK         0.0600 
    222 H222       -7.1879  -24.9077  -55.6964 H         1 UNK         0.0600 
    223 H223       -8.0797  -23.4751  -55.1873 H         1 UNK         0.0600 
    224 H224       -6.7482  -23.3289  -56.3238 H         1 UNK         0.0600 
    225 H225       -5.2926  -25.9875  -54.3325 H         1 UNK         0.3000 
    226 H226       -3.4852  -27.2400  -54.5108 H         1 UNK         0.0600 
    227 H227       -2.1516  -24.8376  -53.1491 H         1 UNK         0.0600 
    228 H228       -1.5895  -26.5031  -53.0762 H         1 UNK         0.0600 
    229 H229       -3.1195  -26.0635  -52.3389 H         1 UNK         0.0600 
    230 H230       -3.6604  -24.9153  -56.6684 H         1 UNK         0.3000 
    231 H231       -2.6256  -24.0895  -58.4384 H         1 UNK         0.0600 
    232 H232       -2.0073  -26.4496  -59.0708 H         1 UNK         0.0600 
    233 H233       -0.4734  -26.2593  -58.2215 H         1 UNK         0.0600 
    234 H234       -0.8356  -25.2639  -59.6213 H         1 UNK         0.0600 
    235 H235       -1.9162  -23.4768  -55.5558 H         1 UNK         0.3000 
    236 H236        0.7592  -22.2240  -55.7296 H         1 UNK         0.0600 
    237 H237        0.1616  -23.4390  -53.6515 H         1 UNK         0.0600 
    238 H238        0.3210  -21.7217  -53.3158 H         1 UNK         0.0600 
    239 H239       -1.2787  -22.4480  -53.4426 H         1 UNK         0.0600 
    240 H240       -2.6943  -21.3758  -55.2314 H         1 UNK         0.3000 
    241 H241       -2.4016  -18.9878  -56.7869 H         1 UNK         0.0600 
    242 H242       -5.8317  -20.8900  -56.5457 H         1 UNK         0.3800 
    243 H243       -4.3617  -21.6096  -55.9483 H         1 UNK         0.3800 
    244 H244       -1.5813  -18.0625  -54.6427 H         1 UNK         0.0800 
    245 H245       -3.0334  -17.2937  -55.1900 H         1 UNK         0.0800 
    246 H246       -1.6248  -20.0695  -52.8183 H         1 UNK         0.0800 
    247 H247       -2.5705  -19.8218  -51.3789 H         1 UNK         0.0800 
@<TRIPOS>BOND
     1    1    2 1    
     2    1  127 1    
     3    1  128 1    
     4    1  129 1    
     5    2    3 2    
     6    2    4 am   BACKBONE|DICT|INTERRES
     7    4    5 1    
     8    4  130 1    
     9    5    6 1    
    10    5   65 1    
    11    5  131 1    
    12    6    7 1    
    13    6  132 1    
    14    6  133 1    
    15    7    8 1    
    16    8    9 1    
    17    8  134 1    
    18    8  135 1    
    19    9   10 ar   
    20    9   14 ar   
    21   10   11 ar   
    22   10  136 1    
    23   11   12 ar   
    24   11  126 1    
    25   12   13 ar   
    26   12  137 1    
    27   13   14 ar   
    28   13   15 1    
    29   14  138 1    
    30   15   16 1    
    31   15  139 1    
    32   15  140 1    
    33   16   17 1    
    34   17   18 1    
    35   17  141 1    
    36   17  142 1    
    37   18   19 1    
    38   18   67 1    
    39   18  143 1    
    40   19   20 am   BACKBONE|DICT|INTERRES
    41   19  144 1    
    42   20   21 2    
    43   20   22 1    
    44   22   23 1    
    45   22   24 1    
    46   22  145 1    
    47   23  146 1    
    48   23  147 1    
    49   23  148 1    
    50   24   25 am   BACKBONE|DICT|INTERRES
    51   24  149 1    
    52   25   26 2    
    53   25   27 1    
    54   27   28 1    
    55   27   29 1    
    56   27  150 1    
    57   28  151 1    
    58   28  152 1    
    59   28  153 1    
    60   29   30 am   BACKBONE|DICT|INTERRES
    61   29  154 1    
    62   30   31 2    
    63   30   32 1    
    64   32   33 1    
    65   32   34 1    
    66   32  155 1    
    67   33  156 1    
    68   33  157 1    
    69   33  158 1    
    70   34   35 am   BACKBONE|DICT|INTERRES
    71   34  159 1    
    72   35   36 2    
    73   35   37 1    
    74   37   38 1    
    75   37   39 1    
    76   37  160 1    
    77   38  161 1    
    78   38  162 1    
    79   38  163 1    
    80   39   40 am   BACKBONE|DICT|INTERRES
    81   39  164 1    
    82   40   41 2    
    83   40   42 1    
    84   42   43 1    
    85   42   44 1    
    86   42  165 1    
    87   43  166 1    
    88   43  167 1    
    89   43  168 1    
    90   44   45 am   BACKBONE|DICT|INTERRES
    91   44  169 1    
    92   45   46 2    
    93   45   47 1    
    94   47   48 1    
    95   47   49 1    
    96   47  170 1    
    97   48  171 1    
    98   48  172 1    
    99   48  173 1    
   100   49   50 am   BACKBONE|DICT|INTERRES
   101   49  174 1    
   102   50   51 2    
   103   50   52 1    
   104   52   53 1    
   105   52   54 1    
   106   52  175 1    
   107   53  176 1    
   108   53  177 1    
   109   53  178 1    
   110   54   55 am   BACKBONE|DICT|INTERRES
   111   54  179 1    
   112   55   56 2    
   113   55   57 1    
   114   57   58 1    
   115   57   59 1    
   116   57  180 1    
   117   58  181 1    
   118   58  182 1    
   119   58  183 1    
   120   59   60 am   BACKBONE|DICT|INTERRES
   121   59  184 1    
   122   60   61 2    
   123   60   62 1    
   124   62   63 1    
   125   62   64 1    
   126   62  185 1    
   127   63  186 1    
   128   63  187 1    
   129   63  188 1    
   130   64   65 am   BACKBONE|DICT|INTERRES
   131   64  189 1    
   132   65   66 2    
   133   67   68 2    
   134   67   69 am   BACKBONE|DICT|INTERRES
   135   69   70 1    
   136   69  190 1    
   137   70   71 1    
   138   70   72 1    
   139   70  191 1    
   140   71  192 1    
   141   71  193 1    
   142   71  194 1    
   143   72   73 2    
   144   72   74 am   BACKBONE|DICT|INTERRES
   145   74   75 1    
   146   74  195 1    
   147   75   76 1    
   148   75   77 1    
   149   75  196 1    
   150   76  197 1    
   151   76  198 1    
   152   76  199 1    
   153   77   78 2    
   154   77   79 am   BACKBONE|DICT|INTERRES
   155   79   80 1    
   156   79  200 1    
   157   80   81 1    
   158   80   82 1    
   159   80  201 1    
   160   81  202 1    
   161   81  203 1    
   162   81  204 1    
   163   82   83 2    
   164   82   84 am   BACKBONE|DICT|INTERRES
   165   84   85 1    
   166   84  205 1    
   167   85   86 1    
   168   85   87 1    
   169   85  206 1    
   170   86  207 1    
   171   86  208 1    
   172   86  209 1    
   173   87   88 2    
   174   87   89 am   BACKBONE|DICT|INTERRES
   175   89   90 1    
   176   89  210 1    
   177   90   91 1    
   178   90   92 1    
   179   90  211 1    
   180   91  212 1    
   181   91  213 1    
   182   91  214 1    
   183   92   93 2    
   184   92   94 am   BACKBONE|DICT|INTERRES
   185   94   95 1    
   186   94  215 1    
   187   95   96 1    
   188   95   97 1    
   189   95  216 1    
   190   96  217 1    
   191   96  218 1    
   192   96  219 1    
   193   97   98 2    
   194   97   99 am   BACKBONE|DICT|INTERRES
   195   99  100 1    
   196   99  220 1    
   197  100  101 1    
   198  100  102 1    
   199  100  221 1    
   200  101  222 1    
   201  101  223 1    
   202  101  224 1    
   203  102  103 2    
   204  102  104 am   BACKBONE|DICT|INTERRES
   205  104  105 1    
   206  104  225 1    
   207  105  106 1    
   208  105  107 1    
   209  105  226 1    
   210  106  227 1    
   211  106  228 1    
   212  106  229 1    
   213  107  108 2    
   214  107  109 am   BACKBONE|DICT|INTERRES
   215  109  110 1    
   216  109  230 1    
   217  110  111 1    
   218  110  112 1    
   219  110  231 1    
   220  111  232 1    
   221  111  233 1    
   222  111  234 1    
   223  112  113 2    
   224  112  114 am   BACKBONE|DICT|INTERRES
   225  114  115 1    
   226  114  235 1    
   227  115  116 1    
   228  115  117 1    
   229  115  236 1    
   230  116  237 1    
   231  116  238 1    
   232  116  239 1    
   233  117  118 2    
   234  117  119 am   BACKBONE|DICT|INTERRES
   235  119  120 1    
   236  119  240 1    
   237  120  121 1    
   238  120  124 1    
   239  120  241 1    
   240  121  122 am   BACKBONE|DICT|INTERRES
   241  121  123 2    
   242  122  242 1    
   243  122  243 1    
   244  124  125 1    
   245  124  244 1    
   246  124  245 1    
   247  125  126 1    
   248  126  246 1    
   249  126  247 1    
@<TRIPOS>SUBSTRUCTURE
     1 UNK         1 GROUP             0       ****    0 ROOT    
