@<TRIPOS>MOLECULE
3R540
247   249    1
SMALL
USER_CHARGES


@<TRIPOS>ATOM
      1 CA          2.9193   -9.8188  -48.5954 C.3       0 UNK        -0.1800 
      2 C           3.0164  -11.3021  -48.2708 C.2       0 UNK         0.5000 
      3 O           4.0587  -11.7617  -47.8032 O.2       0 UNK        -0.5000 
      4 N           1.9291  -12.0526  -48.4990 N.am      1 UNK        -0.5000 
      5 CA          1.8463  -13.5088  -48.3028 C.3       1 UNK         0.1400 
      6 C6          0.5620  -14.1293  -48.9135 C.3       23 UNK        -0.0398 
      7 S7          0.1764  -13.5828  -50.6161 S.3       23 UNK        -0.2404 
      8 C8          1.6546  -14.0660  -51.5654 C.3       23 UNK        -0.0205 
      9 C9          1.6783  -15.5513  -51.8923 C.ar      23 UNK        -0.0193 
     10 C10         1.1401  -16.0063  -53.0990 C.ar      23 UNK        -0.1150 
     11 C11         1.2023  -17.3595  -53.4426 C.ar      23 UNK        -0.0193 
     12 C12         1.8034  -18.2632  -52.5604 C.ar      23 UNK        -0.1150 
     13 C13         2.3260  -17.8247  -51.3397 C.ar      23 UNK        -0.0193 
     14 C14         2.2684  -16.4656  -51.0150 C.ar      23 UNK        -0.1150 
     15 C15         2.9621  -18.8167  -50.3752 C.3       23 UNK        -0.0205 
     16 S16         1.7338  -19.9197  -49.6070 S.3       23 UNK        -0.2404 
     17 C17         0.6035  -18.7216  -48.8125 C.3       23 UNK        -0.0398 
     18 CA         -0.0924  -19.1911  -47.5067 C.3       11 UNK         0.1400 
     19 N          -1.0104  -18.1403  -47.0561 N.am      11 UNK        -0.5000 
     20 C          -1.6560  -18.0932  -45.8863 C.2       10 UNK         0.5000 
     21 O          -1.4345  -18.8505  -44.9365 O.2       10 UNK        -0.5000 
     22 CA         -2.7646  -17.0303  -45.7814 C.3       10 UNK         0.1400 
     23 CB         -4.1502  -17.6756  -45.9396 C.3       10 UNK        -0.1800 
     24 N          -2.7046  -16.2953  -44.5185 N.am      10 UNK        -0.5000 
     25 C          -1.7208  -15.4370  -44.2099 C.2       9 UNK         0.5000 
     26 O          -0.7942  -15.1721  -44.9735 O.2       9 UNK        -0.5000 
     27 CA         -1.7704  -14.7586  -42.8325 C.3       9 UNK         0.1400 
     28 CB         -2.5220  -13.4176  -42.9136 C.3       9 UNK        -0.1800 
     29 N          -2.3730  -15.6322  -41.8255 N.am      9 UNK        -0.5000 
     30 C          -2.2094  -15.5144  -40.5015 C.2       8 UNK         0.5000 
     31 O          -1.5537  -14.6179  -39.9695 O.2       8 UNK        -0.5000 
     32 CA         -2.8921  -16.5787  -39.6160 C.3       8 UNK         0.1400 
     33 CB         -4.2138  -16.0358  -39.0508 C.3       8 UNK        -0.1800 
     34 N          -3.1580  -17.8411  -40.3142 N.am      8 UNK        -0.5000 
     35 C          -2.2133  -18.7075  -40.7049 C.2       7 UNK         0.5000 
     36 O          -1.0143  -18.5400  -40.4711 O.2       7 UNK        -0.5000 
     37 CA         -2.6830  -19.9481  -41.4963 C.3       7 UNK         0.1400 
     38 CB         -3.9665  -19.6945  -42.3104 C.3       7 UNK        -0.1800 
     39 N          -1.6326  -20.3681  -42.4187 N.am      7 UNK        -0.5000 
     40 C          -0.6832  -21.2753  -42.1498 C.2       6 UNK         0.5000 
     41 O          -0.6622  -21.9719  -41.1342 O.2       6 UNK        -0.5000 
     42 CA          0.4499  -21.4057  -43.1802 C.3       6 UNK         0.1400 
     43 CB          0.0407  -22.3623  -44.3065 C.3       6 UNK        -0.1800 
     44 N           0.7618  -20.0968  -43.7515 N.am      6 UNK        -0.5000 
     45 C           1.8468  -19.3727  -43.4674 C.2       5 UNK         0.5000 
     46 O           2.8063  -19.7836  -42.8099 O.2       5 UNK        -0.5000 
     47 CA          1.8210  -17.9139  -43.9566 C.3       5 UNK         0.1400 
     48 CB          1.3628  -16.9947  -42.8157 C.3       5 UNK        -0.1800 
     49 N           3.1197  -17.4608  -44.4485 N.am      5 UNK        -0.5000 
     50 C           3.7276  -17.9335  -45.5459 C.2       4 UNK         0.5000 
     51 O           3.2518  -18.8198  -46.2575 O.2       4 UNK        -0.5000 
     52 CA          5.0744  -17.2841  -45.9179 C.3       4 UNK         0.1400 
     53 CB          5.4305  -17.4502  -47.4066 C.3       4 UNK        -0.1800 
     54 N           5.0539  -15.8591  -45.5952 N.am      4 UNK        -0.5000 
     55 C           6.0236  -15.1818  -44.9674 C.2       3 UNK         0.5000 
     56 O           7.0722  -15.6987  -44.5797 O.2       3 UNK        -0.5000 
     57 CA          5.7991  -13.6721  -44.7288 C.3       3 UNK         0.1400 
     58 CB          6.6683  -12.8434  -45.6870 C.3       3 UNK        -0.1800 
     59 N           4.4044  -13.2518  -44.8802 N.am      3 UNK        -0.5000 
     60 C           3.4113  -13.5737  -44.0383 C.2       2 UNK         0.5000 
     61 O           3.5834  -14.2042  -42.9952 O.2       2 UNK        -0.5000 
     62 CA          1.9810  -13.1667  -44.4479 C.3       2 UNK         0.1400 
     63 CB          1.5608  -11.8717  -43.7378 C.3       2 UNK        -0.1800 
     64 N           1.7915  -13.0033  -45.8911 N.am      2 UNK        -0.5000 
     65 C           2.0050  -13.9395  -46.8293 C.2       1 UNK         0.5000 
     66 O           2.3695  -15.0876  -46.5790 O.2       1 UNK        -0.5000 
     67 C          -0.8741  -20.5097  -47.7021 C.2       11 UNK         0.5000 
     68 O          -2.0752  -20.4638  -47.9707 O.2       11 UNK        -0.5000 
     69 N          -0.1940  -21.6629  -47.6320 N.am      12 UNK        -0.5000 
     70 CA         -0.7819  -22.9928  -47.8513 C.3       12 UNK         0.1400 
     71 CB          0.2988  -24.0715  -47.6813 C.3       12 UNK        -0.1800 
     72 C          -1.4709  -23.1639  -49.2200 C.2       12 UNK         0.5000 
     73 O          -2.4218  -23.9402  -49.3256 O.2       12 UNK        -0.5000 
     74 N          -0.9840  -22.4208  -50.2223 N.am      13 UNK        -0.5000 
     75 CA         -1.5250  -22.3507  -51.5774 C.3       13 UNK         0.1400 
     76 CB         -0.3762  -22.0143  -52.5384 C.3       13 UNK        -0.1800 
     77 C          -2.6890  -21.3474  -51.7326 C.2       13 UNK         0.5000 
     78 O          -3.2450  -21.2525  -52.8275 O.2       13 UNK        -0.5000 
     79 N          -3.0458  -20.6245  -50.6624 N.am      14 UNK        -0.5000 
     80 CA         -4.2262  -19.7614  -50.5790 C.3       14 UNK         0.1400 
     81 CB         -3.7918  -18.3494  -50.1479 C.3       14 UNK        -0.1800 
     82 C          -5.2506  -20.3159  -49.5710 C.2       14 UNK         0.5000 
     83 O          -6.4538  -20.1838  -49.7913 O.2       14 UNK        -0.5000 
     84 N          -4.7563  -20.9104  -48.4768 N.am      15 UNK        -0.5000 
     85 CA         -5.5176  -21.3623  -47.3114 C.3       15 UNK         0.1400 
     86 CB         -4.5285  -21.5725  -46.1497 C.3       15 UNK        -0.1800 
     87 C          -6.3627  -22.6352  -47.5220 C.2       15 UNK         0.5000 
     88 O          -7.0632  -23.0298  -46.5893 O.2       15 UNK        -0.5000 
     89 N          -6.2645  -23.2754  -48.6975 N.am      16 UNK        -0.5000 
     90 CA         -6.8725  -24.5663  -49.0533 C.3       16 UNK         0.1400 
     91 CB         -8.4071  -24.5585  -48.8830 C.3       16 UNK        -0.1800 
     92 C          -6.1869  -25.7639  -48.3622 C.2       16 UNK         0.5000 
     93 O          -6.7718  -26.8464  -48.2991 O.2       16 UNK        -0.5000 
     94 N          -4.9555  -25.5606  -47.8711 N.am      17 UNK        -0.5000 
     95 CA         -4.1336  -26.5930  -47.2426 C.3       17 UNK         0.1400 
     96 CB         -3.1392  -25.9403  -46.2695 C.3       17 UNK        -0.1800 
     97 C          -3.4086  -27.4311  -48.3073 C.2       17 UNK         0.5000 
     98 O          -3.5150  -28.6580  -48.2944 O.2       17 UNK        -0.5000 
     99 N          -2.7136  -26.7454  -49.2231 N.am      18 UNK        -0.5000 
    100 CA        -2.0684  -27.3304  -50.3971 C.3       18 UNK         0.1400 
    101 CB        -0.6445  -26.7664  -50.5305 C.3       18 UNK        -0.1800 
    102 C         -2.8844  -27.0320  -51.6649 C.2       18 UNK         0.5000 
    103 O         -2.9865  -27.8959  -52.5364 O.2       18 UNK        -0.5000 
    104 N         -3.4647  -25.8281  -51.7379 N.am      19 UNK        -0.5000 
    105 CA        -4.3064  -25.3376  -52.8241 C.3       19 UNK         0.1400 
    106 CB        -3.4517  -25.0267  -54.0714 C.3       19 UNK        -0.1800 
    107 C         -5.0368  -24.0800  -52.3330 C.2       19 UNK         0.5000 
    108 O         -4.7452  -23.5929  -51.2385 O.2       19 UNK        -0.5000 
    109 N         -5.9598  -23.5661  -53.1501 N.am      20 UNK        -0.5000 
    110 CA        -6.6313  -22.2791  -52.9371 C.3       20 UNK         0.1400 
    111 CB        -8.1395  -22.5284  -52.7694 C.3       20 UNK        -0.1800 
    112 C         -6.3428  -21.2898  -54.0862 C.2       20 UNK         0.5000 
    113 O         -6.9385  -20.2121  -54.1256 O.2       20 UNK        -0.5000 
    114 N         -5.4410  -21.6681  -55.0049 N.am      21 UNK        -0.5000 
    115 CA        -5.0907  -20.9475  -56.2306 C.3       21 UNK         0.1400 
    116 CB        -4.0881  -21.7939  -57.0303 C.3       21 UNK        -0.1800 
    117 C         -4.5338  -19.5296  -56.0057 C.2       21 UNK         0.5000 
    118 O         -4.7748  -18.6515  -56.8355 O.2       21 UNK        -0.5000 
    119 N         -3.8196  -19.3271  -54.8930 N.am      22 UNK        -0.5000 
    120 CA        -3.2871  -18.0214  -54.4732 C.3       22 UNK         0.1400 
    121 C         -4.3185  -17.1458  -53.6993 C.2       22 UNK         0.5000 
    122 N         -5.5454  -17.5963  -53.4580 N.am      22 UNK        -0.7600 
    123 O         -4.0039  -16.0222  -53.3183 O.2       22 UNK        -0.5000 
    124 C124       -1.9600  -18.1623  -53.6843 C.3       23 UNK        -0.0398 
    125 S125       -0.6723  -19.0768  -54.6014 S.3       23 UNK        -0.2404 
    126 C126        0.6434  -17.8309  -54.7799 C.3       23 UNK        -0.0205 
    127 H127        1.9399   -9.5545  -48.9948 H         1 UNK         0.0600 
    128 H128        3.6728   -9.5476  -49.3348 H         1 UNK         0.0600 
    129 H129        3.0925   -9.2264  -47.6971 H         1 UNK         0.0600 
    130 H130        1.1035  -11.6218  -48.8915 H         1 UNK         0.3000 
    131 H131        2.7042  -13.9428  -48.8181 H         1 UNK         0.0600 
    132 H132        0.6263  -15.2185  -48.9086 H         1 UNK         0.0800 
    133 H133       -0.3035  -13.8805  -48.2962 H         1 UNK         0.0800 
    134 H134        2.5664  -13.7728  -51.0462 H         1 UNK         0.0800 
    135 H135        1.6586  -13.4933  -52.4940 H         1 UNK         0.0800 
    136 H136        0.6853  -15.2996  -53.7792 H         1 UNK         0.1150 
    137 H137        1.8553  -19.3113  -52.8199 H         1 UNK         0.1150 
    138 H138        2.6883  -16.1188  -50.0816 H         1 UNK         0.1150 
    139 H139        3.6949  -19.4212  -50.9113 H         1 UNK         0.0800 
    140 H140        3.5105  -18.2979  -49.5891 H         1 UNK         0.0800 
    141 H141       -0.1400  -18.4349  -49.5591 H         1 UNK         0.0800 
    142 H142        1.1719  -17.8169  -48.5909 H         1 UNK         0.0800 
    143 H143        0.6611  -19.3515  -46.7345 H         1 UNK         0.0600 
    144 H144       -1.2814  -17.4765  -47.7651 H         1 UNK         0.3000 
    145 H145       -2.6388  -16.3099  -46.5930 H         1 UNK         0.0600 
    146 H146       -4.9393  -16.9237  -45.9332 H         1 UNK         0.0600 
    147 H147       -4.2251  -18.2142  -46.8851 H         1 UNK         0.0600 
    148 H148       -4.3613  -18.3897  -45.1450 H         1 UNK         0.0600 
    149 H149       -3.4762  -16.4283  -43.8853 H         1 UNK         0.3000 
    150 H150       -0.7371  -14.5590  -42.5408 H         1 UNK         0.0600 
    151 H151       -2.0925  -12.7754  -43.6839 H         1 UNK         0.0600 
    152 H152       -2.4656  -12.8712  -41.9722 H         1 UNK         0.0600 
    153 H153       -3.5757  -13.5625  -43.1543 H         1 UNK         0.0600 
    154 H154       -2.8803  -16.4336  -42.1652 H         1 UNK         0.3000 
    155 H155       -2.2227  -16.7856  -38.7782 H         1 UNK         0.0600 
    156 H156       -4.9332  -15.8223  -39.8424 H         1 UNK         0.0600 
    157 H157       -4.0512  -15.1100  -38.4972 H         1 UNK         0.0600 
    158 H158       -4.6711  -16.7472  -38.3629 H         1 UNK         0.0600 
    159 H159       -4.1249  -18.0476  -40.5200 H         1 UNK         0.3000 
    160 H160       -2.8870  -20.7422  -40.7754 H         1 UNK         0.0600 
    161 H161       -3.8668  -18.8174  -42.9486 H         1 UNK         0.0600 
    162 H162       -4.8291  -19.5418  -41.6610 H         1 UNK         0.0600 
    163 H163       -4.2000  -20.5453  -42.9511 H         1 UNK         0.0600 
    164 H164       -1.5653  -19.8321  -43.2774 H         1 UNK         0.3000 
    165 H165        1.3219  -21.8243  -42.6735 H         1 UNK         0.0600 
    166 H166        0.8479  -22.4624  -45.0304 H         1 UNK         0.0600 
    167 H167       -0.1770  -23.3577  -43.9176 H         1 UNK         0.0600 
    168 H168       -0.8482  -22.0110  -44.8319 H         1 UNK         0.0600 
    169 H169        0.0078  -19.6498  -44.2688 H         1 UNK         0.3000 
    170 H170        1.1111  -17.8193  -44.7796 H         1 UNK         0.0600 
    171 H171        0.3682  -17.2739  -42.4666 H         1 UNK         0.0600 
    172 H172        2.0383  -17.0429  -41.9607 H         1 UNK         0.0600 
    173 H173        1.3102  -15.9590  -43.1404 H         1 UNK         0.0600 
    174 H174        3.5810  -16.7401  -43.9124 H         1 UNK         0.3000 
    175 H175        5.8323  -17.7973  -45.3230 H         1 UNK         0.0600 
    176 H176        4.7044  -16.9453  -48.0443 H         1 UNK         0.0600 
    177 H177        6.4130  -17.0311  -47.6239 H         1 UNK         0.0600 
    178 H178        5.4565  -18.5016  -47.6954 H         1 UNK         0.0600 
    179 H179        4.2007  -15.3754  -45.8611 H         1 UNK         0.3000 
    180 H180        6.1124  -13.4527  -43.7061 H         1 UNK         0.0600 
    181 H181        6.3990  -13.0227  -46.7287 H         1 UNK         0.0600 
    182 H182        7.7244  -13.0915  -45.5731 H         1 UNK         0.0600 
    183 H183        6.5631  -11.7758  -45.4931 H         1 UNK         0.0600 
    184 H184        4.1787  -12.7419  -45.7259 H         1 UNK         0.3000 
    185 H185        1.3130  -13.9602  -44.1201 H         1 UNK         0.0600 
    186 H186        1.6641  -11.9680  -42.6561 H         1 UNK         0.0600 
    187 H187        2.1709  -11.0243  -44.0528 H         1 UNK         0.0600 
    188 H188        0.5171  -11.6313  -43.9417 H         1 UNK         0.0600 
    189 H189        1.5098  -12.0861  -46.2039 H         1 UNK         0.3000 
    190 H190        0.7997  -21.6339  -47.4514 H         1 UNK         0.3000 
    191 H191       -1.5433  -23.1393  -47.0841 H         1 UNK         0.0600 
    192 H192       -0.1126  -25.0682  -47.8475 H         1 UNK         0.0600 
    193 H193        0.7194  -24.0667  -46.6772 H         1 UNK         0.0600 
    194 H194        1.1175  -23.9344  -48.3888 H         1 UNK         0.0600 
    195 H195       -0.1938  -21.8223  -50.0272 H         1 UNK         0.3000 
    196 H196       -1.9123  -23.3339  -51.8466 H         1 UNK         0.0600 
    197 H197        0.0531  -21.0358  -52.3207 H         1 UNK         0.0600 
    198 H198        0.4224  -22.7533  -52.4733 H         1 UNK         0.0600 
    199 H199       -0.7207  -22.0022  -53.5732 H         1 UNK         0.0600 
    200 H200       -2.5359  -20.7580  -49.7966 H         1 UNK         0.3000 
    201 H201       -4.7213  -19.6889  -51.5491 H         1 UNK         0.0600 
    202 H202       -3.3092  -18.3549  -49.1709 H         1 UNK         0.0600 
    203 H203       -4.6514  -17.6809  -50.0858 H         1 UNK         0.0600 
    204 H204       -3.0935  -17.9071  -50.8557 H         1 UNK         0.0600 
    205 H205       -3.7473  -20.9045  -48.3503 H         1 UNK         0.3000 
    206 H206       -6.2067  -20.5630  -47.0317 H         1 UNK         0.0600 
    207 H207       -3.9514  -20.6710  -45.9461 H         1 UNK         0.0600 
    208 H208       -5.0491  -21.8335  -45.2275 H         1 UNK         0.0600 
    209 H209       -3.8229  -22.3752  -46.3664 H         1 UNK         0.0600 
    210 H210       -5.6422  -22.8944  -49.4022 H         1 UNK         0.3000 
    211 H211       -6.6966  -24.7086  -50.1165 H         1 UNK         0.0600 
    212 H212       -8.8537  -25.4304  -49.3622 H         1 UNK         0.0600 
    213 H213       -8.8511  -23.6751  -49.3420 H         1 UNK         0.0600 
    214 H214       -8.7053  -24.5817  -47.8350 H         1 UNK         0.0600 
    215 H215       -4.5309  -24.6546  -48.0088 H         1 UNK         0.3000 
    216 H216       -4.7766  -27.2598  -46.6638 H         1 UNK         0.0600 
    217 H217       -2.4528  -25.2682  -46.7810 H         1 UNK         0.0600 
    218 H218       -2.5387  -26.6964  -45.7623 H         1 UNK         0.0600 
    219 H219       -3.6584  -25.3671  -45.5011 H         1 UNK         0.0600 
    220 H220       -2.6865  -25.7306  -49.1592 H         1 UNK         0.3000 
    221 H221       -1.9935  -28.4148  -50.2924 H         1 UNK         0.0600 
    222 H222       -0.0531  -26.9765  -49.6393 H         1 UNK         0.0600 
    223 H223       -0.6461  -25.6873  -50.6857 H         1 UNK         0.0600 
    224 H224       -0.1266  -27.2168  -51.3780 H         1 UNK         0.0600 
    225 H225       -3.3696  -25.1685  -50.9719 H         1 UNK         0.3000 
    226 H226       -5.0530  -26.0971  -53.0641 H         1 UNK         0.0600 
    227 H227       -2.7316  -24.2306  -53.8811 H         1 UNK         0.0600 
    228 H228       -2.8962  -25.9022  -54.4066 H         1 UNK         0.0600 
    229 H229       -4.0735  -24.7109  -54.9093 H         1 UNK         0.0600 
    230 H230       -6.1823  -24.0459  -54.0114 H         1 UNK         0.3000 
    231 H231       -6.2662  -21.7998  -52.0281 H         1 UNK         0.0600 
    232 H232       -8.5770  -22.9681  -53.6663 H         1 UNK         0.0600 
    233 H233       -8.6713  -21.5988  -52.5628 H         1 UNK         0.0600 
    234 H234       -8.3340  -23.2024  -51.9349 H         1 UNK         0.0600 
    235 H235       -4.9327  -22.5213  -54.8346 H         1 UNK         0.3000 
    236 H236       -6.0032  -20.8481  -56.8218 H         1 UNK         0.0600 
    237 H237       -4.5063  -22.7678  -57.2852 H         1 UNK         0.0600 
    238 H238       -3.8191  -21.3019  -57.9660 H         1 UNK         0.0600 
    239 H239       -3.1668  -21.9589  -56.4695 H         1 UNK         0.0600 
    240 H240       -3.6643  -20.1012  -54.2507 H         1 UNK         0.3000 
    241 H241       -3.0500  -17.4505  -55.3728 H         1 UNK         0.0600 
    242 H242       -6.1964  -17.0036  -52.9689 H         1 UNK         0.3800 
    243 H243       -5.8521  -18.5033  -53.7908 H         1 UNK         0.3800 
    244 H244       -2.1278  -18.6887  -52.7472 H         1 UNK         0.0800 
    245 H245       -1.5773  -17.1783  -53.4106 H         1 UNK         0.0800 
    246 H246        0.2566  -16.9921  -55.3607 H         1 UNK         0.0800 
    247 H247        1.4556  -18.2611  -55.3670 H         1 UNK         0.0800 
@<TRIPOS>BOND
     1    1    2 1    
     2    1  127 1    
     3    1  128 1    
     4    1  129 1    
     5    2    3 2    
     6    2    4 am   BACKBONE|DICT|INTERRES
     7    4    5 1    
     8    4  130 1    
     9    5    6 1    
    10    5   65 1    
    11    5  131 1    
    12    6    7 1    
    13    6  132 1    
    14    6  133 1    
    15    7    8 1    
    16    8    9 1    
    17    8  134 1    
    18    8  135 1    
    19    9   10 ar   
    20    9   14 ar   
    21   10   11 ar   
    22   10  136 1    
    23   11   12 ar   
    24   11  126 1    
    25   12   13 ar   
    26   12  137 1    
    27   13   14 ar   
    28   13   15 1    
    29   14  138 1    
    30   15   16 1    
    31   15  139 1    
    32   15  140 1    
    33   16   17 1    
    34   17   18 1    
    35   17  141 1    
    36   17  142 1    
    37   18   19 1    
    38   18   67 1    
    39   18  143 1    
    40   19   20 am   BACKBONE|DICT|INTERRES
    41   19  144 1    
    42   20   21 2    
    43   20   22 1    
    44   22   23 1    
    45   22   24 1    
    46   22  145 1    
    47   23  146 1    
    48   23  147 1    
    49   23  148 1    
    50   24   25 am   BACKBONE|DICT|INTERRES
    51   24  149 1    
    52   25   26 2    
    53   25   27 1    
    54   27   28 1    
    55   27   29 1    
    56   27  150 1    
    57   28  151 1    
    58   28  152 1    
    59   28  153 1    
    60   29   30 am   BACKBONE|DICT|INTERRES
    61   29  154 1    
    62   30   31 2    
    63   30   32 1    
    64   32   33 1    
    65   32   34 1    
    66   32  155 1    
    67   33  156 1    
    68   33  157 1    
    69   33  158 1    
    70   34   35 am   BACKBONE|DICT|INTERRES
    71   34  159 1    
    72   35   36 2    
    73   35   37 1    
    74   37   38 1    
    75   37   39 1    
    76   37  160 1    
    77   38  161 1    
    78   38  162 1    
    79   38  163 1    
    80   39   40 am   BACKBONE|DICT|INTERRES
    81   39  164 1    
    82   40   41 2    
    83   40   42 1    
    84   42   43 1    
    85   42   44 1    
    86   42  165 1    
    87   43  166 1    
    88   43  167 1    
    89   43  168 1    
    90   44   45 am   BACKBONE|DICT|INTERRES
    91   44  169 1    
    92   45   46 2    
    93   45   47 1    
    94   47   48 1    
    95   47   49 1    
    96   47  170 1    
    97   48  171 1    
    98   48  172 1    
    99   48  173 1    
   100   49   50 am   BACKBONE|DICT|INTERRES
   101   49  174 1    
   102   50   51 2    
   103   50   52 1    
   104   52   53 1    
   105   52   54 1    
   106   52  175 1    
   107   53  176 1    
   108   53  177 1    
   109   53  178 1    
   110   54   55 am   BACKBONE|DICT|INTERRES
   111   54  179 1    
   112   55   56 2    
   113   55   57 1    
   114   57   58 1    
   115   57   59 1    
   116   57  180 1    
   117   58  181 1    
   118   58  182 1    
   119   58  183 1    
   120   59   60 am   BACKBONE|DICT|INTERRES
   121   59  184 1    
   122   60   61 2    
   123   60   62 1    
   124   62   63 1    
   125   62   64 1    
   126   62  185 1    
   127   63  186 1    
   128   63  187 1    
   129   63  188 1    
   130   64   65 am   BACKBONE|DICT|INTERRES
   131   64  189 1    
   132   65   66 2    
   133   67   68 2    
   134   67   69 am   BACKBONE|DICT|INTERRES
   135   69   70 1    
   136   69  190 1    
   137   70   71 1    
   138   70   72 1    
   139   70  191 1    
   140   71  192 1    
   141   71  193 1    
   142   71  194 1    
   143   72   73 2    
   144   72   74 am   BACKBONE|DICT|INTERRES
   145   74   75 1    
   146   74  195 1    
   147   75   76 1    
   148   75   77 1    
   149   75  196 1    
   150   76  197 1    
   151   76  198 1    
   152   76  199 1    
   153   77   78 2    
   154   77   79 am   BACKBONE|DICT|INTERRES
   155   79   80 1    
   156   79  200 1    
   157   80   81 1    
   158   80   82 1    
   159   80  201 1    
   160   81  202 1    
   161   81  203 1    
   162   81  204 1    
   163   82   83 2    
   164   82   84 am   BACKBONE|DICT|INTERRES
   165   84   85 1    
   166   84  205 1    
   167   85   86 1    
   168   85   87 1    
   169   85  206 1    
   170   86  207 1    
   171   86  208 1    
   172   86  209 1    
   173   87   88 2    
   174   87   89 am   BACKBONE|DICT|INTERRES
   175   89   90 1    
   176   89  210 1    
   177   90   91 1    
   178   90   92 1    
   179   90  211 1    
   180   91  212 1    
   181   91  213 1    
   182   91  214 1    
   183   92   93 2    
   184   92   94 am   BACKBONE|DICT|INTERRES
   185   94   95 1    
   186   94  215 1    
   187   95   96 1    
   188   95   97 1    
   189   95  216 1    
   190   96  217 1    
   191   96  218 1    
   192   96  219 1    
   193   97   98 2    
   194   97   99 am   BACKBONE|DICT|INTERRES
   195   99  100 1    
   196   99  220 1    
   197  100  101 1    
   198  100  102 1    
   199  100  221 1    
   200  101  222 1    
   201  101  223 1    
   202  101  224 1    
   203  102  103 2    
   204  102  104 am   BACKBONE|DICT|INTERRES
   205  104  105 1    
   206  104  225 1    
   207  105  106 1    
   208  105  107 1    
   209  105  226 1    
   210  106  227 1    
   211  106  228 1    
   212  106  229 1    
   213  107  108 2    
   214  107  109 am   BACKBONE|DICT|INTERRES
   215  109  110 1    
   216  109  230 1    
   217  110  111 1    
   218  110  112 1    
   219  110  231 1    
   220  111  232 1    
   221  111  233 1    
   222  111  234 1    
   223  112  113 2    
   224  112  114 am   BACKBONE|DICT|INTERRES
   225  114  115 1    
   226  114  235 1    
   227  115  116 1    
   228  115  117 1    
   229  115  236 1    
   230  116  237 1    
   231  116  238 1    
   232  116  239 1    
   233  117  118 2    
   234  117  119 am   BACKBONE|DICT|INTERRES
   235  119  120 1    
   236  119  240 1    
   237  120  121 1    
   238  120  124 1    
   239  120  241 1    
   240  121  122 am   BACKBONE|DICT|INTERRES
   241  121  123 2    
   242  122  242 1    
   243  122  243 1    
   244  124  125 1    
   245  124  244 1    
   246  124  245 1    
   247  125  126 1    
   248  126  246 1    
   249  126  247 1    
@<TRIPOS>SUBSTRUCTURE
     1 UNK         1 GROUP             0       ****    0 ROOT    
