@<TRIPOS>MOLECULE
3R540
247   249    1
SMALL
USER_CHARGES


@<TRIPOS>ATOM
      1 CA         -2.1583  -12.6415  -49.3155 C.3       0 UNK        -0.1800 
      2 C          -1.0070  -12.8578  -48.3442 C.2       0 UNK         0.5000 
      3 O          -0.7733  -12.0189  -47.4735 O.2       0 UNK        -0.5000 
      4 N          -0.2944  -13.9851  -48.4813 N.am      1 UNK        -0.5000 
      5 CA          0.8717  -14.3550  -47.6652 C.3       1 UNK         0.1400 
      6 C6          1.6020  -15.6058  -48.2116 C.3       23 UNK        -0.0398 
      7 S7          2.3104  -15.3085  -49.8636 S.3       23 UNK        -0.2404 
      8 C8          3.4315  -16.7414  -50.0329 C.3       23 UNK        -0.0205 
      9 C9          2.7249  -18.0885  -50.1795 C.ar      23 UNK        -0.0193 
     10 C10         1.5122  -18.2044  -50.8710 C.ar      23 UNK        -0.1150 
     11 C11         0.8948  -19.4465  -51.0260 C.ar      23 UNK        -0.0193 
     12 C12         1.5036  -20.5824  -50.4893 C.ar      23 UNK        -0.1150 
     13 C13         2.7249  -20.4963  -49.8168 C.ar      23 UNK        -0.0193 
     14 C14         3.3291  -19.2425  -49.6645 C.ar      23 UNK        -0.1150 
     15 C15         3.3947  -21.7845  -49.3392 C.3       23 UNK        -0.0205 
     16 S16         4.1943  -21.7068  -47.6996 S.3       23 UNK        -0.2404 
     17 C17         2.8815  -21.0918  -46.5961 C.3       23 UNK        -0.0398 
     18 CA          1.7392  -22.1044  -46.3023 C.3       11 UNK         0.1400 
     19 N           1.2947  -22.0369  -44.9041 N.am      11 UNK        -0.5000 
     20 C           0.3544  -22.8132  -44.3433 C.2       10 UNK         0.5000 
     21 O          -0.1941  -23.7528  -44.9171 O.2       10 UNK        -0.5000 
     22 CA         -0.0968  -22.4373  -42.9197 C.3       10 UNK         0.1400 
     23 CB          0.8411  -23.0450  -41.8667 C.3       10 UNK        -0.1800 
     24 N          -0.1893  -20.9890  -42.7276 N.am      10 UNK        -0.5000 
     25 C          -1.0379  -20.1885  -43.3887 C.2       9 UNK         0.5000 
     26 O          -1.8893  -20.5995  -44.1747 O.2       9 UNK        -0.5000 
     27 CA         -0.8663  -18.6721  -43.1966 C.3       9 UNK         0.1400 
     28 CB         -1.5753  -18.1863  -41.9256 C.3       9 UNK        -0.1800 
     29 N           0.5419  -18.2725  -43.1729 N.am      9 UNK        -0.5000 
     30 C           1.3681  -18.3808  -44.2240 C.2       8 UNK         0.5000 
     31 O           1.0001  -18.7432  -45.3413 O.2       8 UNK        -0.5000 
     32 CA          2.8598  -18.0961  -43.9786 C.3       8 UNK         0.1400 
     33 CB          3.1945  -16.6267  -44.2280 C.3       8 UNK        -0.1800 
     34 N           3.2708  -18.4591  -42.6255 N.am      8 UNK        -0.5000 
     35 C           3.4900  -19.7188  -42.2291 C.2       7 UNK         0.5000 
     36 O           3.3847  -20.6948  -42.9726 O.2       7 UNK        -0.5000 
     37 CA          3.8414  -19.9188  -40.7438 C.3       7 UNK         0.1400 
     38 CB          5.3258  -19.6168  -40.4896 C.3       7 UNK        -0.1800 
     39 N           3.0181  -19.0947  -39.8563 N.am      7 UNK        -0.5000 
     40 C           1.6935  -19.2368  -39.7132 C.2       6 UNK         0.5000 
     41 O           1.0340  -20.0913  -40.3025 O.2       6 UNK        -0.5000 
     42 CA          0.9736  -18.2478  -38.7799 C.3       6 UNK         0.1400 
     43 CB          0.9160  -18.8094  -37.3516 C.3       6 UNK        -0.1800 
     44 N           1.5550  -16.9041  -38.7435 N.am      6 UNK        -0.5000 
     45 C           1.7002  -16.0761  -39.7880 C.2       5 UNK         0.5000 
     46 O           1.4406  -16.3945  -40.9519 O.2       5 UNK        -0.5000 
     47 CA          2.1824  -14.6528  -39.4305 C.3       5 UNK         0.1400 
     48 CB          3.4676  -14.6684  -38.5726 C.3       5 UNK        -0.1800 
     49 N           2.3376  -13.7594  -40.5828 N.am      5 UNK        -0.5000 
     50 C           3.2391  -13.8304  -41.5710 C.2       4 UNK         0.5000 
     51 O           4.1012  -14.7075  -41.6528 O.2       4 UNK        -0.5000 
     52 CA          3.1708  -12.7055  -42.6275 C.3       4 UNK         0.1400 
     53 CB          4.1080  -12.9455  -43.8252 C.3       4 UNK        -0.1800 
     54 N           1.8086  -12.4889  -43.1228 N.am      4 UNK        -0.5000 
     55 C           0.8930  -11.6885  -42.5561 C.2       3 UNK         0.5000 
     56 O           1.0982  -11.0674  -41.5128 O.2       3 UNK        -0.5000 
     57 CA         -0.4859  -11.5698  -43.2414 C.3       3 UNK         0.1400 
     58 CB         -0.5262  -10.3346  -44.1533 C.3       3 UNK        -0.1800 
     59 N          -0.8445  -12.7483  -44.0285 N.am      3 UNK        -0.5000 
     60 C          -1.1015  -13.9589  -43.5147 C.2       2 UNK         0.5000 
     61 O          -1.2115  -14.1715  -42.3071 O.2       2 UNK        -0.5000 
     62 CA         -1.2314  -15.1387  -44.5021 C.3       2 UNK         0.1400 
     63 CB         -2.6901  -15.6110  -44.6004 C.3       2 UNK        -0.1800 
     64 N          -0.7226  -14.8939  -45.8565 N.am      2 UNK        -0.5000 
     65 C           0.5335  -14.5455  -46.1733 C.2       1 UNK         0.5000 
     66 O           1.4056  -14.3296  -45.3357 O.2       1 UNK        -0.5000 
     67 C           0.5541  -21.8975  -47.2685 C.2       11 UNK         0.5000 
     68 O           0.3038  -22.7439  -48.1284 O.2       11 UNK        -0.5000 
     69 N          -0.1753  -20.7894  -47.0706 N.am      12 UNK        -0.5000 
     70 CA         -1.3556  -20.4196  -47.8471 C.3       12 UNK         0.1400 
     71 CB         -1.8309  -19.0195  -47.4291 C.3       12 UNK        -0.1800 
     72 C          -2.4883  -21.4556  -47.7432 C.2       12 UNK         0.5000 
     73 O          -3.0626  -21.8184  -48.7669 O.2       12 UNK        -0.5000 
     74 N          -2.7559  -21.9454  -46.5246 N.am      13 UNK        -0.5000 
     75 CA         -3.7500  -22.9806  -46.2407 C.3       13 UNK         0.1400 
     76 CB         -3.9106  -23.1413  -44.7219 C.3       13 UNK        -0.1800 
     77 C          -3.4225  -24.3334  -46.8979 C.2       13 UNK         0.5000 
     78 O          -4.3224  -24.9650  -47.4521 O.2       13 UNK        -0.5000 
     79 N          -2.1453  -24.7418  -46.8634 N.am      14 UNK        -0.5000 
     80 CA         -1.6490  -25.9699  -47.4931 C.3       14 UNK         0.1400 
     81 CB         -0.1912  -26.2112  -47.0736 C.3       14 UNK        -0.1800 
     82 C          -1.7759  -25.9590  -49.0287 C.2       14 UNK         0.5000 
     83 O          -2.0226  -27.0068  -49.6266 O.2       14 UNK        -0.5000 
     84 N          -1.6425  -24.7711  -49.6301 N.am      15 UNK        -0.5000 
     85 CA         -1.8290  -24.5199  -51.0596 C.3       15 UNK         0.1400 
     86 CB         -0.8248  -23.4426  -51.4874 C.3       15 UNK        -0.1800 
     87 C          -3.2732  -24.1010  -51.4114 C.2       15 UNK         0.5000 
     88 O          -3.5157  -23.6699  -52.5396 O.2       15 UNK        -0.5000 
     89 N          -4.1987  -24.1968  -50.4457 N.am      16 UNK        -0.5000 
     90 CA         -5.6189  -23.8253  -50.4681 C.3       16 UNK         0.1400 
     91 CB         -6.3940  -24.6090  -51.5443 C.3       16 UNK        -0.1800 
     92 C          -5.8966  -22.3119  -50.5722 C.2       16 UNK         0.5000 
     93 O          -6.7966  -21.8283  -49.8842 O.2       16 UNK        -0.5000 
     94 N          -5.1398  -21.6011  -51.4216 N.am      17 UNK        -0.5000 
     95 CA         -5.2347  -20.1656  -51.7155 C.3       17 UNK         0.1400 
     96 CB         -4.7807  -19.3225  -50.5068 C.3       17 UNK        -0.1800 
     97 C          -6.6190  -19.7623  -52.2659 C.2       17 UNK         0.5000 
     98 O          -7.1734  -18.7272  -51.8927 O.2       17 UNK        -0.5000 
     99 N          -7.1484  -20.6112  -53.1542 N.am      18 UNK        -0.5000 
    100 CA        -8.4557  -20.4763  -53.7951 C.3       18 UNK         0.1400 
    101 CB        -8.9580  -21.8875  -54.1466 C.3       18 UNK        -0.1800 
    102 C         -8.4304  -19.5825  -55.0522 C.2       18 UNK         0.5000 
    103 O         -9.4638  -19.4451  -55.7066 O.2       18 UNK        -0.5000 
    104 N         -7.2509  -19.0563  -55.4174 N.am      19 UNK        -0.5000 
    105 CA        -6.9063  -18.2888  -56.6255 C.3       19 UNK         0.1400 
    106 CB        -7.8220  -17.0683  -56.8380 C.3       19 UNK        -0.1800 
    107 C         -6.8189  -19.1716  -57.8846 C.2       19 UNK         0.5000 
    108 O         -5.8885  -19.0115  -58.6745 O.2       19 UNK        -0.5000 
    109 N         -7.7258  -20.1510  -58.0011 N.am      20 UNK        -0.5000 
    110 CA        -7.6010  -21.3127  -58.8859 C.3       20 UNK         0.1400 
    111 CB        -8.9401  -22.0646  -58.9115 C.3       20 UNK        -0.1800 
    112 C         -6.4582  -22.2552  -58.4468 C.2       20 UNK         0.5000 
    113 O         -5.9061  -22.9758  -59.2786 O.2       20 UNK        -0.5000 
    114 N         -6.1115  -22.2001  -57.1550 N.am      21 UNK        -0.5000 
    115 CA        -4.9258  -22.7869  -56.5492 C.3       21 UNK         0.1400 
    116 CB        -5.3504  -23.8766  -55.5538 C.3       21 UNK        -0.1800 
    117 C         -4.1905  -21.6462  -55.8329 C.2       21 UNK         0.5000 
    118 O         -4.8280  -20.8891  -55.0953 O.2       21 UNK        -0.5000 
    119 N         -2.8815  -21.5292  -56.0795 N.am      22 UNK        -0.5000 
    120 CA        -1.9905  -20.4816  -55.5464 C.3       22 UNK         0.1400 
    121 C         -2.2585  -19.0393  -56.0844 C.2       22 UNK         0.5000 
    122 N         -3.0213  -18.8621  -57.1558 N.am      22 UNK        -0.7600 
    123 O         -1.7484  -18.0620  -55.5442 O.2       22 UNK        -0.5000 
    124 C124       -1.8604  -20.5406  -53.9956 C.3       23 UNK        -0.0398 
    125 S125       -0.1424  -20.3081  -53.4308 S.3       23 UNK        -0.2404 
    126 C126       -0.4144  -19.5690  -51.7920 C.3       23 UNK        -0.0205 
    127 H127       -2.2509  -13.4642  -50.0248 H         1 UNK         0.0600 
    128 H128       -3.0979  -12.5550  -48.7697 H         1 UNK         0.0600 
    129 H129       -2.0045  -11.7216  -49.8796 H         1 UNK         0.0600 
    130 H130       -0.5229  -14.6258  -49.2280 H         1 UNK         0.3000 
    131 H131        1.5700  -13.5161  -47.7106 H         1 UNK         0.0600 
    132 H132        2.4201  -15.8924  -47.5486 H         1 UNK         0.0800 
    133 H133        0.9284  -16.4636  -48.2588 H         1 UNK         0.0800 
    134 H134        4.1093  -16.7584  -49.1780 H         1 UNK         0.0800 
    135 H135        4.0540  -16.5880  -50.9151 H         1 UNK         0.0800 
    136 H136        1.0500  -17.3293  -51.3043 H         1 UNK         0.1150 
    137 H137        1.0371  -21.5462  -50.6226 H         1 UNK         0.1150 
    138 H138        4.2829  -19.1685  -49.1614 H         1 UNK         0.1150 
    139 H139        2.6804  -22.6086  -49.3315 H         1 UNK         0.0800 
    140 H140        4.1538  -22.0590  -50.0724 H         1 UNK         0.0800 
    141 H141        2.5139  -20.1361  -46.9729 H         1 UNK         0.0800 
    142 H142        3.3959  -20.8473  -45.6672 H         1 UNK         0.0800 
    143 H143        2.1169  -23.1177  -46.4540 H         1 UNK         0.0600 
    144 H144        1.7162  -21.3175  -44.3307 H         1 UNK         0.3000 
    145 H145       -1.0927  -22.8568  -42.7655 H         1 UNK         0.0600 
    146 H146        0.4797  -22.8469  -40.8575 H         1 UNK         0.0600 
    147 H147        0.9078  -24.1275  -41.9819 H         1 UNK         0.0600 
    148 H148        1.8514  -22.6434  -41.9436 H         1 UNK         0.0600 
    149 H149        0.4314  -20.5821  -42.0330 H         1 UNK         0.3000 
    150 H150       -1.3360  -18.1853  -44.0524 H         1 UNK         0.0600 
    151 H151       -2.6513  -18.3482  -41.9987 H         1 UNK         0.0600 
    152 H152       -1.4155  -17.1200  -41.7625 H         1 UNK         0.0600 
    153 H153       -1.2268  -18.7195  -41.0426 H         1 UNK         0.0600 
    154 H154        0.9079  -17.9081  -42.3001 H         1 UNK         0.3000 
    155 H155        3.4387  -18.6885  -44.6891 H         1 UNK         0.0600 
    156 H156        2.5761  -15.9698  -43.6157 H         1 UNK         0.0600 
    157 H157        3.0296  -16.3688  -45.2730 H         1 UNK         0.0600 
    158 H158        4.2393  -16.4116  -44.0035 H         1 UNK         0.0600 
    159 H159        3.3232  -17.7089  -41.9493 H         1 UNK         0.3000 
    160 H160        3.6590  -20.9672  -40.4982 H         1 UNK         0.0600 
    161 H161        5.6012  -19.8350  -39.4577 H         1 UNK         0.0600 
    162 H162        5.5653  -18.5711  -40.6874 H         1 UNK         0.0600 
    163 H163        5.9631  -20.2269  -41.1310 H         1 UNK         0.0600 
    164 H164        3.4839  -18.3619  -39.3418 H         1 UNK         0.3000 
    165 H165       -0.0507  -18.1442  -39.1401 H         1 UNK         0.0600 
    166 H166        0.3156  -18.1739  -36.7005 H         1 UNK         0.0600 
    167 H167        0.4636  -19.8021  -37.3397 H         1 UNK         0.0600 
    168 H168        1.9108  -18.8970  -36.9129 H         1 UNK         0.0600 
    169 H169        1.7961  -16.5584  -37.8261 H         1 UNK         0.3000 
    170 H170        1.3890  -14.2080  -38.8283 H         1 UNK         0.0600 
    171 H171        3.2942  -15.1292  -37.5999 H         1 UNK         0.0600 
    172 H172        4.2731  -15.2226  -39.0555 H         1 UNK         0.0600 
    173 H173        3.8265  -13.6567  -38.3829 H         1 UNK         0.0600 
    174 H174        1.6690  -13.0010  -40.6358 H         1 UNK         0.3000 
    175 H175        3.5157  -11.7954  -42.1326 H         1 UNK         0.0600 
    176 H176        3.8494  -13.8547  -44.3663 H         1 UNK         0.0600 
    177 H177        4.0656  -12.1153  -44.5303 H         1 UNK         0.0600 
    178 H178        5.1445  -13.0408  -43.4998 H         1 UNK         0.0600 
    179 H179        1.5499  -13.0334  -43.9418 H         1 UNK         0.3000 
    180 H180       -1.2352  -11.4421  -42.4575 H         1 UNK         0.0600 
    181 H181        0.1888  -10.4176  -44.9732 H         1 UNK         0.0600 
    182 H182       -0.2855   -9.4281  -43.5963 H         1 UNK         0.0600 
    183 H183       -1.5169  -10.1963  -44.5867 H         1 UNK         0.0600 
    184 H184       -0.7763  -12.6587  -45.0336 H         1 UNK         0.3000 
    185 H185       -0.6317  -15.9454  -44.0830 H         1 UNK         0.0600 
    186 H186       -3.0887  -15.8610  -43.6162 H         1 UNK         0.0600 
    187 H187       -3.3317  -14.8399  -45.0286 H         1 UNK         0.0600 
    188 H188       -2.7777  -16.5034  -45.2203 H         1 UNK         0.0600 
    189 H189       -1.3827  -15.0108  -46.6111 H         1 UNK         0.3000 
    190 H190        0.1169  -20.1345  -46.3505 H         1 UNK         0.3000 
    191 H191       -1.0516  -20.3727  -48.8928 H         1 UNK         0.0600 
    192 H192       -2.1255  -18.9895  -46.3801 H         1 UNK         0.0600 
    193 H193       -2.6915  -18.7062  -48.0211 H         1 UNK         0.0600 
    194 H194       -1.0458  -18.2775  -47.5763 H         1 UNK         0.0600 
    195 H195       -2.2673  -21.5535  -45.7226 H         1 UNK         0.3000 
    196 H196       -4.7042  -22.6394  -46.6477 H         1 UNK         0.0600 
    197 H197       -4.6662  -23.8914  -44.4855 H         1 UNK         0.0600 
    198 H198       -4.2240  -22.2062  -44.2574 H         1 UNK         0.0600 
    199 H199       -2.9784  -23.4533  -44.2507 H         1 UNK         0.0600 
    200 H200       -1.4622  -24.1878  -46.3539 H         1 UNK         0.3000 
    201 H201       -2.2508  -26.8012  -47.1203 H         1 UNK         0.0600 
    202 H202        0.4559  -25.3866  -47.3747 H         1 UNK         0.0600 
    203 H203       -0.1065  -26.3251  -45.9929 H         1 UNK         0.0600 
    204 H204        0.2023  -27.1215  -47.5276 H         1 UNK         0.0600 
    205 H205       -1.4153  -23.9657  -49.0580 H         1 UNK         0.3000 
    206 H206       -1.6096  -25.4278  -51.6245 H         1 UNK         0.0600 
    207 H207       -1.0444  -22.4933  -51.0001 H         1 UNK         0.0600 
    208 H208        0.1949  -23.7284  -51.2290 H         1 UNK         0.0600 
    209 H209       -0.8515  -23.2809  -52.5652 H         1 UNK         0.0600 
    210 H210       -3.8753  -24.5095  -49.5387 H         1 UNK         0.3000 
    211 H211       -6.0098  -24.1395  -49.4993 H         1 UNK         0.0600 
    212 H212       -6.0654  -24.3562  -52.5514 H         1 UNK         0.0600 
    213 H213       -7.4616  -24.3930  -51.4886 H         1 UNK         0.0600 
    214 H214       -6.2721  -25.6840  -51.4121 H         1 UNK         0.0600 
    215 H215       -4.4483  -22.1247  -51.9515 H         1 UNK         0.3000 
    216 H216       -4.5328  -19.9738  -52.5251 H         1 UNK         0.0600 
    217 H217       -5.4334  -19.4628  -49.6449 H         1 UNK         0.0600 
    218 H218       -4.7772  -18.2590  -50.7477 H         1 UNK         0.0600 
    219 H219       -3.7672  -19.5872  -50.2068 H         1 UNK         0.0600 
    220 H220       -6.5879  -21.4043  -53.4322 H         1 UNK         0.3000 
    221 H221       -9.1569  -20.0278  -53.0885 H         1 UNK         0.0600 
    222 H222       -8.3148  -22.3748  -54.8803 H         1 UNK         0.0600 
    223 H223       -8.9977  -22.5232  -53.2617 H         1 UNK         0.0600 
    224 H224       -9.9652  -21.8551  -54.5640 H         1 UNK         0.0600 
    225 H225       -6.4527  -19.3172  -54.8508 H         1 UNK         0.3000 
    226 H226       -5.8996  -17.9090  -56.4438 H         1 UNK         0.0600 
    227 H227       -7.8774  -16.4553  -55.9385 H         1 UNK         0.0600 
    228 H228       -7.4389  -16.4362  -57.6398 H         1 UNK         0.0600 
    229 H229       -8.8366  -17.3559  -57.1136 H         1 UNK         0.0600 
    230 H230       -8.4864  -20.1612  -57.3300 H         1 UNK         0.3000 
    231 H231       -7.3784  -20.9596  -59.8949 H         1 UNK         0.0600 
    232 H232       -9.7455  -21.4232  -59.2699 H         1 UNK         0.0600 
    233 H233       -9.2164  -22.4287  -57.9210 H         1 UNK         0.0600 
    234 H234       -8.8911  -22.9271  -59.5775 H         1 UNK         0.0600 
    235 H235       -6.5861  -21.5278  -56.5705 H         1 UNK         0.3000 
    236 H236       -4.2746  -23.2241  -57.3090 H         1 UNK         0.0600 
    237 H237       -4.4807  -24.3281  -55.0752 H         1 UNK         0.0600 
    238 H238       -5.9884  -23.4755  -54.7662 H         1 UNK         0.0600 
    239 H239       -5.8992  -24.6744  -56.0543 H         1 UNK         0.0600 
    240 H240       -2.4441  -22.1867  -56.7093 H         1 UNK         0.3000 
    241 H241       -1.0202  -20.7412  -55.9710 H         1 UNK         0.0600 
    242 H242       -3.4527  -19.6416  -57.6254 H         1 UNK         0.3800 
    243 H243       -3.1726  -17.9288  -57.5035 H         1 UNK         0.3800 
    244 H244       -2.1889  -21.5088  -53.6170 H         1 UNK         0.0800 
    245 H245       -2.5076  -19.8026  -53.5221 H         1 UNK         0.0800 
    246 H246       -0.8832  -18.5911  -51.9130 H         1 UNK         0.0800 
    247 H247       -1.1185  -20.1799  -51.2275 H         1 UNK         0.0800 
@<TRIPOS>BOND
     1    1    2 1    
     2    1  127 1    
     3    1  128 1    
     4    1  129 1    
     5    2    3 2    
     6    2    4 am   BACKBONE|DICT|INTERRES
     7    4    5 1    
     8    4  130 1    
     9    5    6 1    
    10    5   65 1    
    11    5  131 1    
    12    6    7 1    
    13    6  132 1    
    14    6  133 1    
    15    7    8 1    
    16    8    9 1    
    17    8  134 1    
    18    8  135 1    
    19    9   10 ar   
    20    9   14 ar   
    21   10   11 ar   
    22   10  136 1    
    23   11   12 ar   
    24   11  126 1    
    25   12   13 ar   
    26   12  137 1    
    27   13   14 ar   
    28   13   15 1    
    29   14  138 1    
    30   15   16 1    
    31   15  139 1    
    32   15  140 1    
    33   16   17 1    
    34   17   18 1    
    35   17  141 1    
    36   17  142 1    
    37   18   19 1    
    38   18   67 1    
    39   18  143 1    
    40   19   20 am   BACKBONE|DICT|INTERRES
    41   19  144 1    
    42   20   21 2    
    43   20   22 1    
    44   22   23 1    
    45   22   24 1    
    46   22  145 1    
    47   23  146 1    
    48   23  147 1    
    49   23  148 1    
    50   24   25 am   BACKBONE|DICT|INTERRES
    51   24  149 1    
    52   25   26 2    
    53   25   27 1    
    54   27   28 1    
    55   27   29 1    
    56   27  150 1    
    57   28  151 1    
    58   28  152 1    
    59   28  153 1    
    60   29   30 am   BACKBONE|DICT|INTERRES
    61   29  154 1    
    62   30   31 2    
    63   30   32 1    
    64   32   33 1    
    65   32   34 1    
    66   32  155 1    
    67   33  156 1    
    68   33  157 1    
    69   33  158 1    
    70   34   35 am   BACKBONE|DICT|INTERRES
    71   34  159 1    
    72   35   36 2    
    73   35   37 1    
    74   37   38 1    
    75   37   39 1    
    76   37  160 1    
    77   38  161 1    
    78   38  162 1    
    79   38  163 1    
    80   39   40 am   BACKBONE|DICT|INTERRES
    81   39  164 1    
    82   40   41 2    
    83   40   42 1    
    84   42   43 1    
    85   42   44 1    
    86   42  165 1    
    87   43  166 1    
    88   43  167 1    
    89   43  168 1    
    90   44   45 am   BACKBONE|DICT|INTERRES
    91   44  169 1    
    92   45   46 2    
    93   45   47 1    
    94   47   48 1    
    95   47   49 1    
    96   47  170 1    
    97   48  171 1    
    98   48  172 1    
    99   48  173 1    
   100   49   50 am   BACKBONE|DICT|INTERRES
   101   49  174 1    
   102   50   51 2    
   103   50   52 1    
   104   52   53 1    
   105   52   54 1    
   106   52  175 1    
   107   53  176 1    
   108   53  177 1    
   109   53  178 1    
   110   54   55 am   BACKBONE|DICT|INTERRES
   111   54  179 1    
   112   55   56 2    
   113   55   57 1    
   114   57   58 1    
   115   57   59 1    
   116   57  180 1    
   117   58  181 1    
   118   58  182 1    
   119   58  183 1    
   120   59   60 am   BACKBONE|DICT|INTERRES
   121   59  184 1    
   122   60   61 2    
   123   60   62 1    
   124   62   63 1    
   125   62   64 1    
   126   62  185 1    
   127   63  186 1    
   128   63  187 1    
   129   63  188 1    
   130   64   65 am   BACKBONE|DICT|INTERRES
   131   64  189 1    
   132   65   66 2    
   133   67   68 2    
   134   67   69 am   BACKBONE|DICT|INTERRES
   135   69   70 1    
   136   69  190 1    
   137   70   71 1    
   138   70   72 1    
   139   70  191 1    
   140   71  192 1    
   141   71  193 1    
   142   71  194 1    
   143   72   73 2    
   144   72   74 am   BACKBONE|DICT|INTERRES
   145   74   75 1    
   146   74  195 1    
   147   75   76 1    
   148   75   77 1    
   149   75  196 1    
   150   76  197 1    
   151   76  198 1    
   152   76  199 1    
   153   77   78 2    
   154   77   79 am   BACKBONE|DICT|INTERRES
   155   79   80 1    
   156   79  200 1    
   157   80   81 1    
   158   80   82 1    
   159   80  201 1    
   160   81  202 1    
   161   81  203 1    
   162   81  204 1    
   163   82   83 2    
   164   82   84 am   BACKBONE|DICT|INTERRES
   165   84   85 1    
   166   84  205 1    
   167   85   86 1    
   168   85   87 1    
   169   85  206 1    
   170   86  207 1    
   171   86  208 1    
   172   86  209 1    
   173   87   88 2    
   174   87   89 am   BACKBONE|DICT|INTERRES
   175   89   90 1    
   176   89  210 1    
   177   90   91 1    
   178   90   92 1    
   179   90  211 1    
   180   91  212 1    
   181   91  213 1    
   182   91  214 1    
   183   92   93 2    
   184   92   94 am   BACKBONE|DICT|INTERRES
   185   94   95 1    
   186   94  215 1    
   187   95   96 1    
   188   95   97 1    
   189   95  216 1    
   190   96  217 1    
   191   96  218 1    
   192   96  219 1    
   193   97   98 2    
   194   97   99 am   BACKBONE|DICT|INTERRES
   195   99  100 1    
   196   99  220 1    
   197  100  101 1    
   198  100  102 1    
   199  100  221 1    
   200  101  222 1    
   201  101  223 1    
   202  101  224 1    
   203  102  103 2    
   204  102  104 am   BACKBONE|DICT|INTERRES
   205  104  105 1    
   206  104  225 1    
   207  105  106 1    
   208  105  107 1    
   209  105  226 1    
   210  106  227 1    
   211  106  228 1    
   212  106  229 1    
   213  107  108 2    
   214  107  109 am   BACKBONE|DICT|INTERRES
   215  109  110 1    
   216  109  230 1    
   217  110  111 1    
   218  110  112 1    
   219  110  231 1    
   220  111  232 1    
   221  111  233 1    
   222  111  234 1    
   223  112  113 2    
   224  112  114 am   BACKBONE|DICT|INTERRES
   225  114  115 1    
   226  114  235 1    
   227  115  116 1    
   228  115  117 1    
   229  115  236 1    
   230  116  237 1    
   231  116  238 1    
   232  116  239 1    
   233  117  118 2    
   234  117  119 am   BACKBONE|DICT|INTERRES
   235  119  120 1    
   236  119  240 1    
   237  120  121 1    
   238  120  124 1    
   239  120  241 1    
   240  121  122 am   BACKBONE|DICT|INTERRES
   241  121  123 2    
   242  122  242 1    
   243  122  243 1    
   244  124  125 1    
   245  124  244 1    
   246  124  245 1    
   247  125  126 1    
   248  126  246 1    
   249  126  247 1    
@<TRIPOS>SUBSTRUCTURE
     1 UNK         1 GROUP             0       ****    0 ROOT    
