@<TRIPOS>MOLECULE
3R540
247   249    1
SMALL
USER_CHARGES


@<TRIPOS>ATOM
      1 CA          4.3320  -10.5335  -48.9728 C.3       0 UNK        -0.1800 
      2 C           3.3771  -11.6457  -48.5627 C.2       0 UNK         0.5000 
      3 O           3.5074  -12.1904  -47.4668 O.2       0 UNK        -0.5000 
      4 N           2.4255  -11.9882  -49.4416 N.am      1 UNK        -0.5000 
      5 CA          1.3858  -12.9964  -49.1931 C.3       1 UNK         0.1400 
      6 C6          0.7606  -13.5072  -50.5204 C.3       23 UNK        -0.0398 
      7 S7          0.4129  -15.2977  -50.4841 S.3       23 UNK        -0.2404 
      8 C8          1.6732  -15.9068  -51.6475 C.3       23 UNK        -0.0205 
      9 C9          1.6994  -17.4255  -51.7047 C.ar      23 UNK        -0.0193 
     10 C10         0.9853  -18.1138  -52.6910 C.ar      23 UNK        -0.1150 
     11 C11         1.0238  -19.5106  -52.7513 C.ar      23 UNK        -0.0193 
     12 C12         1.7821  -20.2167  -51.8137 C.ar      23 UNK        -0.1150 
     13 C13         2.4853  -19.5410  -50.8130 C.ar      23 UNK        -0.0193 
     14 C14         2.4515  -18.1446  -50.7725 C.ar      23 UNK        -0.1150 
     15 C15         3.2575  -20.3242  -49.7612 C.3       23 UNK        -0.0205 
     16 S16         2.5990  -20.0587  -48.0826 S.3       23 UNK        -0.2404 
     17 C17         0.8629  -20.6006  -48.2512 C.3       23 UNK        -0.0398 
     18 CA          0.5993  -21.9556  -47.5599 C.3       11 UNK         0.1400 
     19 N           0.7012  -21.8682  -46.1005 N.am      11 UNK        -0.5000 
     20 C           0.6650  -22.9135  -45.2636 C.2       10 UNK         0.5000 
     21 O           0.5850  -24.0838  -45.6354 O.2       10 UNK        -0.5000 
     22 CA          0.6597  -22.5970  -43.7569 C.3       10 UNK         0.1400 
     23 CB          2.0728  -22.2733  -43.2492 C.3       10 UNK        -0.1800 
     24 N          -0.2546  -21.5035  -43.4237 N.am      10 UNK        -0.5000 
     25 C          -1.5865  -21.5725  -43.5623 C.2       9 UNK         0.5000 
     26 O          -2.1812  -22.5833  -43.9378 O.2       9 UNK        -0.5000 
     27 CA         -2.3874  -20.2899  -43.2715 C.3       9 UNK         0.1400 
     28 CB         -2.6154  -20.1237  -41.7619 C.3       9 UNK        -0.1800 
     29 N          -1.7536  -19.0860  -43.8115 N.am      9 UNK        -0.5000 
     30 C          -1.5431  -18.8583  -45.1160 C.2       8 UNK         0.5000 
     31 O          -1.9056  -19.6237  -46.0067 O.2       8 UNK        -0.5000 
     32 CA         -0.7396  -17.5999  -45.4916 C.3       8 UNK         0.1400 
     33 CB         -1.6354  -16.3537  -45.4904 C.3       8 UNK        -0.1800 
     34 N           0.4143  -17.3840  -44.6185 N.am      8 UNK        -0.5000 
     35 C           1.4229  -18.2536  -44.4633 C.2       7 UNK         0.5000 
     36 O           1.4949  -19.3296  -45.0522 O.2       7 UNK        -0.5000 
     37 CA          2.4966  -17.8919  -43.4268 C.3       7 UNK         0.1400 
     38 CB          3.4864  -16.8613  -43.9904 C.3       7 UNK        -0.1800 
     39 N           1.8924  -17.3892  -42.1945 N.am      7 UNK        -0.5000 
     40 C           1.2144  -18.1530  -41.3259 C.2       6 UNK         0.5000 
     41 O           1.0762  -19.3709  -41.4473 O.2       6 UNK        -0.5000 
     42 CA          0.5477  -17.4245  -40.1443 C.3       6 UNK         0.1400 
     43 CB          1.5555  -17.1968  -39.0078 C.3       6 UNK        -0.1800 
     44 N          -0.0446  -16.1427  -40.5332 N.am      6 UNK        -0.5000 
     45 C          -1.0994  -16.0188  -41.3506 C.2       5 UNK         0.5000 
     46 O          -1.6964  -16.9746  -41.8433 O.2       5 UNK        -0.5000 
     47 CA         -1.5404  -14.5889  -41.7114 C.3       5 UNK         0.1400 
     48 CB         -2.5099  -14.0403  -40.6544 C.3       5 UNK        -0.1800 
     49 N          -0.4370  -13.6422  -41.8900 N.am      5 UNK        -0.5000 
     50 C           0.5754  -13.7691  -42.7573 C.2       4 UNK         0.5000 
     51 O           0.7451  -14.7652  -43.4617 O.2       4 UNK        -0.5000 
     52 CA          1.5325  -12.5642  -42.8642 C.3       4 UNK         0.1400 
     53 CB          2.7752  -12.8710  -43.7182 C.3       4 UNK        -0.1800 
     54 N           0.8521  -11.4023  -43.4339 N.am      4 UNK        -0.5000 
     55 C          -0.0254  -10.6091  -42.8094 C.2       3 UNK         0.5000 
     56 O          -0.3240  -10.7408  -41.6210 O.2       3 UNK        -0.5000 
     57 CA         -0.7171   -9.5090  -43.6412 C.3       3 UNK         0.1400 
     58 CB          0.0751   -8.1889  -43.5813 C.3       3 UNK        -0.1800 
     59 N          -1.0413   -9.8818  -45.0288 N.am      3 UNK        -0.5000 
     60 C          -0.2115  -10.1233  -46.0531 C.2       2 UNK         0.5000 
     61 O           1.0180  -10.0862  -45.9663 O.2       2 UNK        -0.5000 
     62 CA         -0.8799  -10.4405  -47.4032 C.3       2 UNK         0.1400 
     63 CB         -1.3212   -9.1440  -48.1008 C.3       2 UNK        -0.1800 
     64 N           0.0308  -11.1592  -48.2916 N.am      2 UNK        -0.5000 
     65 C           0.3029  -12.4699  -48.2228 C.2       1 UNK         0.5000 
     66 O          -0.2535  -13.2419  -47.4414 O.2       1 UNK        -0.5000 
     67 C          -0.7555  -22.5386  -48.0087 C.2       11 UNK         0.5000 
     68 O          -0.7734  -23.4151  -48.8714 O.2       11 UNK        -0.5000 
     69 N          -1.8557  -22.0812  -47.3937 N.am      12 UNK        -0.5000 
     70 CA         -3.2110  -22.5839  -47.6197 C.3       12 UNK         0.1400 
     71 CB         -4.2111  -21.7518  -46.8036 C.3       12 UNK        -0.1800 
     72 C          -3.3559  -24.0775  -47.2858 C.2       12 UNK         0.5000 
     73 O          -3.9455  -24.8176  -48.0740 O.2       12 UNK        -0.5000 
     74 N          -2.7822  -24.4944  -46.1482 N.am      13 UNK        -0.5000 
     75 CA         -2.7282  -25.8870  -45.7069 C.3       13 UNK         0.1400 
     76 CB         -2.2177  -25.9507  -44.2596 C.3       13 UNK        -0.1800 
     77 C          -1.8719  -26.7706  -46.6321 C.2       13 UNK         0.5000 
     78 O          -2.2915  -27.8808  -46.9581 O.2       13 UNK        -0.5000 
     79 N          -0.7110  -26.2561  -47.0637 N.am      14 UNK        -0.5000 
     80 CA          0.2008  -26.9211  -47.9980 C.3       14 UNK         0.1400 
     81 CB          1.5243  -26.1441  -48.0698 C.3       14 UNK        -0.1800 
     82 C          -0.4050  -27.0985  -49.4027 C.2       14 UNK         0.5000 
     83 O          -0.2462  -28.1619  -50.0033 O.2       14 UNK        -0.5000 
     84 N          -1.1119  -26.0682  -49.8868 N.am      15 UNK        -0.5000 
     85 CA         -1.8606  -26.0870  -51.1451 C.3       15 UNK         0.1400 
     86 CB         -2.2192  -24.6424  -51.5322 C.3       15 UNK        -0.1800 
     87 C          -3.1394  -26.9450  -51.0789 C.2       15 UNK         0.5000 
     88 O          -3.6416  -27.3526  -52.1267 O.2       15 UNK        -0.5000 
     89 N          -3.6499  -27.1708  -49.8583 N.am      16 UNK        -0.5000 
     90 CA         -4.9402  -27.7802  -49.5208 C.3       16 UNK         0.1400 
     91 CB         -4.9678  -29.2727  -49.9097 C.3       16 UNK        -0.1800 
     92 C          -6.1167  -26.9684  -50.1035 C.2       16 UNK         0.5000 
     93 O          -7.0644  -27.5389  -50.6477 O.2       16 UNK        -0.5000 
     94 N          -6.0052  -25.6389  -50.0051 N.am      17 UNK        -0.5000 
     95 CA         -6.8991  -24.6627  -50.6142 C.3       17 UNK         0.1400 
     96 CB         -6.6148  -24.5636  -52.1316 C.3       17 UNK        -0.1800 
     97 C          -6.7536  -23.3345  -49.8532 C.2       17 UNK         0.5000 
     98 O          -7.0673  -23.2858  -48.6632 O.2       17 UNK        -0.5000 
     99 N          -6.2789  -22.2899  -50.5374 N.am      18 UNK        -0.5000 
    100 CA        -6.0045  -20.9618  -50.0055 C.3       18 UNK         0.1400 
    101 CB        -7.1948  -20.0350  -50.3036 C.3       18 UNK        -0.1800 
    102 C         -4.7259  -20.4379  -50.6702 C.2       18 UNK         0.5000 
    103 O         -4.4068  -20.8578  -51.7835 O.2       18 UNK        -0.5000 
    104 N         -4.0414  -19.5010  -50.0023 N.am      19 UNK        -0.5000 
    105 CA        -2.8226  -18.8505  -50.5003 C.3       19 UNK         0.1400 
    106 CB        -2.0937  -18.1950  -49.3184 C.3       19 UNK        -0.1800 
    107 C         -3.0809  -17.8262  -51.6278 C.2       19 UNK         0.5000 
    108 O         -2.1297  -17.3280  -52.2285 O.2       19 UNK        -0.5000 
    109 N         -4.3573  -17.5220  -51.9027 N.am      20 UNK        -0.5000 
    110 CA        -4.8283  -16.6562  -52.9823 C.3       20 UNK         0.1400 
    111 CB        -6.3038  -16.3063  -52.7193 C.3       20 UNK        -0.1800 
    112 C         -4.6160  -17.3130  -54.3626 C.2       20 UNK         0.5000 
    113 O         -5.5567  -17.8559  -54.9426 O.2       20 UNK        -0.5000 
    114 N         -3.3601  -17.2876  -54.8264 N.am      21 UNK        -0.5000 
    115 CA        -2.8171  -17.8304  -56.0794 C.3       21 UNK         0.1400 
    116 CB        -3.5698  -17.2853  -57.3102 C.3       21 UNK        -0.1800 
    117 C         -2.6836  -19.3677  -56.1246 C.2       21 UNK         0.5000 
    118 O         -2.0145  -19.8728  -57.0276 O.2       21 UNK        -0.5000 
    119 N         -3.2593  -20.0776  -55.1456 N.am      22 UNK        -0.5000 
    120 CA        -3.2065  -21.5401  -54.9758 C.3       22 UNK         0.1400 
    121 C         -3.8907  -22.3325  -56.1357 C.2       22 UNK         0.5000 
    122 N         -3.6471  -23.6307  -56.2673 N.am      22 UNK        -0.7600 
    123 O         -4.6943  -21.7975  -56.8971 O.2       22 UNK        -0.5000 
    124 C124       -1.7763  -22.0471  -54.6229 C.3       23 UNK        -0.0398 
    125 S125       -1.0929  -21.2550  -53.1255 S.3       23 UNK        -0.2404 
    126 C126        0.2603  -20.2634  -53.8305 C.3       23 UNK        -0.0205 
    127 H127        5.3588  -10.8993  -48.9680 H         1 UNK         0.0600 
    128 H128        4.2614   -9.7028  -48.2705 H         1 UNK         0.0600 
    129 H129        4.1105  -10.1548  -49.9709 H         1 UNK         0.0600 
    130 H130        2.3831  -11.5140  -50.3326 H         1 UNK         0.3000 
    131 H131        1.8766  -13.8366  -48.6958 H         1 UNK         0.0600 
    132 H132        1.4326  -13.3122  -51.3573 H         1 UNK         0.0800 
    133 H133       -0.1596  -12.9757  -50.7713 H         1 UNK         0.0800 
    134 H134        1.4767  -15.4973  -52.6396 H         1 UNK         0.0800 
    135 H135        2.6544  -15.5352  -51.3474 H         1 UNK         0.0800 
    136 H136        0.3956  -17.5600  -53.4079 H         1 UNK         0.1150 
    137 H137        1.8035  -21.2969  -51.8538 H         1 UNK         0.1150 
    138 H138        2.9944  -17.6185  -49.9996 H         1 UNK         0.1150 
    139 H139        3.2443  -21.3929  -49.9810 H         1 UNK         0.0800 
    140 H140        4.3039  -20.0171  -49.7845 H         1 UNK         0.0800 
    141 H141        0.5951  -20.6507  -49.3068 H         1 UNK         0.0800 
    142 H142        0.2277  -19.8258  -47.8213 H         1 UNK         0.0800 
    143 H143        1.3668  -22.6565  -47.8947 H         1 UNK         0.0600 
    144 H144        0.8292  -20.9358  -45.7121 H         1 UNK         0.3000 
    145 H145        0.3133  -23.4906  -43.2334 H         1 UNK         0.0600 
    146 H146        2.0741  -22.0995  -42.1730 H         1 UNK         0.0600 
    147 H147        2.7554  -23.1005  -43.4471 H         1 UNK         0.0600 
    148 H148        2.4858  -21.3869  -43.7300 H         1 UNK         0.0600 
    149 H149        0.1628  -20.6391  -43.1012 H         1 UNK         0.3000 
    150 H150       -3.3628  -20.3937  -43.7507 H         1 UNK         0.0600 
    151 H151       -3.0858  -21.0111  -41.3367 H         1 UNK         0.0600 
    152 H152       -3.2708  -19.2778  -41.5542 H         1 UNK         0.0600 
    153 H153       -1.6784  -19.9592  -41.2287 H         1 UNK         0.0600 
    154 H154       -1.4782  -18.3768  -43.1376 H         1 UNK         0.3000 
    155 H155       -0.3584  -17.7396  -46.5052 H         1 UNK         0.0600 
    156 H156       -2.0650  -16.1682  -44.5066 H         1 UNK         0.0600 
    157 H157       -2.4611  -16.4683  -46.1937 H         1 UNK         0.0600 
    158 H158       -1.0765  -15.4652  -45.7859 H         1 UNK         0.0600 
    159 H159        0.4514  -16.5007  -44.1152 H         1 UNK         0.3000 
    160 H160        3.0553  -18.7998  -43.1889 H         1 UNK         0.0600 
    161 H161        2.9874  -15.9417  -44.2953 H         1 UNK         0.0600 
    162 H162        3.9978  -17.2584  -44.8681 H         1 UNK         0.0600 
    163 H163        4.2505  -16.6033  -43.2571 H         1 UNK         0.0600 
    164 H164        1.8968  -16.3884  -42.0624 H         1 UNK         0.3000 
    165 H165       -0.2513  -18.0668  -39.7675 H         1 UNK         0.0600 
    166 H166        1.0734  -16.7533  -38.1365 H         1 UNK         0.0600 
    167 H167        2.0004  -18.1398  -38.6870 H         1 UNK         0.0600 
    168 H168        2.3686  -16.5376  -39.3143 H         1 UNK         0.0600 
    169 H169        0.3897  -15.3050  -40.1747 H         1 UNK         0.3000 
    170 H170       -2.0743  -14.6425  -42.6616 H         1 UNK         0.0600 
    171 H171       -3.3585  -14.7116  -40.5158 H         1 UNK         0.0600 
    172 H172       -2.0233  -13.9204  -39.6857 H         1 UNK         0.0600 
    173 H173       -2.9093  -13.0703  -40.9514 H         1 UNK         0.0600 
    174 H174       -0.5145  -12.7580  -41.3985 H         1 UNK         0.3000 
    175 H175        1.8707  -12.3174  -41.8558 H         1 UNK         0.0600 
    176 H176        3.3378  -13.7079  -43.3034 H         1 UNK         0.0600 
    177 H177        2.5072  -13.1267  -44.7447 H         1 UNK         0.0600 
    178 H178        3.4492  -12.0150  -43.7551 H         1 UNK         0.0600 
    179 H179        1.0461  -11.1951  -44.4093 H         1 UNK         0.3000 
    180 H180       -1.6797   -9.3271  -43.1606 H         1 UNK         0.0600 
    181 H181        1.0717   -8.2890  -44.0116 H         1 UNK         0.0600 
    182 H182        0.2005   -7.8589  -42.5493 H         1 UNK         0.0600 
    183 H183       -0.4435   -7.3929  -44.1158 H         1 UNK         0.0600 
    184 H184       -2.0323   -9.9627  -45.2112 H         1 UNK         0.3000 
    185 H185       -1.7613  -11.0596  -47.2221 H         1 UNK         0.0600 
    186 H186       -1.8113   -9.3548  -49.0516 H         1 UNK         0.0600 
    187 H187       -2.0322   -8.5891  -47.4874 H         1 UNK         0.0600 
    188 H188       -0.4748   -8.4846  -48.2983 H         1 UNK         0.0600 
    189 H189        0.5824  -10.5918  -48.9175 H         1 UNK         0.3000 
    190 H190       -1.7668  -21.3162  -46.7281 H         1 UNK         0.3000 
    191 H191       -3.4396  -22.4586  -48.6796 H         1 UNK         0.0600 
    192 H192       -3.9895  -21.7874  -45.7377 H         1 UNK         0.0600 
    193 H193       -5.2285  -22.1222  -46.9320 H         1 UNK         0.0600 
    194 H194       -4.1981  -20.7060  -47.1090 H         1 UNK         0.0600 
    195 H195       -2.3552  -23.8067  -45.5352 H         1 UNK         0.3000 
    196 H196       -3.7468  -26.2804  -45.7231 H         1 UNK         0.0600 
    197 H197       -2.1869  -26.9802  -43.9008 H         1 UNK         0.0600 
    198 H198       -2.8692  -25.3911  -43.5881 H         1 UNK         0.0600 
    199 H199       -1.2123  -25.5395  -44.1670 H         1 UNK         0.0600 
    200 H200       -0.4112  -25.3545  -46.7024 H         1 UNK         0.3000 
    201 H201        0.4148  -27.9159  -47.6019 H         1 UNK         0.0600 
    202 H202        1.9988  -26.0831  -47.0904 H         1 UNK         0.0600 
    203 H203        1.3752  -25.1271  -48.4328 H         1 UNK         0.0600 
    204 H204        2.2290  -26.6336  -48.7430 H         1 UNK         0.0600 
    205 H205       -1.1289  -25.1955  -49.3634 H         1 UNK         0.3000 
    206 H206       -1.2192  -26.5036  -51.9242 H         1 UNK         0.0600 
    207 H207       -1.3236  -24.0318  -51.6474 H         1 UNK         0.0600 
    208 H208       -2.7593  -24.6100  -52.4790 H         1 UNK         0.0600 
    209 H209       -2.8503  -24.1685  -50.7790 H         1 UNK         0.0600 
    210 H210       -3.1631  -26.7515  -49.0769 H         1 UNK         0.3000 
    211 H211       -5.0318  -27.7190  -48.4354 H         1 UNK         0.0600 
    212 H212       -4.9371  -29.4132  -50.9904 H         1 UNK         0.0600 
    213 H213       -5.8756  -29.7533  -49.5437 H         1 UNK         0.0600 
    214 H214       -4.1211  -29.8061  -49.4774 H         1 UNK         0.0600 
    215 H215       -5.2377  -25.2583  -49.4555 H         1 UNK         0.3000 
    216 H216       -7.9311  -24.9904  -50.4744 H         1 UNK         0.0600 
    217 H217       -5.5767  -24.2963  -52.3347 H         1 UNK         0.0600 
    218 H218       -7.2566  -23.8218  -52.6088 H         1 UNK         0.0600 
    219 H219       -6.8086  -25.5135  -52.6300 H         1 UNK         0.0600 
    220 H220       -5.9718  -22.4204  -51.4930 H         1 UNK         0.3000 
    221 H221       -5.8472  -21.0099  -48.9285 H         1 UNK         0.0600 
    222 H222       -8.1099  -20.4123  -49.8466 H         1 UNK         0.0600 
    223 H223       -7.3722  -19.9396  -51.3758 H         1 UNK         0.0600 
    224 H224       -7.0240  -19.0338  -49.9066 H         1 UNK         0.0600 
    225 H225       -4.3747  -19.1897  -49.1014 H         1 UNK         0.3000 
    226 H226       -2.1661  -19.6207  -50.9086 H         1 UNK         0.0600 
    227 H227       -1.8924  -18.9230  -48.5347 H         1 UNK         0.0600 
    228 H228       -1.1323  -17.7864  -49.6321 H         1 UNK         0.0600 
    229 H229       -2.6742  -17.3809  -48.8833 H         1 UNK         0.0600 
    230 H230       -5.0714  -17.9903  -51.3671 H         1 UNK         0.3000 
    231 H231       -4.2550  -15.7269  -52.9600 H         1 UNK         0.0600 
    232 H232       -6.9310  -17.1979  -52.6783 H         1 UNK         0.0600 
    233 H233       -6.6982  -15.6625  -53.5065 H         1 UNK         0.0600 
    234 H234       -6.4198  -15.7723  -51.7760 H         1 UNK         0.0600 
    235 H235       -2.6609  -16.9314  -54.1820 H         1 UNK         0.3000 
    236 H236       -1.7968  -17.4478  -56.1330 H         1 UNK         0.0600 
    237 H237       -3.0551  -17.5593  -58.2319 H         1 UNK         0.0600 
    238 H238       -4.5827  -17.6825  -57.3782 H         1 UNK         0.0600 
    239 H239       -3.6337  -16.1975  -57.2861 H         1 UNK         0.0600 
    240 H240       -3.8132  -19.5815  -54.4636 H         1 UNK         0.3000 
    241 H241       -3.8412  -21.7465  -54.1156 H         1 UNK         0.0600 
    242 H242       -4.1105  -24.1360  -57.0068 H         1 UNK         0.3800 
    243 H243       -3.0220  -24.1258  -55.6523 H         1 UNK         0.3800 
    244 H244       -1.7856  -23.1183  -54.4216 H         1 UNK         0.0800 
    245 H245       -1.0984  -21.9055  -55.4656 H         1 UNK         0.0800 
    246 H246        0.9497  -20.9178  -54.3657 H         1 UNK         0.0800 
    247 H247       -0.1472  -19.5694  -54.5663 H         1 UNK         0.0800 
@<TRIPOS>BOND
     1    1    2 1    
     2    1  127 1    
     3    1  128 1    
     4    1  129 1    
     5    2    3 2    
     6    2    4 am   BACKBONE|DICT|INTERRES
     7    4    5 1    
     8    4  130 1    
     9    5    6 1    
    10    5   65 1    
    11    5  131 1    
    12    6    7 1    
    13    6  132 1    
    14    6  133 1    
    15    7    8 1    
    16    8    9 1    
    17    8  134 1    
    18    8  135 1    
    19    9   10 ar   
    20    9   14 ar   
    21   10   11 ar   
    22   10  136 1    
    23   11   12 ar   
    24   11  126 1    
    25   12   13 ar   
    26   12  137 1    
    27   13   14 ar   
    28   13   15 1    
    29   14  138 1    
    30   15   16 1    
    31   15  139 1    
    32   15  140 1    
    33   16   17 1    
    34   17   18 1    
    35   17  141 1    
    36   17  142 1    
    37   18   19 1    
    38   18   67 1    
    39   18  143 1    
    40   19   20 am   BACKBONE|DICT|INTERRES
    41   19  144 1    
    42   20   21 2    
    43   20   22 1    
    44   22   23 1    
    45   22   24 1    
    46   22  145 1    
    47   23  146 1    
    48   23  147 1    
    49   23  148 1    
    50   24   25 am   BACKBONE|DICT|INTERRES
    51   24  149 1    
    52   25   26 2    
    53   25   27 1    
    54   27   28 1    
    55   27   29 1    
    56   27  150 1    
    57   28  151 1    
    58   28  152 1    
    59   28  153 1    
    60   29   30 am   BACKBONE|DICT|INTERRES
    61   29  154 1    
    62   30   31 2    
    63   30   32 1    
    64   32   33 1    
    65   32   34 1    
    66   32  155 1    
    67   33  156 1    
    68   33  157 1    
    69   33  158 1    
    70   34   35 am   BACKBONE|DICT|INTERRES
    71   34  159 1    
    72   35   36 2    
    73   35   37 1    
    74   37   38 1    
    75   37   39 1    
    76   37  160 1    
    77   38  161 1    
    78   38  162 1    
    79   38  163 1    
    80   39   40 am   BACKBONE|DICT|INTERRES
    81   39  164 1    
    82   40   41 2    
    83   40   42 1    
    84   42   43 1    
    85   42   44 1    
    86   42  165 1    
    87   43  166 1    
    88   43  167 1    
    89   43  168 1    
    90   44   45 am   BACKBONE|DICT|INTERRES
    91   44  169 1    
    92   45   46 2    
    93   45   47 1    
    94   47   48 1    
    95   47   49 1    
    96   47  170 1    
    97   48  171 1    
    98   48  172 1    
    99   48  173 1    
   100   49   50 am   BACKBONE|DICT|INTERRES
   101   49  174 1    
   102   50   51 2    
   103   50   52 1    
   104   52   53 1    
   105   52   54 1    
   106   52  175 1    
   107   53  176 1    
   108   53  177 1    
   109   53  178 1    
   110   54   55 am   BACKBONE|DICT|INTERRES
   111   54  179 1    
   112   55   56 2    
   113   55   57 1    
   114   57   58 1    
   115   57   59 1    
   116   57  180 1    
   117   58  181 1    
   118   58  182 1    
   119   58  183 1    
   120   59   60 am   BACKBONE|DICT|INTERRES
   121   59  184 1    
   122   60   61 2    
   123   60   62 1    
   124   62   63 1    
   125   62   64 1    
   126   62  185 1    
   127   63  186 1    
   128   63  187 1    
   129   63  188 1    
   130   64   65 am   BACKBONE|DICT|INTERRES
   131   64  189 1    
   132   65   66 2    
   133   67   68 2    
   134   67   69 am   BACKBONE|DICT|INTERRES
   135   69   70 1    
   136   69  190 1    
   137   70   71 1    
   138   70   72 1    
   139   70  191 1    
   140   71  192 1    
   141   71  193 1    
   142   71  194 1    
   143   72   73 2    
   144   72   74 am   BACKBONE|DICT|INTERRES
   145   74   75 1    
   146   74  195 1    
   147   75   76 1    
   148   75   77 1    
   149   75  196 1    
   150   76  197 1    
   151   76  198 1    
   152   76  199 1    
   153   77   78 2    
   154   77   79 am   BACKBONE|DICT|INTERRES
   155   79   80 1    
   156   79  200 1    
   157   80   81 1    
   158   80   82 1    
   159   80  201 1    
   160   81  202 1    
   161   81  203 1    
   162   81  204 1    
   163   82   83 2    
   164   82   84 am   BACKBONE|DICT|INTERRES
   165   84   85 1    
   166   84  205 1    
   167   85   86 1    
   168   85   87 1    
   169   85  206 1    
   170   86  207 1    
   171   86  208 1    
   172   86  209 1    
   173   87   88 2    
   174   87   89 am   BACKBONE|DICT|INTERRES
   175   89   90 1    
   176   89  210 1    
   177   90   91 1    
   178   90   92 1    
   179   90  211 1    
   180   91  212 1    
   181   91  213 1    
   182   91  214 1    
   183   92   93 2    
   184   92   94 am   BACKBONE|DICT|INTERRES
   185   94   95 1    
   186   94  215 1    
   187   95   96 1    
   188   95   97 1    
   189   95  216 1    
   190   96  217 1    
   191   96  218 1    
   192   96  219 1    
   193   97   98 2    
   194   97   99 am   BACKBONE|DICT|INTERRES
   195   99  100 1    
   196   99  220 1    
   197  100  101 1    
   198  100  102 1    
   199  100  221 1    
   200  101  222 1    
   201  101  223 1    
   202  101  224 1    
   203  102  103 2    
   204  102  104 am   BACKBONE|DICT|INTERRES
   205  104  105 1    
   206  104  225 1    
   207  105  106 1    
   208  105  107 1    
   209  105  226 1    
   210  106  227 1    
   211  106  228 1    
   212  106  229 1    
   213  107  108 2    
   214  107  109 am   BACKBONE|DICT|INTERRES
   215  109  110 1    
   216  109  230 1    
   217  110  111 1    
   218  110  112 1    
   219  110  231 1    
   220  111  232 1    
   221  111  233 1    
   222  111  234 1    
   223  112  113 2    
   224  112  114 am   BACKBONE|DICT|INTERRES
   225  114  115 1    
   226  114  235 1    
   227  115  116 1    
   228  115  117 1    
   229  115  236 1    
   230  116  237 1    
   231  116  238 1    
   232  116  239 1    
   233  117  118 2    
   234  117  119 am   BACKBONE|DICT|INTERRES
   235  119  120 1    
   236  119  240 1    
   237  120  121 1    
   238  120  124 1    
   239  120  241 1    
   240  121  122 am   BACKBONE|DICT|INTERRES
   241  121  123 2    
   242  122  242 1    
   243  122  243 1    
   244  124  125 1    
   245  124  244 1    
   246  124  245 1    
   247  125  126 1    
   248  126  246 1    
   249  126  247 1    
@<TRIPOS>SUBSTRUCTURE
     1 UNK         1 GROUP             0       ****    0 ROOT    
