@<TRIPOS>MOLECULE
3R540
247   249    1
SMALL
USER_CHARGES


@<TRIPOS>ATOM
      1 CA         -3.0179  -15.5227  -49.8961 C.3       0 UNK        -0.1800 
      2 C          -1.7188  -14.7652  -49.6583 C.2       0 UNK         0.5000 
      3 O          -1.4518  -13.7768  -50.3420 O.2       0 UNK        -0.5000 
      4 N          -0.9147  -15.2292  -48.6948 N.am      1 UNK        -0.5000 
      5 CA          0.3313  -14.5890  -48.2610 C.3       1 UNK         0.1400 
      6 C6          1.3467  -15.6408  -47.7360 C.3       23 UNK        -0.0398 
      7 S7          3.0573  -15.3152  -48.2820 S.3       23 UNK        -0.2404 
      8 C8          3.0065  -15.6701  -50.0730 C.3       23 UNK        -0.0205 
      9 C9          2.2794  -16.9621  -50.4207 C.ar      23 UNK        -0.0193 
     10 C10         1.1723  -16.9336  -51.2722 C.ar      23 UNK        -0.1150 
     11 C11         0.5020  -18.1129  -51.6091 C.ar      23 UNK        -0.0193 
     12 C12         0.9257  -19.3268  -51.0604 C.ar      23 UNK        -0.1150 
     13 C13         2.0197  -19.3646  -50.1901 C.ar      23 UNK        -0.0193 
     14 C14         2.7050  -18.1834  -49.8921 C.ar      23 UNK        -0.1150 
     15 C15         2.4625  -20.6739  -49.5568 C.3       23 UNK        -0.0205 
     16 S16         2.0004  -20.7437  -47.7969 S.3       23 UNK        -0.2404 
     17 C17         0.1946  -20.9919  -47.8883 C.3       23 UNK        -0.0398 
     18 CA         -0.2396  -22.2783  -47.1505 C.3       11 UNK         0.1400 
     19 N           0.0590  -22.2285  -45.7147 N.am      11 UNK        -0.5000 
     20 C          -0.0568  -23.2682  -44.8770 C.2       10 UNK         0.5000 
     21 O          -0.3831  -24.3990  -45.2320 O.2       10 UNK        -0.5000 
     22 CA          0.1668  -22.9833  -43.3842 C.3       10 UNK         0.1400 
     23 CB          1.6640  -22.9698  -43.0425 C.3       10 UNK        -0.1800 
     24 N          -0.4542  -21.7200  -42.9865 N.am      10 UNK        -0.5000 
     25 C          -1.7789  -21.5423  -42.8756 C.2       9 UNK         0.5000 
     26 O          -2.6028  -22.4388  -43.0556 O.2       9 UNK        -0.5000 
     27 CA         -2.2703  -20.1200  -42.5462 C.3       9 UNK         0.1400 
     28 CB         -2.2983  -19.8967  -41.0269 C.3       9 UNK        -0.1800 
     29 N          -1.4603  -19.0735  -43.1693 N.am      9 UNK        -0.5000 
     30 C          -1.3509  -18.8720  -44.4901 C.2       8 UNK         0.5000 
     31 O          -1.9464  -19.5345  -45.3374 O.2       8 UNK        -0.5000 
     32 CA         -0.3719  -17.7715  -44.9384 C.3       8 UNK         0.1400 
     33 CB         -1.1041  -16.4222  -44.9709 C.3       8 UNK        -0.1800 
     34 N           0.8278  -17.6744  -44.0947 N.am      8 UNK        -0.5000 
     35 C           1.6834  -18.6879  -43.8766 C.2       7 UNK         0.5000 
     36 O           1.5280  -19.8115  -44.3589 O.2       7 UNK        -0.5000 
     37 CA          2.8650  -18.4272  -42.9184 C.3       7 UNK         0.1400 
     38 CB          3.9949  -19.4685  -43.0579 C.3       7 UNK        -0.1800 
     39 N           3.4011  -17.0664  -42.9889 N.am      7 UNK        -0.5000 
     40 C           3.9877  -16.4679  -44.0371 C.2       6 UNK         0.5000 
     41 O           4.1498  -17.0099  -45.1300 O.2       6 UNK        -0.5000 
     42 CA          4.4874  -15.0231  -43.8278 C.3       6 UNK         0.1400 
     43 CB          4.0704  -14.1105  -44.9881 C.3       6 UNK        -0.1800 
     44 N           3.9781  -14.4488  -42.5821 N.am      6 UNK        -0.5000 
     45 C           4.7054  -14.2132  -41.4819 C.2       5 UNK         0.5000 
     46 O           5.9209  -14.3967  -41.4099 O.2       5 UNK        -0.5000 
     47 CA          3.9436  -13.7153  -40.2360 C.3       5 UNK         0.1400 
     48 CB          3.9641  -12.1805  -40.1747 C.3       5 UNK        -0.1800 
     49 N           2.5531  -14.1722  -40.1790 N.am      5 UNK        -0.5000 
     50 C           2.1567  -15.4509  -40.1023 C.2       4 UNK         0.5000 
     51 O           2.9315  -16.4022  -40.0098 O.2       4 UNK        -0.5000 
     52 CA          0.6443  -15.7207  -40.2231 C.3       4 UNK         0.1400 
     53 CB          0.0081  -15.8711  -38.8339 C.3       4 UNK        -0.1800 
     54 N          -0.0785  -14.6906  -40.9758 N.am      4 UNK        -0.5000 
     55 C           0.1344  -14.3799  -42.2620 C.2       3 UNK         0.5000 
     56 O           0.9654  -14.9636  -42.9642 O.2       3 UNK        -0.5000 
     57 CA         -0.7470  -13.2565  -42.8498 C.3       3 UNK         0.1400 
     58 CB         -0.9632  -12.0885  -41.8618 C.3       3 UNK        -0.1800 
     59 N          -0.2684  -12.7480  -44.1385 N.am      3 UNK        -0.5000 
     60 C           0.8837  -12.1189  -44.4053 C.2       2 UNK         0.5000 
     61 O           1.7621  -11.9066  -43.5668 O.2       2 UNK        -0.5000 
     62 CA          1.0639  -11.6425  -45.8660 C.3       2 UNK         0.1400 
     63 CB          2.3183  -10.7722  -46.0614 C.3       2 UNK        -0.1800 
     64 N           1.1008  -12.7449  -46.8324 N.am      2 UNK        -0.5000 
     65 C           0.0494  -13.4733  -47.2291 C.2       1 UNK         0.5000 
     66 O          -1.0938  -13.2969  -46.7966 O.2       1 UNK        -0.5000 
     67 C          -1.7277  -22.5891  -47.4120 C.2       11 UNK         0.5000 
     68 O          -2.0329  -23.3943  -48.2933 O.2       11 UNK        -0.5000 
     69 N          -2.6203  -21.9836  -46.6153 N.am      12 UNK        -0.5000 
     70 CA         -4.0586  -22.2383  -46.6315 C.3       12 UNK         0.1400 
     71 CB         -4.7855  -21.2154  -45.7478 C.3       12 UNK        -0.1800 
     72 C          -4.4124  -23.6786  -46.2234 C.2       12 UNK         0.5000 
     73 O          -5.2340  -24.3093  -46.8879 O.2       12 UNK        -0.5000 
     74 N          -3.7621  -24.1918  -45.1708 N.am      13 UNK        -0.5000 
     75 CA         -3.9024  -25.5782  -44.7235 C.3       13 UNK         0.1400 
     76 CB         -3.2012  -25.7545  -43.3680 C.3       13 UNK        -0.1800 
     77 C          -3.3694  -26.5947  -45.7522 C.2       13 UNK         0.5000 
     78 O          -3.9838  -27.6456  -45.9399 O.2       13 UNK        -0.5000 
     79 N          -2.2433  -26.2627  -46.3970 N.am      14 UNK        -0.5000 
     80 CA         -1.5798  -27.0979  -47.3930 C.3       14 UNK         0.1400 
     81 CB         -0.1401  -26.6033  -47.6053 C.3       14 UNK        -0.1800 
     82 C          -2.3298  -27.1644  -48.7340 C.2       14 UNK         0.5000 
     83 O          -2.5383  -28.2658  -49.2458 O.2       14 UNK        -0.5000 
     84 N          -2.6853  -26.0025  -49.3012 N.am      15 UNK        -0.5000 
     85 CA         -3.1576  -25.8983  -50.6840 C.3       15 UNK         0.1400 
     86 CB         -1.9502  -25.9395  -51.6450 C.3       15 UNK        -0.1800 
     87 C          -4.0601  -24.6747  -50.9227 C.2       15 UNK         0.5000 
     88 O          -4.0367  -24.1119  -52.0173 O.2       15 UNK        -0.5000 
     89 N          -4.8376  -24.2687  -49.9077 N.am      16 UNK        -0.5000 
     90 CA         -5.8850  -23.2308  -49.9310 C.3       16 UNK         0.1400 
     91 CB         -7.0526  -23.6590  -50.8411 C.3       16 UNK        -0.1800 
     92 C          -5.4251  -21.7805  -50.2137 C.2       16 UNK         0.5000 
     93 O          -6.2259  -20.8629  -50.0354 O.2       16 UNK        -0.5000 
     94 N          -4.1495  -21.5878  -50.5746 N.am      17 UNK        -0.5000 
     95 CA         -3.4792  -20.3244  -50.8787 C.3       17 UNK         0.1400 
     96 CB         -3.3492  -19.4429  -49.6169 C.3       17 UNK        -0.1800 
     97 C          -4.1137  -19.6158  -52.0938 C.2       17 UNK         0.5000 
     98 O          -3.8809  -20.0513  -53.2222 O.2       17 UNK        -0.5000 
     99 N          -4.8607  -18.5294  -51.8616 N.am      18 UNK        -0.5000 
    100 CA        -5.5365  -17.7457  -52.8957 C.3       18 UNK         0.1400 
    101 CB        -6.0748  -16.4487  -52.2730 C.3       18 UNK        -0.1800 
    102 C         -6.6721  -18.5283  -53.5819 C.2       18 UNK         0.5000 
    103 O         -7.4388  -19.2163  -52.9053 O.2       18 UNK        -0.5000 
    104 N         -6.7608  -18.3759  -54.9103 N.am      19 UNK        -0.5000 
    105 CA        -7.6785  -19.0572  -55.8305 C.3       19 UNK         0.1400 
    106 CB        -9.1453  -18.6676  -55.5491 C.3       19 UNK        -0.1800 
    107 C         -7.4453  -20.5826  -55.8716 C.2       19 UNK         0.5000 
    108 O         -8.3992  -21.3536  -55.9956 O.2       19 UNK        -0.5000 
    109 N         -6.1746  -20.9866  -55.7617 N.am      20 UNK        -0.5000 
    110 CA        -5.7310  -22.3733  -55.6992 C.3       20 UNK         0.1400 
    111 CB        -6.0638  -22.9769  -54.3217 C.3       20 UNK        -0.1800 
    112 C         -4.2386  -22.4233  -56.0523 C.2       20 UNK         0.5000 
    113 O         -3.9059  -22.4449  -57.2381 O.2       20 UNK        -0.5000 
    114 N         -3.3678  -22.4231  -55.0327 N.am      21 UNK        -0.5000 
    115 CA        -1.9096  -22.3661  -55.1672 C.3       21 UNK         0.1400 
    116 CB        -1.2637  -22.5480  -53.7849 C.3       21 UNK        -0.1800 
    117 C         -1.4282  -21.0583  -55.8234 C.2       21 UNK         0.5000 
    118 O         -0.5240  -21.0927  -56.6594 O.2       21 UNK        -0.5000 
    119 N         -2.0747  -19.9475  -55.4574 N.am      22 UNK        -0.5000 
    120 CA        -1.9644  -18.6440  -56.1182 C.3       22 UNK         0.1400 
    121 C         -3.2478  -18.3830  -56.9445 C.2       22 UNK         0.5000 
    122 N         -3.1245  -17.8600  -58.1558 N.am      22 UNK        -0.7600 
    123 O         -4.3611  -18.6138  -56.4780 O.2       22 UNK        -0.5000 
    124 C124       -1.7496  -17.5025  -55.0970 C.3       23 UNK        -0.0398 
    125 S125       -0.1434  -17.6288  -54.2461 S.3       23 UNK        -0.2404 
    126 C126       -0.6783  -18.0643  -52.5644 C.3       23 UNK        -0.0205 
    127 H127       -3.8567  -14.8273  -49.9261 H         1 UNK         0.0600 
    128 H128       -3.2131  -16.2484  -49.1066 H         1 UNK         0.0600 
    129 H129       -2.9772  -16.0507  -50.8482 H         1 UNK         0.0600 
    130 H130       -1.2156  -16.0197  -48.1458 H         1 UNK         0.3000 
    131 H131        0.7618  -14.0935  -49.1330 H         1 UNK         0.0600 
    132 H132        1.3553  -15.6983  -46.6467 H         1 UNK         0.0800 
    133 H133        1.0757  -16.6462  -48.0593 H         1 UNK         0.0800 
    134 H134        2.5500  -14.8221  -50.5854 H         1 UNK         0.0800 
    135 H135        4.0297  -15.7317  -50.4456 H         1 UNK         0.0800 
    136 H136        0.8357  -15.9943  -51.6886 H         1 UNK         0.1150 
    137 H137        0.4037  -20.2403  -51.3081 H         1 UNK         0.1150 
    138 H138        3.5526  -18.2099  -49.2213 H         1 UNK         0.1150 
    139 H139        2.0423  -21.5311  -50.0852 H         1 UNK         0.0800 
    140 H140        3.5464  -20.7643  -49.6404 H         1 UNK         0.0800 
    141 H141       -0.1109  -21.0353  -48.9347 H         1 UNK         0.0800 
    142 H142       -0.2965  -20.1146  -47.4650 H         1 UNK         0.0800 
    143 H143        0.3311  -23.1099  -47.5695 H         1 UNK         0.0600 
    144 H144        0.3781  -21.3395  -45.3457 H         1 UNK         0.3000 
    145 H145       -0.3001  -23.7887  -42.8129 H         1 UNK         0.0600 
    146 H146        1.8297  -22.7343  -41.9912 H         1 UNK         0.0600 
    147 H147        2.1106  -23.9466  -43.2319 H         1 UNK         0.0600 
    148 H148        2.2116  -22.2435  -43.6423 H         1 UNK         0.0600 
    149 H149        0.1575  -20.9196  -42.9100 H         1 UNK         0.3000 
    150 H150       -3.2901  -20.0250  -42.9244 H         1 UNK         0.0600 
    151 H151       -2.9143  -20.6498  -40.5335 H         1 UNK         0.0600 
    152 H152       -2.7186  -18.9219  -40.7788 H         1 UNK         0.0600 
    153 H153       -1.2997  -19.9530  -40.5918 H         1 UNK         0.0600 
    154 H154       -0.9301  -18.4792  -42.5505 H         1 UNK         0.3000 
    155 H155       -0.0384  -18.0106  -45.9501 H         1 UNK         0.0600 
    156 H156       -1.9042  -16.4294  -45.7120 H         1 UNK         0.0600 
    157 H157       -0.4327  -15.6049  -45.2237 H         1 UNK         0.0600 
    158 H158       -1.5569  -16.1889  -44.0069 H         1 UNK         0.0600 
    159 H159        1.0184  -16.7679  -43.6760 H         1 UNK         0.3000 
    160 H160        2.4553  -18.5306  -41.9129 H         1 UNK         0.0600 
    161 H161        4.3945  -19.4991  -44.0720 H         1 UNK         0.0600 
    162 H162        3.6365  -20.4695  -42.8181 H         1 UNK         0.0600 
    163 H163        4.8185  -19.2512  -42.3778 H         1 UNK         0.0600 
    164 H164        3.3364  -16.5374  -42.1283 H         1 UNK         0.3000 
    165 H165        5.5779  -15.0649  -43.8099 H         1 UNK         0.0600 
    166 H166        2.9926  -14.1388  -45.1478 H         1 UNK         0.0600 
    167 H167        4.3602  -13.0779  -44.7963 H         1 UNK         0.0600 
    168 H168        4.5553  -14.4148  -45.9153 H         1 UNK         0.0600 
    169 H169        2.9792  -14.2754  -42.5594 H         1 UNK         0.3000 
    170 H170        4.4601  -14.1035  -39.3557 H         1 UNK         0.0600 
    171 H171        4.9871  -11.8021  -40.1907 H         1 UNK         0.0600 
    172 H172        3.4371  -11.7384  -41.0217 H         1 UNK         0.0600 
    173 H173        3.4978  -11.8148  -39.2597 H         1 UNK         0.0600 
    174 H174        1.8435  -13.4602  -40.2684 H         1 UNK         0.3000 
    175 H175        0.5251  -16.6659  -40.7569 H         1 UNK         0.0600 
    176 H176        0.0699  -14.9453  -38.2604 H         1 UNK         0.0600 
    177 H177       -1.0428  -16.1513  -38.9091 H         1 UNK         0.0600 
    178 H178        0.5093  -16.6492  -38.2565 H         1 UNK         0.0600 
    179 H179       -0.7837  -14.1788  -40.4654 H         1 UNK         0.3000 
    180 H180       -1.7191  -13.7078  -43.0518 H         1 UNK         0.0600 
    181 H181       -0.0178  -11.6696  -41.5146 H         1 UNK         0.0600 
    182 H182       -1.5274  -12.4030  -40.9835 H         1 UNK         0.0600 
    183 H183       -1.5310  -11.2824  -42.3269 H         1 UNK         0.0600 
    184 H184       -0.8719  -12.9323  -44.9355 H         1 UNK         0.3000 
    185 H185        0.2003  -11.0157  -46.0983 H         1 UNK         0.0600 
    186 H186        2.3198   -9.9266  -45.3724 H         1 UNK         0.0600 
    187 H187        3.2348  -11.3360  -45.8913 H         1 UNK         0.0600 
    188 H188        2.3603  -10.3643  -47.0714 H         1 UNK         0.0600 
    189 H189        2.0117  -12.9712  -47.2063 H         1 UNK         0.3000 
    190 H190       -2.2950  -21.2727  -45.9651 H         1 UNK         0.3000 
    191 H191       -4.3985  -22.0908  -47.6541 H         1 UNK         0.0600 
    192 H192       -4.5926  -20.1969  -46.0855 H         1 UNK         0.0600 
    193 H193       -4.4745  -21.2883  -44.7061 H         1 UNK         0.0600 
    194 H194       -5.8647  -21.3697  -45.7804 H         1 UNK         0.0600 
    195 H195       -3.1380  -23.5979  -44.6346 H         1 UNK         0.3000 
    196 H196       -4.9664  -25.7782  -44.5812 H         1 UNK         0.0600 
    197 H197       -3.3114  -26.7756  -43.0010 H         1 UNK         0.0600 
    198 H198       -3.6264  -25.0904  -42.6154 H         1 UNK         0.0600 
    199 H199       -2.1339  -25.5428  -43.4353 H         1 UNK         0.0600 
    200 H200       -1.7600  -25.4112  -46.1258 H         1 UNK         0.3000 
    201 H201       -1.5237  -28.1137  -46.9956 H         1 UNK         0.0600 
    202 H202        0.4348  -26.6576  -46.6807 H         1 UNK         0.0600 
    203 H203       -0.1152  -25.5705  -47.9539 H         1 UNK         0.0600 
    204 H204        0.3786  -27.2130  -48.3462 H         1 UNK         0.0600 
    205 H205       -2.4745  -25.1235  -48.8307 H         1 UNK         0.3000 
    206 H206       -3.7917  -26.7590  -50.9059 H         1 UNK         0.0600 
    207 H207       -1.3774  -26.8592  -51.5272 H         1 UNK         0.0600 
    208 H208       -2.2680  -25.8970  -52.6875 H         1 UNK         0.0600 
    209 H209       -1.2753  -25.1015  -51.4678 H         1 UNK         0.0600 
    210 H210       -4.7516  -24.7529  -49.0220 H         1 UNK         0.3000 
    211 H211       -6.2905  -23.1945  -48.9207 H         1 UNK         0.0600 
    212 H212       -6.7258  -23.8606  -51.8581 H         1 UNK         0.0600 
    213 H213       -7.5257  -24.5654  -50.4636 H         1 UNK         0.0600 
    214 H214       -7.8240  -22.8895  -50.8906 H         1 UNK         0.0600 
    215 H215       -3.6115  -22.4241  -50.7609 H         1 UNK         0.3000 
    216 H216       -2.4664  -20.5929  -51.1801 H         1 UNK         0.0600 
    217 H217       -2.8182  -19.9721  -48.8260 H         1 UNK         0.0600 
    218 H218       -4.3156  -19.1400  -49.2138 H         1 UNK         0.0600 
    219 H219       -2.7775  -18.5405  -49.8338 H         1 UNK         0.0600 
    220 H220       -5.0680  -18.2867  -50.9046 H         1 UNK         0.3000 
    221 H221       -4.7951  -17.4775  -53.6502 H         1 UNK         0.0600 
    222 H222       -6.7852  -16.6528  -51.4708 H         1 UNK         0.0600 
    223 H223       -5.2686  -15.8413  -51.8633 H         1 UNK         0.0600 
    224 H224       -6.5886  -15.8412  -53.0192 H         1 UNK         0.0600 
    225 H225       -6.0195  -17.8648  -55.3758 H         1 UNK         0.3000 
    226 H226       -7.4296  -18.6910  -56.8274 H         1 UNK         0.0600 
    227 H227       -9.2683  -17.5849  -55.5261 H         1 UNK         0.0600 
    228 H228       -9.8062  -19.0519  -56.3268 H         1 UNK         0.0600 
    229 H229       -9.4974  -19.0664  -54.5975 H         1 UNK         0.0600 
    230 H230       -5.4452  -20.2809  -55.7290 H         1 UNK         0.3000 
    231 H231       -6.2572  -22.9488  -56.4637 H         1 UNK         0.0600 
    232 H232       -5.6484  -23.9803  -54.2217 H         1 UNK         0.0600 
    233 H233       -7.1410  -23.0621  -54.1802 H         1 UNK         0.0600 
    234 H234       -5.6739  -22.3658  -53.5065 H         1 UNK         0.0600 
    235 H235       -3.7321  -22.3836  -54.0899 H         1 UNK         0.3000 
    236 H236       -1.5990  -23.1966  -55.8043 H         1 UNK         0.0600 
    237 H237       -1.5565  -23.4969  -53.3376 H         1 UNK         0.0600 
    238 H238       -0.1756  -22.5432  -53.8579 H         1 UNK         0.0600 
    239 H239       -1.5504  -21.7515  -53.0987 H         1 UNK         0.0600 
    240 H240       -2.8173  -20.0271  -54.7665 H         1 UNK         0.3000 
    241 H241       -1.1152  -18.6454  -56.8045 H         1 UNK         0.0600 
    242 H242       -2.2224  -17.6538  -58.5566 H         1 UNK         0.3800 
    243 H243       -3.9569  -17.6751  -58.6933 H         1 UNK         0.3800 
    244 H244       -1.7708  -16.5339  -55.5998 H         1 UNK         0.0800 
    245 H245       -2.5576  -17.4812  -54.3652 H         1 UNK         0.0800 
    246 H246       -1.1878  -19.0271  -52.5994 H         1 UNK         0.0800 
    247 H247       -1.4020  -17.3321  -52.2053 H         1 UNK         0.0800 
@<TRIPOS>BOND
     1    1    2 1    
     2    1  127 1    
     3    1  128 1    
     4    1  129 1    
     5    2    3 2    
     6    2    4 am   BACKBONE|DICT|INTERRES
     7    4    5 1    
     8    4  130 1    
     9    5    6 1    
    10    5   65 1    
    11    5  131 1    
    12    6    7 1    
    13    6  132 1    
    14    6  133 1    
    15    7    8 1    
    16    8    9 1    
    17    8  134 1    
    18    8  135 1    
    19    9   10 ar   
    20    9   14 ar   
    21   10   11 ar   
    22   10  136 1    
    23   11   12 ar   
    24   11  126 1    
    25   12   13 ar   
    26   12  137 1    
    27   13   14 ar   
    28   13   15 1    
    29   14  138 1    
    30   15   16 1    
    31   15  139 1    
    32   15  140 1    
    33   16   17 1    
    34   17   18 1    
    35   17  141 1    
    36   17  142 1    
    37   18   19 1    
    38   18   67 1    
    39   18  143 1    
    40   19   20 am   BACKBONE|DICT|INTERRES
    41   19  144 1    
    42   20   21 2    
    43   20   22 1    
    44   22   23 1    
    45   22   24 1    
    46   22  145 1    
    47   23  146 1    
    48   23  147 1    
    49   23  148 1    
    50   24   25 am   BACKBONE|DICT|INTERRES
    51   24  149 1    
    52   25   26 2    
    53   25   27 1    
    54   27   28 1    
    55   27   29 1    
    56   27  150 1    
    57   28  151 1    
    58   28  152 1    
    59   28  153 1    
    60   29   30 am   BACKBONE|DICT|INTERRES
    61   29  154 1    
    62   30   31 2    
    63   30   32 1    
    64   32   33 1    
    65   32   34 1    
    66   32  155 1    
    67   33  156 1    
    68   33  157 1    
    69   33  158 1    
    70   34   35 am   BACKBONE|DICT|INTERRES
    71   34  159 1    
    72   35   36 2    
    73   35   37 1    
    74   37   38 1    
    75   37   39 1    
    76   37  160 1    
    77   38  161 1    
    78   38  162 1    
    79   38  163 1    
    80   39   40 am   BACKBONE|DICT|INTERRES
    81   39  164 1    
    82   40   41 2    
    83   40   42 1    
    84   42   43 1    
    85   42   44 1    
    86   42  165 1    
    87   43  166 1    
    88   43  167 1    
    89   43  168 1    
    90   44   45 am   BACKBONE|DICT|INTERRES
    91   44  169 1    
    92   45   46 2    
    93   45   47 1    
    94   47   48 1    
    95   47   49 1    
    96   47  170 1    
    97   48  171 1    
    98   48  172 1    
    99   48  173 1    
   100   49   50 am   BACKBONE|DICT|INTERRES
   101   49  174 1    
   102   50   51 2    
   103   50   52 1    
   104   52   53 1    
   105   52   54 1    
   106   52  175 1    
   107   53  176 1    
   108   53  177 1    
   109   53  178 1    
   110   54   55 am   BACKBONE|DICT|INTERRES
   111   54  179 1    
   112   55   56 2    
   113   55   57 1    
   114   57   58 1    
   115   57   59 1    
   116   57  180 1    
   117   58  181 1    
   118   58  182 1    
   119   58  183 1    
   120   59   60 am   BACKBONE|DICT|INTERRES
   121   59  184 1    
   122   60   61 2    
   123   60   62 1    
   124   62   63 1    
   125   62   64 1    
   126   62  185 1    
   127   63  186 1    
   128   63  187 1    
   129   63  188 1    
   130   64   65 am   BACKBONE|DICT|INTERRES
   131   64  189 1    
   132   65   66 2    
   133   67   68 2    
   134   67   69 am   BACKBONE|DICT|INTERRES
   135   69   70 1    
   136   69  190 1    
   137   70   71 1    
   138   70   72 1    
   139   70  191 1    
   140   71  192 1    
   141   71  193 1    
   142   71  194 1    
   143   72   73 2    
   144   72   74 am   BACKBONE|DICT|INTERRES
   145   74   75 1    
   146   74  195 1    
   147   75   76 1    
   148   75   77 1    
   149   75  196 1    
   150   76  197 1    
   151   76  198 1    
   152   76  199 1    
   153   77   78 2    
   154   77   79 am   BACKBONE|DICT|INTERRES
   155   79   80 1    
   156   79  200 1    
   157   80   81 1    
   158   80   82 1    
   159   80  201 1    
   160   81  202 1    
   161   81  203 1    
   162   81  204 1    
   163   82   83 2    
   164   82   84 am   BACKBONE|DICT|INTERRES
   165   84   85 1    
   166   84  205 1    
   167   85   86 1    
   168   85   87 1    
   169   85  206 1    
   170   86  207 1    
   171   86  208 1    
   172   86  209 1    
   173   87   88 2    
   174   87   89 am   BACKBONE|DICT|INTERRES
   175   89   90 1    
   176   89  210 1    
   177   90   91 1    
   178   90   92 1    
   179   90  211 1    
   180   91  212 1    
   181   91  213 1    
   182   91  214 1    
   183   92   93 2    
   184   92   94 am   BACKBONE|DICT|INTERRES
   185   94   95 1    
   186   94  215 1    
   187   95   96 1    
   188   95   97 1    
   189   95  216 1    
   190   96  217 1    
   191   96  218 1    
   192   96  219 1    
   193   97   98 2    
   194   97   99 am   BACKBONE|DICT|INTERRES
   195   99  100 1    
   196   99  220 1    
   197  100  101 1    
   198  100  102 1    
   199  100  221 1    
   200  101  222 1    
   201  101  223 1    
   202  101  224 1    
   203  102  103 2    
   204  102  104 am   BACKBONE|DICT|INTERRES
   205  104  105 1    
   206  104  225 1    
   207  105  106 1    
   208  105  107 1    
   209  105  226 1    
   210  106  227 1    
   211  106  228 1    
   212  106  229 1    
   213  107  108 2    
   214  107  109 am   BACKBONE|DICT|INTERRES
   215  109  110 1    
   216  109  230 1    
   217  110  111 1    
   218  110  112 1    
   219  110  231 1    
   220  111  232 1    
   221  111  233 1    
   222  111  234 1    
   223  112  113 2    
   224  112  114 am   BACKBONE|DICT|INTERRES
   225  114  115 1    
   226  114  235 1    
   227  115  116 1    
   228  115  117 1    
   229  115  236 1    
   230  116  237 1    
   231  116  238 1    
   232  116  239 1    
   233  117  118 2    
   234  117  119 am   BACKBONE|DICT|INTERRES
   235  119  120 1    
   236  119  240 1    
   237  120  121 1    
   238  120  124 1    
   239  120  241 1    
   240  121  122 am   BACKBONE|DICT|INTERRES
   241  121  123 2    
   242  122  242 1    
   243  122  243 1    
   244  124  125 1    
   245  124  244 1    
   246  124  245 1    
   247  125  126 1    
   248  126  246 1    
   249  126  247 1    
@<TRIPOS>SUBSTRUCTURE
     1 UNK         1 GROUP             0       ****    0 ROOT    
