@<TRIPOS>MOLECULE
3R540
247   249    1
SMALL
USER_CHARGES


@<TRIPOS>ATOM
      1 CA         -0.7284  -13.4526  -44.6473 C.3       0 UNK        -0.1800 
      2 C          -0.3312  -12.6497  -45.8732 C.2       0 UNK         0.5000 
      3 O           0.6994  -12.9352  -46.4801 O.2       0 UNK        -0.5000 
      4 N          -1.1565  -11.6522  -46.2191 N.am      1 UNK        -0.5000 
      5 CA         -1.0007  -10.6746  -47.3032 C.3       1 UNK         0.1400 
      6 C6         -1.4974  -11.1637  -48.6973 C.3       23 UNK        -0.0398 
      7 S7         -0.6614  -12.6101  -49.4430 S.3       23 UNK        -0.2404 
      8 C8         -1.8224  -13.9562  -49.0171 C.3       23 UNK        -0.0205 
      9 C9         -1.4792  -15.3379  -49.5790 C.ar      23 UNK        -0.0193 
     10 C10        -0.2548  -15.6335  -50.1968 C.ar      23 UNK        -0.1150 
     11 C11         0.0012  -16.9114  -50.7020 C.ar      23 UNK        -0.0193 
     12 C12        -0.9792  -17.8985  -50.5938 C.ar      23 UNK        -0.1150 
     13 C13        -2.1954  -17.6317  -49.9655 C.ar      23 UNK        -0.0193 
     14 C14        -2.4365  -16.3516  -49.4593 C.ar      23 UNK        -0.1150 
     15 C15        -3.2487  -18.7225  -49.8422 C.3       23 UNK        -0.0205 
     16 S16        -2.9296  -19.8076  -48.4162 S.3       23 UNK        -0.2404 
     17 C17        -1.8050  -21.0442  -49.1469 C.3       23 UNK        -0.0398 
     18 CA         -1.3784  -22.2231  -48.2395 C.3       11 UNK         0.1400 
     19 N          -0.3476  -21.8760  -47.2563 N.am      11 UNK        -0.5000 
     20 C           0.4107  -22.8022  -46.6475 C.2       10 UNK         0.5000 
     21 O           0.3004  -24.0113  -46.8524 O.2       10 UNK        -0.5000 
     22 CA          1.4383  -22.3180  -45.6133 C.3       10 UNK         0.1400 
     23 CB          2.6675  -21.7118  -46.3066 C.3       10 UNK        -0.1800 
     24 N           0.8766  -21.3654  -44.6589 N.am      10 UNK        -0.5000 
     25 C          -0.1147  -21.6406  -43.7990 C.2       9 UNK         0.5000 
     26 O          -0.6527  -22.7440  -43.7031 O.2       9 UNK        -0.5000 
     27 CA         -0.6235  -20.4723  -42.9347 C.3       9 UNK         0.1400 
     28 CB          0.3174  -20.2086  -41.7497 C.3       9 UNK        -0.1800 
     29 N          -0.7932  -19.2441  -43.7099 N.am      9 UNK        -0.5000 
     30 C          -1.6535  -19.1074  -44.7287 C.2       8 UNK         0.5000 
     31 O          -2.4436  -19.9846  -45.0746 O.2       8 UNK        -0.5000 
     32 CA         -1.5850  -17.7884  -45.5167 C.3       8 UNK         0.1400 
     33 CB         -2.3921  -16.6823  -44.8231 C.3       8 UNK        -0.1800 
     34 N          -0.2070  -17.3470  -45.7219 N.am      8 UNK        -0.5000 
     35 C           0.6678  -17.9619  -46.5305 C.2       7 UNK         0.5000 
     36 O           0.4017  -18.9553  -47.2082 O.2       7 UNK        -0.5000 
     37 CA          2.1003  -17.3986  -46.5361 C.3       7 UNK         0.1400 
     38 CB          2.2091  -16.1905  -47.4766 C.3       7 UNK        -0.1800 
     39 N           2.5674  -17.0281  -45.1965 N.am      7 UNK        -0.5000 
     40 C           2.8182  -17.9182  -44.2264 C.2       6 UNK         0.5000 
     41 O           2.6627  -19.1305  -44.3595 O.2       6 UNK        -0.5000 
     42 CA          3.2987  -17.3729  -42.8702 C.3       6 UNK         0.1400 
     43 CB          4.8103  -17.1026  -42.9042 C.3       6 UNK        -0.1800 
     44 N           2.6080  -16.1710  -42.3993 N.am      6 UNK        -0.5000 
     45 C           1.2866  -16.0159  -42.2503 C.2       5 UNK         0.5000 
     46 O           0.4569  -16.8347  -42.6464 O.2       5 UNK        -0.5000 
     47 CA          0.7909  -14.7338  -41.5485 C.3       5 UNK         0.1400 
     48 CB          0.4313  -15.0228  -40.0788 C.3       5 UNK        -0.1800 
     49 N           1.6783  -13.5630  -41.6633 N.am      5 UNK        -0.5000 
     50 C           2.8858  -13.3582  -41.1180 C.2       4 UNK         0.5000 
     51 O           3.4866  -14.1999  -40.4491 O.2       4 UNK        -0.5000 
     52 CA          3.5625  -12.0156  -41.4582 C.3       4 UNK         0.1400 
     53 CB          4.7422  -11.6951  -40.5230 C.3       4 UNK        -0.1800 
     54 N           4.0474  -12.0398  -42.8373 N.am      4 UNK        -0.5000 
     55 C           3.2862  -11.8455  -43.9199 C.2       3 UNK         0.5000 
     56 O           2.0955  -11.5287  -43.8637 O.2       3 UNK        -0.5000 
     57 CA          3.9649  -12.1207  -45.2704 C.3       3 UNK         0.1400 
     58 CB          4.0355  -13.6365  -45.5152 C.3       3 UNK        -0.1800 
     59 N           3.2158  -11.5148  -46.3680 N.am      3 UNK        -0.5000 
     60 C           3.5892  -10.4223  -47.0453 C.2       2 UNK         0.5000 
     61 O           4.6179   -9.7891  -46.8017 O.2       2 UNK        -0.5000 
     62 CA          2.6877   -9.9587  -48.2081 C.3       2 UNK         0.1400 
     63 CB          3.2791  -10.4079  -49.5535 C.3       2 UNK        -0.1800 
     64 N           1.3145  -10.4519  -48.1183 N.am      2 UNK        -0.5000 
     65 C           0.3795   -9.9771  -47.2890 C.2       1 UNK         0.5000 
     66 O           0.5671   -9.0289  -46.5242 O.2       1 UNK        -0.5000 
     67 C          -2.5633  -22.9844  -47.6115 C.2       11 UNK         0.5000 
     68 O          -3.1095  -23.8761  -48.2615 O.2       11 UNK        -0.5000 
     69 N          -2.9167  -22.6630  -46.3581 N.am      12 UNK        -0.5000 
     70 CA         -3.9236  -23.3849  -45.5813 C.3       12 UNK         0.1400 
     71 CB         -4.2645  -22.6011  -44.3059 C.3       12 UNK        -0.1800 
     72 C          -3.4811  -24.8204  -45.2486 C.2       12 UNK         0.5000 
     73 O          -4.2699  -25.7492  -45.4236 O.2       12 UNK        -0.5000 
     74 N          -2.2209  -24.9826  -44.8193 N.am      13 UNK        -0.5000 
     75 CA         -1.6036  -26.2767  -44.5188 C.3       13 UNK         0.1400 
     76 CB         -0.2426  -26.0512  -43.8430 C.3       13 UNK        -0.1800 
     77 C          -1.4530  -27.1755  -45.7608 C.2       13 UNK         0.5000 
     78 O          -1.6943  -28.3799  -45.6733 O.2       13 UNK        -0.5000 
     79 N          -1.0831  -26.5716  -46.8981 N.am      14 UNK        -0.5000 
     80 CA         -0.9527  -27.2398  -48.1951 C.3       14 UNK         0.1400 
     81 CB         -0.0977  -26.3553  -49.1172 C.3       14 UNK        -0.1800 
     82 C          -2.3031  -27.5522  -48.8721 C.2       14 UNK         0.5000 
     83 O          -2.3246  -28.3233  -49.8315 O.2       14 UNK        -0.5000 
     84 N          -3.3856  -26.9161  -48.3976 N.am      15 UNK        -0.5000 
     85 CA         -4.7424  -26.8914  -48.9626 C.3       15 UNK         0.1400 
     86 CB         -5.3644  -28.3015  -49.0151 C.3       15 UNK        -0.1800 
     87 C          -4.8326  -26.1476  -50.3151 C.2       15 UNK         0.5000 
     88 O          -5.8417  -26.2530  -51.0133 O.2       15 UNK        -0.5000 
     89 N          -3.7962  -25.3629  -50.6369 N.am      16 UNK        -0.5000 
     90 CA         -3.7078  -24.4806  -51.7989 C.3       16 UNK         0.1400 
     91 CB         -2.2321  -24.1263  -52.0279 C.3       16 UNK        -0.1800 
     92 C          -4.5701  -23.2126  -51.6391 C.2       16 UNK         0.5000 
     93 O          -4.9163  -22.5834  -52.6406 O.2       16 UNK        -0.5000 
     94 N          -4.9514  -22.8936  -50.3913 N.am      17 UNK        -0.5000 
     95 CA         -5.8794  -21.8267  -50.0064 C.3       17 UNK         0.1400 
     96 CB         -6.0696  -21.8463  -48.4822 C.3       17 UNK        -0.1800 
     97 C          -7.2552  -21.9129  -50.6932 C.2       17 UNK         0.5000 
     98 O          -7.8677  -20.8749  -50.9392 O.2       17 UNK        -0.5000 
     99 N          -7.6947  -23.1340  -51.0327 N.am      18 UNK        -0.5000 
    100 CA        -8.9298  -23.4084  -51.7719 C.3       18 UNK         0.1400 
    101 CB        -9.1703  -24.9253  -51.7922 C.3       18 UNK        -0.1800 
    102 C         -8.9253  -22.8431  -53.2075 C.2       18 UNK         0.5000 
    103 O         -9.9886  -22.5015  -53.7261 O.2       18 UNK        -0.5000 
    104 N         -7.7331  -22.7353  -53.8084 N.am      19 UNK        -0.5000 
    105 CA        -7.4983  -22.1181  -55.1148 C.3       19 UNK         0.1400 
    106 CB        -6.5150  -23.0088  -55.8932 C.3       19 UNK        -0.1800 
    107 C         -6.9346  -20.6880  -54.9851 C.2       19 UNK         0.5000 
    108 O         -6.7426  -20.0260  -56.0056 O.2       19 UNK        -0.5000 
    109 N         -6.6448  -20.2555  -53.7467 N.am      20 UNK        -0.5000 
    110 CA        -5.9089  -19.0449  -53.3630 C.3       20 UNK         0.1400 
    111 CB        -6.7327  -17.7793  -53.6760 C.3       20 UNK        -0.1800 
    112 C         -4.4820  -19.0061  -53.9559 C.2       20 UNK         0.5000 
    113 O         -3.9837  -17.9342  -54.3041 O.2       20 UNK        -0.5000 
    114 N         -3.8643  -20.1867  -54.0816 N.am      21 UNK        -0.5000 
    115 CA        -2.5499  -20.3887  -54.6801 C.3       21 UNK         0.1400 
    116 CB        -2.6031  -21.6682  -55.5303 C.3       21 UNK        -0.1800 
    117 C         -1.4728  -20.5061  -53.5923 C.2       21 UNK         0.5000 
    118 O         -1.7760  -20.8928  -52.4632 O.2       21 UNK        -0.5000 
    119 N         -0.2263  -20.2018  -53.9655 N.am      22 UNK        -0.5000 
    120 CA         0.9565  -20.2956  -53.0908 C.3       22 UNK         0.1400 
    121 C          1.6696  -21.6792  -53.1351 C.2       22 UNK         0.5000 
    122 N          1.2092  -22.6451  -53.9209 N.am      22 UNK        -0.7600 
    123 O          2.6546  -21.8867  -52.4322 O.2       22 UNK        -0.5000 
    124 C124        1.9531  -19.1333  -53.3439 C.3       23 UNK        -0.0398 
    125 S125        1.1944  -17.4832  -53.1380 S.3       23 UNK        -0.2404 
    126 C126        1.3439  -17.2390  -51.3389 C.3       23 UNK        -0.0205 
    127 H127       -1.8073  -13.6005  -44.6044 H         1 UNK         0.0600 
    128 H128       -0.4190  -12.9172  -43.7513 H         1 UNK         0.0600 
    129 H129       -0.2461  -14.4295  -44.6551 H         1 UNK         0.0600 
    130 H130       -1.9650  -11.4914  -45.6354 H         1 UNK         0.3000 
    131 H131       -1.6946   -9.8785  -47.0277 H         1 UNK         0.0600 
    132 H132       -2.5639  -11.3817  -48.6315 H         1 UNK         0.0800 
    133 H133       -1.4267  -10.3436  -49.4138 H         1 UNK         0.0800 
    134 H134       -2.8148  -13.6760  -49.3729 H         1 UNK         0.0800 
    135 H135       -1.8904  -14.0347  -47.9321 H         1 UNK         0.0800 
    136 H136        0.5125  -14.8792  -50.2846 H         1 UNK         0.1150 
    137 H137       -0.7945  -18.8805  -50.9967 H         1 UNK         0.1150 
    138 H138       -3.3789  -16.1412  -48.9731 H         1 UNK         0.1150 
    139 H139       -3.2924  -19.3103  -50.7604 H         1 UNK         0.0800 
    140 H140       -4.2360  -18.2743  -49.7230 H         1 UNK         0.0800 
    141 H141       -0.9129  -20.5386  -49.5137 H         1 UNK         0.0800 
    142 H142       -2.3064  -21.4464  -50.0269 H         1 UNK         0.0800 
    143 H143       -0.9050  -22.9390  -48.9152 H         1 UNK         0.0600 
    144 H144       -0.2036  -20.8888  -47.0631 H         1 UNK         0.3000 
    145 H145        1.7703  -23.1910  -45.0475 H         1 UNK         0.0600 
    146 H146        3.0936  -22.4098  -47.0283 H         1 UNK         0.0600 
    147 H147        3.4492  -21.4754  -45.5846 H         1 UNK         0.0600 
    148 H148        2.4188  -20.7957  -46.8424 H         1 UNK         0.0600 
    149 H149        1.3024  -20.4428  -44.6405 H         1 UNK         0.3000 
    150 H150       -1.6009  -20.7531  -42.5369 H         1 UNK         0.0600 
    151 H151        1.3132  -19.9158  -42.0820 H         1 UNK         0.0600 
    152 H152        0.4262  -21.1012  -41.1327 H         1 UNK         0.0600 
    153 H153       -0.0676  -19.4140  -41.1101 H         1 UNK         0.0600 
    154 H154       -0.2084  -18.4531  -43.4551 H         1 UNK         0.3000 
    155 H155       -2.0324  -17.9553  -46.4962 H         1 UNK         0.0600 
    156 H156       -2.4456  -15.7916  -45.4485 H         1 UNK         0.0600 
    157 H157       -1.9579  -16.4007  -43.8635 H         1 UNK         0.0600 
    158 H158       -3.4167  -17.0071  -44.6377 H         1 UNK         0.0600 
    159 H159        0.1207  -16.5900  -45.1416 H         1 UNK         0.3000 
    160 H160        2.7608  -18.1801  -46.9182 H         1 UNK         0.0600 
    161 H161        1.5538  -15.3755  -47.1689 H         1 UNK         0.0600 
    162 H162        1.9290  -16.4687  -48.4917 H         1 UNK         0.0600 
    163 H163        3.2292  -15.8099  -47.5185 H         1 UNK         0.0600 
    164 H164        2.7060  -16.0479  -45.0060 H         1 UNK         0.3000 
    165 H165        3.1148  -18.1520  -42.1281 H         1 UNK         0.0600 
    166 H166        5.3597  -17.9909  -43.2192 H         1 UNK         0.0600 
    167 H167        5.0609  -16.2986  -43.5966 H         1 UNK         0.0600 
    168 H168        5.1834  -16.8241  -41.9183 H         1 UNK         0.0600 
    169 H169        3.1899  -15.4630  -41.9661 H         1 UNK         0.3000 
    170 H170       -0.1375  -14.4573  -42.0468 H         1 UNK         0.0600 
    171 H171        0.0224  -14.1380  -39.5910 H         1 UNK         0.0600 
    172 H172        1.2951  -15.3560  -39.5031 H         1 UNK         0.0600 
    173 H173       -0.3231  -15.8078  -40.0116 H         1 UNK         0.0600 
    174 H174        1.3414  -12.8301  -42.2774 H         1 UNK         0.3000 
    175 H175        2.8201  -11.2228  -41.3430 H         1 UNK         0.0600 
    176 H176        5.5415  -12.4324  -40.6084 H         1 UNK         0.0600 
    177 H177        4.4200  -11.6783  -39.4811 H         1 UNK         0.0600 
    178 H178        5.1659  -10.7159  -40.7469 H         1 UNK         0.0600 
    179 H179        5.0079  -12.3258  -42.9619 H         1 UNK         0.3000 
    180 H180        4.9823  -11.7260  -45.2345 H         1 UNK         0.0600 
    181 H181        3.0418  -14.0845  -45.5105 H         1 UNK         0.0600 
    182 H182        4.6271  -14.1350  -44.7470 H         1 UNK         0.0600 
    183 H183        4.4997  -13.8584  -46.4762 H         1 UNK         0.0600 
    184 H184        2.3102  -11.9366  -46.5635 H         1 UNK         0.3000 
    185 H185        2.6666   -8.8670  -48.1929 H         1 UNK         0.0600 
    186 H186        4.2970  -10.0360  -49.6779 H         1 UNK         0.0600 
    187 H187        3.3140  -11.4953  -49.6332 H         1 UNK         0.0600 
    188 H188        2.6911  -10.0285  -50.3894 H         1 UNK         0.0600 
    189 H189        1.0832  -11.2686  -48.6701 H         1 UNK         0.3000 
    190 H190       -2.4714  -21.8704  -45.9064 H         1 UNK         0.3000 
    191 H191       -4.8306  -23.4521  -46.1850 H         1 UNK         0.0600 
    192 H192       -4.6683  -21.6177  -44.5472 H         1 UNK         0.0600 
    193 H193       -5.0156  -23.1248  -43.7135 H         1 UNK         0.0600 
    194 H194       -3.3882  -22.4559  -43.6737 H         1 UNK         0.0600 
    195 H195       -1.6453  -24.1597  -44.6643 H         1 UNK         0.3000 
    196 H196       -2.2508  -26.7979  -43.8105 H         1 UNK         0.0600 
    197 H197        0.2345  -27.0004  -43.5963 H         1 UNK         0.0600 
    198 H198       -0.3527  -25.4913  -42.9141 H         1 UNK         0.0600 
    199 H199        0.4403  -25.4966  -44.4875 H         1 UNK         0.0600 
    200 H200       -0.8263  -25.5883  -46.8659 H         1 UNK         0.3000 
    201 H201       -0.4306  -28.1875  -48.0480 H         1 UNK         0.0600 
    202 H202        0.0588  -26.8311  -50.0861 H         1 UNK         0.0600 
    203 H203        0.8858  -26.1698  -48.6848 H         1 UNK         0.0600 
    204 H204       -0.5706  -25.3896  -49.2982 H         1 UNK         0.0600 
    205 H205       -3.2439  -26.2941  -47.6121 H         1 UNK         0.3000 
    206 H206       -5.3359  -26.3010  -48.2631 H         1 UNK         0.0600 
    207 H207       -5.2808  -28.8051  -48.0520 H         1 UNK         0.0600 
    208 H208       -6.4253  -28.2500  -49.2622 H         1 UNK         0.0600 
    209 H209       -4.8878  -28.9304  -49.7672 H         1 UNK         0.0600 
    210 H210       -3.0655  -25.2662  -49.9444 H         1 UNK         0.3000 
    211 H211       -4.0732  -25.0212  -52.6743 H         1 UNK         0.0600 
    212 H212       -1.6238  -25.0232  -52.1458 H         1 UNK         0.0600 
    213 H213       -2.1091  -23.5343  -52.9337 H         1 UNK         0.0600 
    214 H214       -1.8203  -23.5495  -51.1999 H         1 UNK         0.0600 
    215 H215       -4.5621  -23.4428  -49.6330 H         1 UNK         0.3000 
    216 H216       -5.4256  -20.8757  -50.2905 H         1 UNK         0.0600 
    217 H217       -6.4575  -22.8054  -48.1372 H         1 UNK         0.0600 
    218 H218       -6.7707  -21.0736  -48.1640 H         1 UNK         0.0600 
    219 H219       -5.1344  -21.6571  -47.9608 H         1 UNK         0.0600 
    220 H220       -7.1203  -23.9337  -50.8050 H         1 UNK         0.3000 
    221 H221       -9.7547  -22.9364  -51.2343 H         1 UNK         0.0600 
    222 H222       -8.3613  -25.4536  -52.2988 H         1 UNK         0.0600 
    223 H223       -9.2503  -25.3263  -50.7817 H         1 UNK         0.0600 
    224 H224      -10.0980  -25.1678  -52.3122 H         1 UNK         0.0600 
    225 H225       -6.9027  -23.0201  -53.3025 H         1 UNK         0.3000 
    226 H226       -8.4286  -22.0554  -55.6826 H         1 UNK         0.0600 
    227 H227       -6.9096  -24.0175  -56.0157 H         1 UNK         0.0600 
    228 H228       -6.3284  -22.6107  -56.8914 H         1 UNK         0.0600 
    229 H229       -5.5526  -23.0847  -55.3852 H         1 UNK         0.0600 
    230 H230       -6.8840  -20.8687  -52.9801 H         1 UNK         0.3000 
    231 H231       -5.7836  -19.0960  -52.2806 H         1 UNK         0.0600 
    232 H232       -6.8494  -17.6262  -54.7492 H         1 UNK         0.0600 
    233 H233       -6.2515  -16.8893  -53.2691 H         1 UNK         0.0600 
    234 H234       -7.7277  -17.8392  -53.2349 H         1 UNK         0.0600 
    235 H235       -4.3021  -21.0126  -53.6846 H         1 UNK         0.3000 
    236 H236       -2.2989  -19.5494  -55.3321 H         1 UNK         0.0600 
    237 H237       -2.8752  -22.5394  -54.9339 H         1 UNK         0.0600 
    238 H238       -3.3382  -21.5741  -56.3300 H         1 UNK         0.0600 
    239 H239       -1.6400  -21.8737  -55.9988 H         1 UNK         0.0600 
    240 H240       -0.0520  -19.8952  -54.9115 H         1 UNK         0.3000 
    241 H241        0.6288  -20.2037  -52.0554 H         1 UNK         0.0600 
    242 H242        0.3990  -22.4952  -54.4987 H         1 UNK         0.3800 
    243 H243        1.6788  -23.5367  -53.9357 H         1 UNK         0.3800 
    244 H244        2.8173  -19.2049  -52.6811 H         1 UNK         0.0800 
    245 H245        2.3502  -19.1965  -54.3582 H         1 UNK         0.0800 
    246 H246        1.7477  -18.1312  -50.8585 H         1 UNK         0.0800 
    247 H247        2.0653  -16.4421  -51.1527 H         1 UNK         0.0800 
@<TRIPOS>BOND
     1    1    2 1    
     2    1  127 1    
     3    1  128 1    
     4    1  129 1    
     5    2    3 2    
     6    2    4 am   BACKBONE|DICT|INTERRES
     7    4    5 1    
     8    4  130 1    
     9    5    6 1    
    10    5   65 1    
    11    5  131 1    
    12    6    7 1    
    13    6  132 1    
    14    6  133 1    
    15    7    8 1    
    16    8    9 1    
    17    8  134 1    
    18    8  135 1    
    19    9   10 ar   
    20    9   14 ar   
    21   10   11 ar   
    22   10  136 1    
    23   11   12 ar   
    24   11  126 1    
    25   12   13 ar   
    26   12  137 1    
    27   13   14 ar   
    28   13   15 1    
    29   14  138 1    
    30   15   16 1    
    31   15  139 1    
    32   15  140 1    
    33   16   17 1    
    34   17   18 1    
    35   17  141 1    
    36   17  142 1    
    37   18   19 1    
    38   18   67 1    
    39   18  143 1    
    40   19   20 am   BACKBONE|DICT|INTERRES
    41   19  144 1    
    42   20   21 2    
    43   20   22 1    
    44   22   23 1    
    45   22   24 1    
    46   22  145 1    
    47   23  146 1    
    48   23  147 1    
    49   23  148 1    
    50   24   25 am   BACKBONE|DICT|INTERRES
    51   24  149 1    
    52   25   26 2    
    53   25   27 1    
    54   27   28 1    
    55   27   29 1    
    56   27  150 1    
    57   28  151 1    
    58   28  152 1    
    59   28  153 1    
    60   29   30 am   BACKBONE|DICT|INTERRES
    61   29  154 1    
    62   30   31 2    
    63   30   32 1    
    64   32   33 1    
    65   32   34 1    
    66   32  155 1    
    67   33  156 1    
    68   33  157 1    
    69   33  158 1    
    70   34   35 am   BACKBONE|DICT|INTERRES
    71   34  159 1    
    72   35   36 2    
    73   35   37 1    
    74   37   38 1    
    75   37   39 1    
    76   37  160 1    
    77   38  161 1    
    78   38  162 1    
    79   38  163 1    
    80   39   40 am   BACKBONE|DICT|INTERRES
    81   39  164 1    
    82   40   41 2    
    83   40   42 1    
    84   42   43 1    
    85   42   44 1    
    86   42  165 1    
    87   43  166 1    
    88   43  167 1    
    89   43  168 1    
    90   44   45 am   BACKBONE|DICT|INTERRES
    91   44  169 1    
    92   45   46 2    
    93   45   47 1    
    94   47   48 1    
    95   47   49 1    
    96   47  170 1    
    97   48  171 1    
    98   48  172 1    
    99   48  173 1    
   100   49   50 am   BACKBONE|DICT|INTERRES
   101   49  174 1    
   102   50   51 2    
   103   50   52 1    
   104   52   53 1    
   105   52   54 1    
   106   52  175 1    
   107   53  176 1    
   108   53  177 1    
   109   53  178 1    
   110   54   55 am   BACKBONE|DICT|INTERRES
   111   54  179 1    
   112   55   56 2    
   113   55   57 1    
   114   57   58 1    
   115   57   59 1    
   116   57  180 1    
   117   58  181 1    
   118   58  182 1    
   119   58  183 1    
   120   59   60 am   BACKBONE|DICT|INTERRES
   121   59  184 1    
   122   60   61 2    
   123   60   62 1    
   124   62   63 1    
   125   62   64 1    
   126   62  185 1    
   127   63  186 1    
   128   63  187 1    
   129   63  188 1    
   130   64   65 am   BACKBONE|DICT|INTERRES
   131   64  189 1    
   132   65   66 2    
   133   67   68 2    
   134   67   69 am   BACKBONE|DICT|INTERRES
   135   69   70 1    
   136   69  190 1    
   137   70   71 1    
   138   70   72 1    
   139   70  191 1    
   140   71  192 1    
   141   71  193 1    
   142   71  194 1    
   143   72   73 2    
   144   72   74 am   BACKBONE|DICT|INTERRES
   145   74   75 1    
   146   74  195 1    
   147   75   76 1    
   148   75   77 1    
   149   75  196 1    
   150   76  197 1    
   151   76  198 1    
   152   76  199 1    
   153   77   78 2    
   154   77   79 am   BACKBONE|DICT|INTERRES
   155   79   80 1    
   156   79  200 1    
   157   80   81 1    
   158   80   82 1    
   159   80  201 1    
   160   81  202 1    
   161   81  203 1    
   162   81  204 1    
   163   82   83 2    
   164   82   84 am   BACKBONE|DICT|INTERRES
   165   84   85 1    
   166   84  205 1    
   167   85   86 1    
   168   85   87 1    
   169   85  206 1    
   170   86  207 1    
   171   86  208 1    
   172   86  209 1    
   173   87   88 2    
   174   87   89 am   BACKBONE|DICT|INTERRES
   175   89   90 1    
   176   89  210 1    
   177   90   91 1    
   178   90   92 1    
   179   90  211 1    
   180   91  212 1    
   181   91  213 1    
   182   91  214 1    
   183   92   93 2    
   184   92   94 am   BACKBONE|DICT|INTERRES
   185   94   95 1    
   186   94  215 1    
   187   95   96 1    
   188   95   97 1    
   189   95  216 1    
   190   96  217 1    
   191   96  218 1    
   192   96  219 1    
   193   97   98 2    
   194   97   99 am   BACKBONE|DICT|INTERRES
   195   99  100 1    
   196   99  220 1    
   197  100  101 1    
   198  100  102 1    
   199  100  221 1    
   200  101  222 1    
   201  101  223 1    
   202  101  224 1    
   203  102  103 2    
   204  102  104 am   BACKBONE|DICT|INTERRES
   205  104  105 1    
   206  104  225 1    
   207  105  106 1    
   208  105  107 1    
   209  105  226 1    
   210  106  227 1    
   211  106  228 1    
   212  106  229 1    
   213  107  108 2    
   214  107  109 am   BACKBONE|DICT|INTERRES
   215  109  110 1    
   216  109  230 1    
   217  110  111 1    
   218  110  112 1    
   219  110  231 1    
   220  111  232 1    
   221  111  233 1    
   222  111  234 1    
   223  112  113 2    
   224  112  114 am   BACKBONE|DICT|INTERRES
   225  114  115 1    
   226  114  235 1    
   227  115  116 1    
   228  115  117 1    
   229  115  236 1    
   230  116  237 1    
   231  116  238 1    
   232  116  239 1    
   233  117  118 2    
   234  117  119 am   BACKBONE|DICT|INTERRES
   235  119  120 1    
   236  119  240 1    
   237  120  121 1    
   238  120  124 1    
   239  120  241 1    
   240  121  122 am   BACKBONE|DICT|INTERRES
   241  121  123 2    
   242  122  242 1    
   243  122  243 1    
   244  124  125 1    
   245  124  244 1    
   246  124  245 1    
   247  125  126 1    
   248  126  246 1    
   249  126  247 1    
@<TRIPOS>SUBSTRUCTURE
     1 UNK         1 GROUP             0       ****    0 ROOT    
