@<TRIPOS>MOLECULE
3R540
247   249    1
SMALL
USER_CHARGES


@<TRIPOS>ATOM
      1 CA          5.6925  -17.8341  -49.5799 C.3       0 UNK        -0.1800 
      2 C           4.6000  -17.0976  -50.3417 C.2       0 UNK         0.5000 
      3 O           4.8829  -16.4566  -51.3531 O.2       0 UNK        -0.5000 
      4 N           3.3556  -17.1831  -49.8523 N.am      1 UNK        -0.5000 
      5 CA          2.1477  -16.5707  -50.4277 C.3       1 UNK         0.1400 
      6 C6          1.8617  -17.0371  -51.8843 C.3       23 UNK        -0.0398 
      7 S7          0.0834  -17.2705  -52.2282 S.3       23 UNK        -0.2404 
      8 C8         -0.1269  -19.0556  -51.9282 C.3       23 UNK        -0.0205 
      9 C9         -0.0869  -19.3871  -50.4458 C.ar      23 UNK        -0.0193 
     10 C10        -1.2163  -19.1745  -49.6524 C.ar      23 UNK        -0.1150 
     11 C11        -1.1772  -19.4396  -48.2827 C.ar      23 UNK        -0.0193 
     12 C12        -0.0004  -19.9276  -47.7111 C.ar      23 UNK        -0.1150 
     13 C13         1.1442  -20.1480  -48.4907 C.ar      23 UNK        -0.0193 
     14 C14         1.0821  -19.8830  -49.8621 C.ar      23 UNK        -0.1150 
     15 C15         2.4777  -20.6300  -47.9107 C.3       23 UNK        -0.0205 
     16 S16         2.5253  -20.8805  -46.1019 S.3       23 UNK        -0.2404 
     17 C17         2.2480  -22.6850  -45.9390 C.3       23 UNK        -0.0398 
     18 CA          0.7637  -23.1381  -45.8239 C.3       11 UNK         0.1400 
     19 N          -0.0018  -22.2453  -44.9458 N.am      11 UNK        -0.5000 
     20 C          -1.1284  -22.5164  -44.2775 C.2       10 UNK         0.5000 
     21 O          -1.7059  -23.6032  -44.3368 O.2       10 UNK        -0.5000 
     22 CA         -1.7012  -21.3668  -43.4229 C.3       10 UNK         0.1400 
     23 CB         -2.7184  -21.8395  -42.3654 C.3       10 UNK        -0.1800 
     24 N          -0.6647  -20.5265  -42.8167 N.am      10 UNK        -0.5000 
     25 C           0.2722  -20.8838  -41.9256 C.2       9 UNK         0.5000 
     26 O           0.4076  -22.0232  -41.4787 O.2       9 UNK        -0.5000 
     27 CA          1.2123  -19.7620  -41.4416 C.3       9 UNK         0.1400 
     28 CB          2.3839  -19.5785  -42.4182 C.3       9 UNK        -0.1800 
     29 N           0.5204  -18.4826  -41.2697 N.am      9 UNK        -0.5000 
     30 C          -0.4054  -18.2373  -40.3302 C.2       8 UNK         0.5000 
     31 O          -0.7141  -19.0374  -39.4463 O.2       8 UNK        -0.5000 
     32 CA         -1.1272  -16.8799  -40.4066 C.3       8 UNK         0.1400 
     33 CB         -0.3174  -15.7793  -39.7035 C.3       8 UNK        -0.1800 
     34 N          -1.3942  -16.4895  -41.7909 N.am      8 UNK        -0.5000 
     35 C          -2.3712  -17.0134  -42.5457 C.2       7 UNK         0.5000 
     36 O          -3.2007  -17.8211  -42.1276 O.2       7 UNK        -0.5000 
     37 CA         -2.4190  -16.5835  -44.0236 C.3       7 UNK         0.1400 
     38 CB         -3.3820  -15.4041  -44.2152 C.3       7 UNK        -0.1800 
     39 N          -1.0982  -16.2498  -44.5654 N.am      7 UNK        -0.5000 
     40 C          -0.1444  -17.1661  -44.7928 C.2       6 UNK         0.5000 
     41 O          -0.3005  -18.3682  -44.5842 O.2       6 UNK        -0.5000 
     42 CA          1.2249  -16.6721  -45.2863 C.3       6 UNK         0.1400 
     43 CB          1.2610  -16.5716  -46.8155 C.3       6 UNK        -0.1800 
     44 N           1.6323  -15.3933  -44.7106 N.am      6 UNK        -0.5000 
     45 C           1.8862  -15.1846  -43.4123 C.2       5 UNK         0.5000 
     46 O           1.7017  -16.0339  -42.5400 O.2       5 UNK        -0.5000 
     47 CA          2.4278  -13.7993  -43.0270 C.3       5 UNK         0.1400 
     48 CB          3.9365  -13.7208  -43.3071 C.3       5 UNK        -0.1800 
     49 N           1.7478  -12.7458  -43.7792 N.am      5 UNK        -0.5000 
     50 C           0.8530  -11.8937  -43.2631 C.2       4 UNK         0.5000 
     51 O           0.5596  -11.8471  -42.0677 O.2       4 UNK        -0.5000 
     52 CA          0.1499  -10.9336  -44.2465 C.3       4 UNK         0.1400 
     53 CB          0.8990   -9.5940  -44.3136 C.3       4 UNK        -0.1800 
     54 N          -0.0029  -11.4605  -45.6061 N.am      4 UNK        -0.5000 
     55 C          -0.6656  -12.5793  -45.9296 C.2       3 UNK         0.5000 
     56 O          -1.2147  -13.3128  -45.1095 O.2       3 UNK        -0.5000 
     57 CA         -0.6750  -12.9851  -47.4142 C.3       3 UNK         0.1400 
     58 CB         -1.8224  -12.2806  -48.1532 C.3       3 UNK        -0.1800 
     59 N           0.5755  -12.7805  -48.1579 N.am      3 UNK        -0.5000 
     60 C           1.8211  -13.0769  -47.7599 C.2       2 UNK         0.5000 
     61 O           2.1287  -13.4006  -46.6108 O.2       2 UNK        -0.5000 
     62 CA          2.8892  -13.1204  -48.8642 C.3       2 UNK         0.1400 
     63 CB          4.2781  -12.7183  -48.3394 C.3       2 UNK        -0.1800 
     64 N           2.9523  -14.4874  -49.3752 N.am      2 UNK        -0.5000 
     65 C           2.0822  -15.0339  -50.2373 C.2       1 UNK         0.5000 
     66 O           1.2241  -14.3744  -50.8255 O.2       1 UNK        -0.5000 
     67 C           0.0817  -23.4042  -47.1914 C.2       11 UNK         0.5000 
     68 O           0.7454  -23.3857  -48.2287 O.2       11 UNK        -0.5000 
     69 N          -1.2300  -23.6822  -47.1679 N.am      12 UNK        -0.5000 
     70 CA         -2.1276  -23.8731  -48.3136 C.3       12 UNK         0.1400 
     71 CB         -3.4946  -24.3423  -47.7907 C.3       12 UNK        -0.1800 
     72 C          -1.6210  -24.8536  -49.3854 C.2       12 UNK         0.5000 
     73 O          -1.8203  -24.6125  -50.5771 O.2       12 UNK        -0.5000 
     74 N          -0.9358  -25.9163  -48.9419 N.am      13 UNK        -0.5000 
     75 CA         -0.3258  -26.9605  -49.7677 C.3       13 UNK         0.1400 
     76 CB          0.2746  -28.0298  -48.8422 C.3       13 UNK        -0.1800 
     77 C           0.7352  -26.4593  -50.7700 C.2       13 UNK         0.5000 
     78 O           1.0231  -27.1701  -51.7333 O.2       13 UNK        -0.5000 
     79 N           1.2808  -25.2522  -50.5544 N.am      14 UNK        -0.5000 
     80 CA          2.2001  -24.5839  -51.4774 C.3       14 UNK         0.1400 
     81 CB          2.7992  -23.3500  -50.7874 C.3       14 UNK        -0.1800 
     82 C           1.5366  -24.1789  -52.8095 C.2       14 UNK         0.5000 
     83 O           2.2249  -24.1324  -53.8299 O.2       14 UNK        -0.5000 
     84 N           0.2259  -23.8992  -52.7775 N.am      15 UNK        -0.5000 
     85 CA         -0.5738  -23.5194  -53.9444 C.3       15 UNK         0.1400 
     86 CB         -1.1866  -22.1326  -53.6933 C.3       15 UNK        -0.1800 
     87 C          -1.6800  -24.5383  -54.2651 C.2       15 UNK         0.5000 
     88 O          -2.1832  -24.5338  -55.3886 O.2       15 UNK        -0.5000 
     89 N          -2.0829  -25.3510  -53.2763 N.am      16 UNK        -0.5000 
     90 CA         -3.1794  -26.3315  -53.2634 C.3       16 UNK         0.1400 
     91 CB         -3.0282  -27.3908  -54.3712 C.3       16 UNK        -0.1800 
     92 C          -4.5760  -25.6794  -53.2781 C.2       16 UNK         0.5000 
     93 O          -5.4353  -26.0634  -52.4849 O.2       16 UNK        -0.5000 
     94 N          -4.7582  -24.6668  -54.1343 N.am      17 UNK        -0.5000 
     95 CA         -5.9159  -23.7710  -54.1662 C.3       17 UNK         0.1400 
     96 CB         -5.9718  -23.0950  -55.5451 C.3       17 UNK        -0.1800 
     97 C          -5.8796  -22.7072  -53.0479 C.2       17 UNK         0.5000 
     98 O          -6.8838  -22.0287  -52.8289 O.2       17 UNK        -0.5000 
     99 N          -4.7203  -22.5602  -52.3830 N.am      18 UNK        -0.5000 
    100 CA        -4.4403  -21.6823  -51.2368 C.3       18 UNK         0.1400 
    101 CB        -5.3356  -22.0757  -50.0478 C.3       18 UNK        -0.1800 
    102 C         -4.5447  -20.1722  -51.5415 C.2       18 UNK         0.5000 
    103 O         -4.6078  -19.3698  -50.6079 O.2       18 UNK        -0.5000 
    104 N         -4.6123  -19.8121  -52.8343 N.am      19 UNK        -0.5000 
    105 CA        -4.7855  -18.4628  -53.3958 C.3       19 UNK         0.1400 
    106 CB        -3.4929  -17.6452  -53.2048 C.3       19 UNK        -0.1800 
    107 C         -6.0335  -17.7044  -52.8829 C.2       19 UNK         0.5000 
    108 O         -6.0860  -16.4782  -52.9864 O.2       19 UNK        -0.5000 
    109 N         -6.9940  -18.4431  -52.3032 N.am      20 UNK        -0.5000 
    110 CA        -8.1408  -17.9692  -51.5178 C.3       20 UNK         0.1400 
    111 CB        -9.1346  -17.1934  -52.4070 C.3       20 UNK        -0.1800 
    112 C         -7.7475  -17.1826  -50.2417 C.2       20 UNK         0.5000 
    113 O         -8.5962  -16.4979  -49.6682 O.2       20 UNK        -0.5000 
    114 N         -6.4829  -17.2952  -49.8096 N.am      21 UNK        -0.5000 
    115 CA        -5.9162  -16.5854  -48.6628 C.3       21 UNK         0.1400 
    116 CB        -4.4965  -16.1165  -49.0239 C.3       21 UNK        -0.1800 
    117 C         -5.9061  -17.4468  -47.3876 C.2       21 UNK         0.5000 
    118 O         -5.8957  -16.8897  -46.2896 O.2       21 UNK        -0.5000 
    119 N         -5.9219  -18.7761  -47.5412 N.am      22 UNK        -0.5000 
    120 CA        -5.9489  -19.7487  -46.4359 C.3       22 UNK         0.1400 
    121 C         -6.7665  -21.0336  -46.7531 C.2       22 UNK         0.5000 
    122 N         -7.6577  -21.0152  -47.7374 N.am      22 UNK        -0.7600 
    123 O         -6.6210  -22.0534  -46.0853 O.2       22 UNK        -0.5000 
    124 C124       -4.5441  -20.0107  -45.8264 C.3       23 UNK        -0.0398 
    125 S125       -3.3055  -20.6600  -47.0012 S.3       23 UNK        -0.2404 
    126 C126       -2.3838  -19.1511  -47.4058 C.3       23 UNK        -0.0205 
    127 H127        6.1433  -18.5963  -50.2154 H         1 UNK         0.0600 
    128 H128        6.4733  -17.1369  -49.2758 H         1 UNK         0.0600 
    129 H129        5.3065  -18.3225  -48.6848 H         1 UNK         0.0600 
    130 H130        3.1992  -17.7241  -49.0144 H         1 UNK         0.3000 
    131 H131        1.3429  -16.9510  -49.7978 H         1 UNK         0.0600 
    132 H132        2.3649  -17.9831  -52.0872 H         1 UNK         0.0800 
    133 H133        2.2742  -16.3339  -52.6098 H         1 UNK         0.0800 
    134 H134        0.6378  -19.6129  -52.4707 H         1 UNK         0.0800 
    135 H135       -1.0861  -19.3731  -52.3375 H         1 UNK         0.0800 
    136 H136       -2.1168  -18.7781  -50.0987 H         1 UNK         0.1150 
    137 H137        0.0115  -20.1040  -46.6478 H         1 UNK         0.1150 
    138 H138        1.9583  -20.0400  -50.4753 H         1 UNK         0.1150 
    139 H139        2.7779  -21.5488  -48.4137 H         1 UNK         0.0800 
    140 H140        3.2407  -19.8911  -48.1555 H         1 UNK         0.0800 
    141 H141        2.7579  -22.9775  -45.0203 H         1 UNK         0.0800 
    142 H142        2.7825  -23.2195  -46.7261 H         1 UNK         0.0800 
    143 H143        0.7816  -24.1154  -45.3371 H         1 UNK         0.0600 
    144 H144        0.3879  -21.3184  -44.8459 H         1 UNK         0.3000 
    145 H145       -2.2318  -20.7155  -44.1172 H         1 UNK         0.0600 
    146 H146       -3.1146  -20.9964  -41.7989 H         1 UNK         0.0600 
    147 H147       -3.5654  -22.3411  -42.8348 H         1 UNK         0.0600 
    148 H148       -2.2726  -22.5401  -41.6589 H         1 UNK         0.0600 
    149 H149       -0.6162  -19.5816  -43.1897 H         1 UNK         0.3000 
    150 H150        1.6192  -20.0603  -40.4732 H         1 UNK         0.0600 
    151 H151        2.9415  -20.5081  -42.5391 H         1 UNK         0.0600 
    152 H152        3.0825  -18.8221  -42.0598 H         1 UNK         0.0600 
    153 H153        2.0403  -19.2738  -43.4064 H         1 UNK         0.0600 
    154 H154        0.7649  -17.7390  -41.9147 H         1 UNK         0.3000 
    155 H155       -2.0807  -16.9782  -39.8830 H         1 UNK         0.0600 
    156 H156        0.6631  -15.6387  -40.1581 H         1 UNK         0.0600 
    157 H157       -0.1566  -16.0278  -38.6538 H         1 UNK         0.0600 
    158 H158       -0.8408  -14.8236  -39.7346 H         1 UNK         0.0600 
    159 H159       -0.7314  -15.8616  -42.2229 H         1 UNK         0.3000 
    160 H160       -2.8123  -17.4246  -44.5943 H         1 UNK         0.0600 
    161 H161       -3.4428  -15.1096  -45.2632 H         1 UNK         0.0600 
    162 H162       -3.0743  -14.5336  -43.6350 H         1 UNK         0.0600 
    163 H163       -4.3904  -15.6709  -43.8964 H         1 UNK         0.0600 
    164 H164       -0.9137  -15.2670  -44.7418 H         1 UNK         0.3000 
    165 H165        1.9666  -17.4151  -44.9862 H         1 UNK         0.0600 
    166 H166        2.2442  -16.2548  -47.1608 H         1 UNK         0.0600 
    167 H167        1.0554  -17.5347  -47.2750 H         1 UNK         0.0600 
    168 H168        0.5236  -15.8660  -47.1943 H         1 UNK         0.0600 
    169 H169        1.8170  -14.6432  -45.3728 H         1 UNK         0.3000 
    170 H170        2.2754  -13.6715  -41.9533 H         1 UNK         0.0600 
    171 H171        4.4751  -14.5030  -42.7706 H         1 UNK         0.0600 
    172 H172        4.1572  -13.8366  -44.3693 H         1 UNK         0.0600 
    173 H173        4.3455  -12.7635  -42.9839 H         1 UNK         0.0600 
    174 H174        1.8999  -12.7375  -44.7830 H         1 UNK         0.3000 
    175 H175       -0.8519  -10.7459  -43.8546 H         1 UNK         0.0600 
    176 H176        0.3616   -8.8707  -44.9271 H         1 UNK         0.0600 
    177 H177        1.0090   -9.1570  -43.3201 H         1 UNK         0.0600 
    178 H178        1.8991   -9.7143  -44.7321 H         1 UNK         0.0600 
    179 H179        0.4437  -10.9404  -46.3469 H         1 UNK         0.3000 
    180 H180       -0.8818  -14.0556  -47.4432 H         1 UNK         0.0600 
    181 H181       -1.6539  -11.2054  -48.2245 H         1 UNK         0.0600 
    182 H182       -2.7725  -12.4320  -47.6386 H         1 UNK         0.0600 
    183 H183       -1.9389  -12.6707  -49.1647 H         1 UNK         0.0600 
    184 H184        0.4532  -12.5694  -49.1388 H         1 UNK         0.3000 
    185 H185        2.6110  -12.4330  -49.6658 H         1 UNK         0.0600 
    186 H186        4.6299  -13.3907  -47.5557 H         1 UNK         0.0600 
    187 H187        5.0170  -12.7258  -49.1408 H         1 UNK         0.0600 
    188 H188        4.2594  -11.7104  -47.9229 H         1 UNK         0.0600 
    189 H189        3.6184  -15.0993  -48.9281 H         1 UNK         0.3000 
    190 H190       -1.6688  -23.7033  -46.2523 H         1 UNK         0.3000 
    191 H191       -2.2507  -22.9028  -48.7980 H         1 UNK         0.0600 
    192 H192       -3.3995  -25.2286  -47.1624 H         1 UNK         0.0600 
    193 H193       -4.1668  -24.6004  -48.6088 H         1 UNK         0.0600 
    194 H194       -3.9831  -23.5673  -47.2001 H         1 UNK         0.0600 
    195 H195       -0.8081  -26.0049  -47.9448 H         1 UNK         0.3000 
    196 H196       -1.1243  -27.4218  -50.3520 H         1 UNK         0.0600 
    197 H197        0.7110  -28.8471  -49.4181 H         1 UNK         0.0600 
    198 H198       -0.4863  -28.4634  -48.1929 H         1 UNK         0.0600 
    199 H199        1.0617  -27.6166  -48.2102 H         1 UNK         0.0600 
    200 H200        1.0010  -24.7211  -49.7348 H         1 UNK         0.3000 
    201 H201        3.0127  -25.2764  -51.7065 H         1 UNK         0.0600 
    202 H202        3.3071  -23.6218  -49.8619 H         1 UNK         0.0600 
    203 H203        2.0279  -22.6185  -50.5448 H         1 UNK         0.0600 
    204 H204        3.5300  -22.8566  -51.4292 H         1 UNK         0.0600 
    205 H205       -0.2610  -23.9724  -51.8923 H         1 UNK         0.3000 
    206 H206        0.0504  -23.4528  -54.8378 H         1 UNK         0.0600 
    207 H207       -0.4070  -21.3733  -53.6719 H         1 UNK         0.0600 
    208 H208       -1.8839  -21.8526  -54.4844 H         1 UNK         0.0600 
    209 H209       -1.7228  -22.0912  -52.7454 H         1 UNK         0.0600 
    210 H210       -1.6835  -25.1896  -52.3568 H         1 UNK         0.3000 
    211 H211       -3.0890  -26.8494  -52.3070 H         1 UNK         0.0600 
    212 H212       -3.1597  -26.9681  -55.3673 H         1 UNK         0.0600 
    213 H213       -3.7727  -28.1791  -54.2548 H         1 UNK         0.0600 
    214 H214       -2.0461  -27.8623  -54.3327 H         1 UNK         0.0600 
    215 H215       -3.9923  -24.4550  -54.7682 H         1 UNK         0.3000 
    216 H216       -6.8247  -24.3612  -54.0320 H         1 UNK         0.0600 
    217 H217       -6.8364  -22.4345  -55.6244 H         1 UNK         0.0600 
    218 H218       -6.0559  -23.8340  -56.3421 H         1 UNK         0.0600 
    219 H219       -5.0806  -22.4959  -55.7367 H         1 UNK         0.0600 
    220 H220       -3.9647  -23.1726  -52.6513 H         1 UNK         0.3000 
    221 H221       -3.4047  -21.8685  -50.9492 H         1 UNK         0.0600 
    222 H222       -6.3658  -21.7503  -50.1930 H         1 UNK         0.0600 
    223 H223       -5.3503  -23.1540  -49.9004 H         1 UNK         0.0600 
    224 H224       -4.9783  -21.6240  -49.1247 H         1 UNK         0.0600 
    225 H225       -4.5888  -20.5590  -53.5129 H         1 UNK         0.3000 
    226 H226       -4.9388  -18.5940  -54.4677 H         1 UNK         0.0600 
    227 H227       -2.6418  -18.1524  -53.6576 H         1 UNK         0.0600 
    228 H228       -3.5654  -16.6661  -53.6793 H         1 UNK         0.0600 
    229 H229       -3.2679  -17.4821  -52.1502 H         1 UNK         0.0600 
    230 H230       -6.8545  -19.4452  -52.2962 H         1 UNK         0.3000 
    231 H231       -8.6500  -18.8676  -51.1663 H         1 UNK         0.0600 
    232 H232       -9.3972  -17.7654  -53.2969 H         1 UNK         0.0600 
    233 H233       -8.7278  -16.2353  -52.7311 H         1 UNK         0.0600 
    234 H234      -10.0617  -16.9878  -51.8709 H         1 UNK         0.0600 
    235 H235       -5.8474  -17.9117  -50.3082 H         1 UNK         0.3000 
    236 H236       -6.5112  -15.6964  -48.4435 H         1 UNK         0.0600 
    237 H237       -3.9919  -15.6745  -48.1635 H         1 UNK         0.0600 
    238 H238       -3.8784  -16.9364  -49.3888 H         1 UNK         0.0600 
    239 H239       -4.5267  -15.3588  -49.8070 H         1 UNK         0.0600 
    240 H240       -5.8659  -19.1649  -48.4724 H         1 UNK         0.3000 
    241 H241       -6.5386  -19.2979  -45.6356 H         1 UNK         0.0600 
    242 H242       -8.1924  -21.8481  -47.9259 H         1 UNK         0.3800 
    243 H243       -7.8564  -20.1691  -48.2440 H         1 UNK         0.3800 
    244 H244       -4.1691  -19.0891  -45.3844 H         1 UNK         0.0800 
    245 H245       -4.6187  -20.7114  -44.9934 H         1 UNK         0.0800 
    246 H246       -3.0521  -18.4484  -47.8992 H         1 UNK         0.0800 
    247 H247       -2.0549  -18.6699  -46.4875 H         1 UNK         0.0800 
@<TRIPOS>BOND
     1    1    2 1    
     2    1  127 1    
     3    1  128 1    
     4    1  129 1    
     5    2    3 2    
     6    2    4 am   BACKBONE|DICT|INTERRES
     7    4    5 1    
     8    4  130 1    
     9    5    6 1    
    10    5   65 1    
    11    5  131 1    
    12    6    7 1    
    13    6  132 1    
    14    6  133 1    
    15    7    8 1    
    16    8    9 1    
    17    8  134 1    
    18    8  135 1    
    19    9   10 ar   
    20    9   14 ar   
    21   10   11 ar   
    22   10  136 1    
    23   11   12 ar   
    24   11  126 1    
    25   12   13 ar   
    26   12  137 1    
    27   13   14 ar   
    28   13   15 1    
    29   14  138 1    
    30   15   16 1    
    31   15  139 1    
    32   15  140 1    
    33   16   17 1    
    34   17   18 1    
    35   17  141 1    
    36   17  142 1    
    37   18   19 1    
    38   18   67 1    
    39   18  143 1    
    40   19   20 am   BACKBONE|DICT|INTERRES
    41   19  144 1    
    42   20   21 2    
    43   20   22 1    
    44   22   23 1    
    45   22   24 1    
    46   22  145 1    
    47   23  146 1    
    48   23  147 1    
    49   23  148 1    
    50   24   25 am   BACKBONE|DICT|INTERRES
    51   24  149 1    
    52   25   26 2    
    53   25   27 1    
    54   27   28 1    
    55   27   29 1    
    56   27  150 1    
    57   28  151 1    
    58   28  152 1    
    59   28  153 1    
    60   29   30 am   BACKBONE|DICT|INTERRES
    61   29  154 1    
    62   30   31 2    
    63   30   32 1    
    64   32   33 1    
    65   32   34 1    
    66   32  155 1    
    67   33  156 1    
    68   33  157 1    
    69   33  158 1    
    70   34   35 am   BACKBONE|DICT|INTERRES
    71   34  159 1    
    72   35   36 2    
    73   35   37 1    
    74   37   38 1    
    75   37   39 1    
    76   37  160 1    
    77   38  161 1    
    78   38  162 1    
    79   38  163 1    
    80   39   40 am   BACKBONE|DICT|INTERRES
    81   39  164 1    
    82   40   41 2    
    83   40   42 1    
    84   42   43 1    
    85   42   44 1    
    86   42  165 1    
    87   43  166 1    
    88   43  167 1    
    89   43  168 1    
    90   44   45 am   BACKBONE|DICT|INTERRES
    91   44  169 1    
    92   45   46 2    
    93   45   47 1    
    94   47   48 1    
    95   47   49 1    
    96   47  170 1    
    97   48  171 1    
    98   48  172 1    
    99   48  173 1    
   100   49   50 am   BACKBONE|DICT|INTERRES
   101   49  174 1    
   102   50   51 2    
   103   50   52 1    
   104   52   53 1    
   105   52   54 1    
   106   52  175 1    
   107   53  176 1    
   108   53  177 1    
   109   53  178 1    
   110   54   55 am   BACKBONE|DICT|INTERRES
   111   54  179 1    
   112   55   56 2    
   113   55   57 1    
   114   57   58 1    
   115   57   59 1    
   116   57  180 1    
   117   58  181 1    
   118   58  182 1    
   119   58  183 1    
   120   59   60 am   BACKBONE|DICT|INTERRES
   121   59  184 1    
   122   60   61 2    
   123   60   62 1    
   124   62   63 1    
   125   62   64 1    
   126   62  185 1    
   127   63  186 1    
   128   63  187 1    
   129   63  188 1    
   130   64   65 am   BACKBONE|DICT|INTERRES
   131   64  189 1    
   132   65   66 2    
   133   67   68 2    
   134   67   69 am   BACKBONE|DICT|INTERRES
   135   69   70 1    
   136   69  190 1    
   137   70   71 1    
   138   70   72 1    
   139   70  191 1    
   140   71  192 1    
   141   71  193 1    
   142   71  194 1    
   143   72   73 2    
   144   72   74 am   BACKBONE|DICT|INTERRES
   145   74   75 1    
   146   74  195 1    
   147   75   76 1    
   148   75   77 1    
   149   75  196 1    
   150   76  197 1    
   151   76  198 1    
   152   76  199 1    
   153   77   78 2    
   154   77   79 am   BACKBONE|DICT|INTERRES
   155   79   80 1    
   156   79  200 1    
   157   80   81 1    
   158   80   82 1    
   159   80  201 1    
   160   81  202 1    
   161   81  203 1    
   162   81  204 1    
   163   82   83 2    
   164   82   84 am   BACKBONE|DICT|INTERRES
   165   84   85 1    
   166   84  205 1    
   167   85   86 1    
   168   85   87 1    
   169   85  206 1    
   170   86  207 1    
   171   86  208 1    
   172   86  209 1    
   173   87   88 2    
   174   87   89 am   BACKBONE|DICT|INTERRES
   175   89   90 1    
   176   89  210 1    
   177   90   91 1    
   178   90   92 1    
   179   90  211 1    
   180   91  212 1    
   181   91  213 1    
   182   91  214 1    
   183   92   93 2    
   184   92   94 am   BACKBONE|DICT|INTERRES
   185   94   95 1    
   186   94  215 1    
   187   95   96 1    
   188   95   97 1    
   189   95  216 1    
   190   96  217 1    
   191   96  218 1    
   192   96  219 1    
   193   97   98 2    
   194   97   99 am   BACKBONE|DICT|INTERRES
   195   99  100 1    
   196   99  220 1    
   197  100  101 1    
   198  100  102 1    
   199  100  221 1    
   200  101  222 1    
   201  101  223 1    
   202  101  224 1    
   203  102  103 2    
   204  102  104 am   BACKBONE|DICT|INTERRES
   205  104  105 1    
   206  104  225 1    
   207  105  106 1    
   208  105  107 1    
   209  105  226 1    
   210  106  227 1    
   211  106  228 1    
   212  106  229 1    
   213  107  108 2    
   214  107  109 am   BACKBONE|DICT|INTERRES
   215  109  110 1    
   216  109  230 1    
   217  110  111 1    
   218  110  112 1    
   219  110  231 1    
   220  111  232 1    
   221  111  233 1    
   222  111  234 1    
   223  112  113 2    
   224  112  114 am   BACKBONE|DICT|INTERRES
   225  114  115 1    
   226  114  235 1    
   227  115  116 1    
   228  115  117 1    
   229  115  236 1    
   230  116  237 1    
   231  116  238 1    
   232  116  239 1    
   233  117  118 2    
   234  117  119 am   BACKBONE|DICT|INTERRES
   235  119  120 1    
   236  119  240 1    
   237  120  121 1    
   238  120  124 1    
   239  120  241 1    
   240  121  122 am   BACKBONE|DICT|INTERRES
   241  121  123 2    
   242  122  242 1    
   243  122  243 1    
   244  124  125 1    
   245  124  244 1    
   246  124  245 1    
   247  125  126 1    
   248  126  246 1    
   249  126  247 1    
@<TRIPOS>SUBSTRUCTURE
     1 UNK         1 GROUP             0       ****    0 ROOT    
