@<TRIPOS>MOLECULE
3R540
247   249    1
SMALL
USER_CHARGES


@<TRIPOS>ATOM
      1 CA          2.5137   -9.2825  -46.7948 C.3       0 UNK        -0.1800 
      2 C           1.9832  -10.4388  -45.9611 C.2       0 UNK         0.5000 
      3 O           2.3962  -10.6042  -44.8144 O.2       0 UNK        -0.5000 
      4 N           1.0556  -11.2253  -46.5225 N.am      1 UNK        -0.5000 
      5 CA          0.4529  -12.4332  -45.9337 C.3       1 UNK         0.1400 
      6 C6         -0.5139  -13.1159  -46.9321 C.3       23 UNK        -0.0398 
      7 S7          0.3568  -13.7264  -48.4171 S.3       23 UNK        -0.2404 
      8 C8         -0.2892  -15.4220  -48.5206 C.3       23 UNK        -0.0205 
      9 C9          0.5619  -16.2961  -49.4259 C.ar      23 UNK        -0.0193 
     10 C10         0.1477  -16.5907  -50.7290 C.ar      23 UNK        -0.1150 
     11 C11         0.9184  -17.4287  -51.5412 C.ar      23 UNK        -0.0193 
     12 C12         2.1189  -17.9477  -51.0529 C.ar      23 UNK        -0.1150 
     13 C13         2.5180  -17.6986  -49.7383 C.ar      23 UNK        -0.0193 
     14 C14         1.7449  -16.8565  -48.9351 C.ar      23 UNK        -0.1150 
     15 C15         3.7373  -18.4046  -49.1595 C.3       23 UNK        -0.0205 
     16 S16         3.6368  -20.2291  -49.2799 S.3       23 UNK        -0.2404 
     17 C17         1.8542  -20.5622  -49.0341 C.3       23 UNK        -0.0398 
     18 CA          1.5788  -21.9544  -48.4253 C.3       11 UNK         0.1400 
     19 N           2.0414  -22.0265  -47.0350 N.am      11 UNK        -0.5000 
     20 C           2.3417  -23.1498  -46.3730 C.2       10 UNK         0.5000 
     21 O           2.3082  -24.2721  -46.8782 O.2       10 UNK        -0.5000 
     22 CA          2.7014  -22.9934  -44.8828 C.3       10 UNK         0.1400 
     23 CB          4.1743  -22.5891  -44.7192 C.3       10 UNK        -0.1800 
     24 N           1.8460  -22.0331  -44.1769 N.am      10 UNK        -0.5000 
     25 C           0.5263  -22.1828  -43.9867 C.2       9 UNK         0.5000 
     26 O          -0.1168  -23.1486  -44.3971 O.2       9 UNK        -0.5000 
     27 CA         -0.2108  -21.0521  -43.2454 C.3       9 UNK         0.1400 
     28 CB          0.0319  -21.1371  -41.7311 C.3       9 UNK        -0.1800 
     29 N           0.1628  -19.7256  -43.7319 N.am      9 UNK        -0.5000 
     30 C          -0.1098  -19.2636  -44.9599 C.2       8 UNK         0.5000 
     31 O          -0.7714  -19.8836  -45.7921 O.2       8 UNK        -0.5000 
     32 CA          0.5022  -17.9038  -45.3442 C.3       8 UNK         0.1400 
     33 CB         -0.3493  -16.7418  -44.8118 C.3       8 UNK        -0.1800 
     34 N           1.8808  -17.7490  -44.8788 N.am      8 UNK        -0.5000 
     35 C           2.8962  -18.5546  -45.2210 C.2       7 UNK         0.5000 
     36 O           2.7884  -19.4962  -46.0027 O.2       7 UNK        -0.5000 
     37 CA          4.2425  -18.3039  -44.5258 C.3       7 UNK         0.1400 
     38 CB          4.9963  -17.1409  -45.1876 C.3       7 UNK        -0.1800 
     39 N           4.0607  -18.0403  -43.0988 N.am      7 UNK        -0.5000 
     40 C           3.6773  -18.9672  -42.2085 C.2       6 UNK         0.5000 
     41 O           3.4867  -20.1499  -42.4924 O.2       6 UNK        -0.5000 
     42 CA          3.4209  -18.4801  -40.7707 C.3       6 UNK         0.1400 
     43 CB          4.7359  -18.3986  -39.9816 C.3       6 UNK        -0.1800 
     44 N           2.7486  -17.1804  -40.7328 N.am      6 UNK        -0.5000 
     45 C           1.4927  -16.9673  -41.1510 C.2       5 UNK         0.5000 
     46 O           0.7535  -17.8585  -41.5666 O.2       5 UNK        -0.5000 
     47 CA          0.9951  -15.5099  -41.1455 C.3       5 UNK         0.1400 
     48 CB          0.3489  -15.1601  -39.7975 C.3       5 UNK        -0.1800 
     49 N           2.0442  -14.5338  -41.4434 N.am      5 UNK        -0.5000 
     50 C           2.7290  -14.4595  -42.5915 C.2       4 UNK         0.5000 
     51 O           2.5885  -15.2614  -43.5169 O.2       4 UNK        -0.5000 
     52 CA          3.7335  -13.2955  -42.7104 C.3       4 UNK         0.1400 
     53 CB          4.4351  -13.2539  -44.0794 C.3       4 UNK        -0.1800 
     54 N           3.0874  -12.0048  -42.4788 N.am      4 UNK        -0.5000 
     55 C           2.8000  -11.4689  -41.2856 C.2       3 UNK         0.5000 
     56 O           3.0471  -12.0224  -40.2134 O.2       3 UNK        -0.5000 
     57 CA          2.0780  -10.1133  -41.2999 C.3       3 UNK         0.1400 
     58 CB          3.0443   -8.9811  -41.6829 C.3       3 UNK        -0.1800 
     59 N           0.9631  -10.1421  -42.2446 N.am      3 UNK        -0.5000 
     60 C          -0.3005  -10.4496  -41.9212 C.2       2 UNK         0.5000 
     61 O          -0.6787  -10.6709  -40.7703 O.2       2 UNK        -0.5000 
     62 CA         -1.3186  -10.5270  -43.0769 C.3       2 UNK         0.1400 
     63 CB         -2.0034   -9.1673  -43.2827 C.3       2 UNK        -0.1800 
     64 N          -0.7188  -10.9555  -44.3415 N.am      2 UNK        -0.5000 
     65 C          -0.2610  -12.1921  -44.5841 C.2       1 UNK         0.5000 
     66 O          -0.3720  -13.1238  -43.7877 O.2       1 UNK        -0.5000 
     67 C           0.0822  -22.3148  -48.5793 C.2       11 UNK         0.5000 
     68 O          -0.3973  -22.4071  -49.7121 O.2       11 UNK        -0.5000 
     69 N          -0.6296  -22.4958  -47.4558 N.am      12 UNK        -0.5000 
     70 CA         -2.0537  -22.8145  -47.3434 C.3       12 UNK         0.1400 
     71 CB         -2.3148  -24.2688  -47.7789 C.3       12 UNK        -0.1800 
     72 C          -2.9461  -21.7788  -48.0557 C.2       12 UNK         0.5000 
     73 O          -3.8246  -22.1342  -48.8433 O.2       12 UNK        -0.5000 
     74 N          -2.6954  -20.4975  -47.7567 N.am      13 UNK        -0.5000 
     75 CA         -3.3888  -19.3323  -48.3139 C.3       13 UNK         0.1400 
     76 CB         -2.6321  -18.0650  -47.8945 C.3       13 UNK        -0.1800 
     77 C          -4.8790  -19.2335  -47.9245 C.2       13 UNK         0.5000 
     78 O          -5.6197  -18.4753  -48.5499 O.2       13 UNK        -0.5000 
     79 N          -5.2917  -19.9966  -46.9036 N.am      14 UNK        -0.5000 
     80 CA         -6.6763  -20.1267  -46.4526 C.3       14 UNK         0.1400 
     81 CB         -6.6773  -20.7349  -45.0413 C.3       14 UNK        -0.1800 
     82 C          -7.5572  -20.9663  -47.4014 C.2       14 UNK         0.5000 
     83 O          -8.7820  -20.8479  -47.3354 O.2       14 UNK        -0.5000 
     84 N          -6.9421  -21.8054  -48.2492 N.am      15 UNK        -0.5000 
     85 CA         -7.6367  -22.6125  -49.2536 C.3       15 UNK         0.1400 
     86 CB         -6.6838  -23.7024  -49.7690 C.3       15 UNK        -0.1800 
     87 C          -8.1400  -21.7475  -50.4237 C.2       15 UNK         0.5000 
     88 O          -7.5510  -20.7053  -50.7199 O.2       15 UNK        -0.5000 
     89 N          -9.1805  -22.2229  -51.1163 N.am      16 UNK        -0.5000 
     90 CA         -9.8004  -21.5663  -52.2729 C.3       16 UNK         0.1400 
     91 CB        -11.2745  -22.0052  -52.3509 C.3       16 UNK        -0.1800 
     92 C          -9.0371  -21.8156  -53.5960 C.2       16 UNK         0.5000 
     93 O          -9.6662  -22.0208  -54.6361 O.2       16 UNK        -0.5000 
     94 N          -7.6980  -21.7963  -53.5316 N.am      17 UNK        -0.5000 
     95 CA         -6.7424  -22.0603  -54.6109 C.3       17 UNK         0.1400 
     96 CB         -6.7423  -20.8938  -55.6242 C.3       17 UNK        -0.1800 
     97 C          -6.9472  -23.4574  -55.2417 C.2       17 UNK         0.5000 
     98 O          -7.1212  -24.4286  -54.5013 O.2       17 UNK        -0.5000 
     99 N          -6.9141  -23.5371  -56.5814 N.am      18 UNK        -0.5000 
    100 CA        -7.1291  -24.6995  -57.4591 C.3       18 UNK         0.1400 
    101 CB        -8.5375  -25.2937  -57.2657 C.3       18 UNK        -0.1800 
    102 C         -6.0464  -25.7949  -57.3731 C.2       18 UNK         0.5000 
    103 O         -5.5901  -26.2783  -58.4106 O.2       18 UNK        -0.5000 
    104 N         -5.6512  -26.1591  -56.1509 N.am      19 UNK        -0.5000 
    105 CA        -4.5518  -27.0661  -55.8335 C.3       19 UNK         0.1400 
    106 CB        -4.8553  -27.7127  -54.4678 C.3       19 UNK        -0.1800 
    107 C         -3.1980  -26.3220  -55.8343 C.2       19 UNK         0.5000 
    108 O         -3.1058  -25.1849  -56.3033 O.2       19 UNK        -0.5000 
    109 N         -2.1624  -26.9702  -55.2825 N.am      20 UNK        -0.5000 
    110 CA        -0.8495  -26.3672  -55.0230 C.3       20 UNK         0.1400 
    111 CB         0.1530  -27.4810  -54.6826 C.3       20 UNK        -0.1800 
    112 C         -0.8842  -25.3066  -53.9002 C.2       20 UNK         0.5000 
    113 O         -0.0045  -24.4464  -53.8489 O.2       20 UNK        -0.5000 
    114 N         -1.9002  -25.3891  -53.0300 N.am      21 UNK        -0.5000 
    115 CA        -2.2367  -24.4031  -52.0062 C.3       21 UNK         0.1400 
    116 CB        -3.3740  -24.9809  -51.1495 C.3       21 UNK        -0.1800 
    117 C         -2.6784  -23.0676  -52.6328 C.2       21 UNK         0.5000 
    118 O         -3.4192  -23.0816  -53.6184 O.2       21 UNK        -0.5000 
    119 N         -2.2460  -21.9465  -52.0447 N.am      22 UNK        -0.5000 
    120 CA        -2.6331  -20.5960  -52.4931 C.3       22 UNK         0.1400 
    121 C         -4.1011  -20.1997  -52.1631 C.2       22 UNK         0.5000 
    122 N         -4.7671  -20.8385  -51.2116 N.am      22 UNK        -0.7600 
    123 O         -4.6485  -19.3033  -52.7981 O.2       22 UNK        -0.5000 
    124 C124       -1.6332  -19.5157  -52.0086 C.3       23 UNK        -0.0398 
    125 S125       -0.0752  -19.5799  -52.9559 S.3       23 UNK        -0.2404 
    126 C126        0.4421  -17.8309  -52.9271 C.3       23 UNK        -0.0205 
    127 H127        2.0522   -9.2485  -47.7819 H         1 UNK         0.0600 
    128 H128        3.5913   -9.3804  -46.9253 H         1 UNK         0.0600 
    129 H129        2.3146   -8.3363  -46.2918 H         1 UNK         0.0600 
    130 H130        0.7690  -11.0310  -47.4716 H         1 UNK         0.3000 
    131 H131        1.2701  -13.1268  -45.7229 H         1 UNK         0.0600 
    132 H132       -1.0318  -13.9489  -46.4533 H         1 UNK         0.0800 
    133 H133       -1.2944  -12.4216  -47.2483 H         1 UNK         0.0800 
    134 H134       -1.3208  -15.3897  -48.8741 H         1 UNK         0.0800 
    135 H135       -0.3177  -15.8678  -47.5278 H         1 UNK         0.0800 
    136 H136       -0.7830  -16.1866  -51.1015 H         1 UNK         0.1150 
    137 H137        2.7049  -18.6121  -51.6727 H         1 UNK         0.1150 
    138 H138        2.0485  -16.6554  -47.9171 H         1 UNK         0.1150 
    139 H139        4.6321  -18.0617  -49.6800 H         1 UNK         0.0800 
    140 H140        3.8704  -18.1366  -48.1117 H         1 UNK         0.0800 
    141 H141        1.4149  -19.7900  -48.4002 H         1 UNK         0.0800 
    142 H142        1.3780  -20.4649  -50.0118 H         1 UNK         0.0800 
    143 H143        2.1307  -22.6931  -49.0102 H         1 UNK         0.0600 
    144 H144        2.1713  -21.1328  -46.5632 H         1 UNK         0.3000 
    145 H145        2.5649  -23.9670  -44.4076 H         1 UNK         0.0600 
    146 H146        4.4591  -22.5528  -43.6676 H         1 UNK         0.0600 
    147 H147        4.3735  -21.6096  -45.1541 H         1 UNK         0.0600 
    148 H148        4.8332  -23.3063  -45.2103 H         1 UNK         0.0600 
    149 H149        2.3089  -21.2209  -43.7822 H         1 UNK         0.3000 
    150 H150       -1.2806  -21.1827  -43.4218 H         1 UNK         0.0600 
    151 H151       -0.2539  -22.1157  -41.3435 H         1 UNK         0.0600 
    152 H152       -0.5563  -20.3910  -41.1966 H         1 UNK         0.0600 
    153 H153        1.0804  -20.9768  -41.4794 H         1 UNK         0.0600 
    154 H154        0.6529  -19.1214  -43.0794 H         1 UNK         0.3000 
    155 H155        0.5169  -17.8514  -46.4335 H         1 UNK         0.0600 
    156 H156       -1.3482  -16.7538  -45.2465 H         1 UNK         0.0600 
    157 H157        0.1005  -15.7779  -45.0506 H         1 UNK         0.0600 
    158 H158       -0.4675  -16.7924  -43.7304 H         1 UNK         0.0600 
    159 H159        2.0707  -16.9668  -44.2580 H         1 UNK         0.3000 
    160 H160        4.8523  -19.2037  -44.6305 H         1 UNK         0.0600 
    161 H161        4.3967  -16.2315  -45.2153 H         1 UNK         0.0600 
    162 H162        5.2580  -17.3870  -46.2170 H         1 UNK         0.0600 
    163 H163        5.9249  -16.9184  -44.6620 H         1 UNK         0.0600 
    164 H164        4.1333  -17.0787  -42.8015 H         1 UNK         0.3000 
    165 H165        2.7742  -19.2121  -40.2819 H         1 UNK         0.0600 
    166 H166        4.5550  -18.1275  -38.9413 H         1 UNK         0.0600 
    167 H167        5.2499  -19.3608  -39.9808 H         1 UNK         0.0600 
    168 H168        5.4185  -17.6620  -40.4072 H         1 UNK         0.0600 
    169 H169        3.2862  -16.3926  -40.4027 H         1 UNK         0.3000 
    170 H170        0.2328  -15.4166  -41.9210 H         1 UNK         0.0600 
    171 H171        1.0720  -15.1985  -38.9819 H         1 UNK         0.0600 
    172 H172       -0.0830  -14.1590  -39.8169 H         1 UNK         0.0600 
    173 H173       -0.4560  -15.8563  -39.5578 H         1 UNK         0.0600 
    174 H174        2.2246  -13.8220  -40.7439 H         1 UNK         0.3000 
    175 H175        4.5007  -13.4479  -41.9487 H         1 UNK         0.0600 
    176 H176        3.7193  -13.1688  -44.8980 H         1 UNK         0.0600 
    177 H177        5.1194  -12.4080  -44.1464 H         1 UNK         0.0600 
    178 H178        5.0229  -14.1567  -44.2443 H         1 UNK         0.0600 
    179 H179        2.8270  -11.4876  -43.3166 H         1 UNK         0.3000 
    180 H180        1.7109   -9.9133  -40.2909 H         1 UNK         0.0600 
    181 H181        2.5459   -8.0122  -41.6479 H         1 UNK         0.0600 
    182 H182        3.4484   -9.1118  -42.6875 H         1 UNK         0.0600 
    183 H183        3.8875   -8.9383  -40.9925 H         1 UNK         0.0600 
    184 H184        1.2044  -10.0402  -43.2233 H         1 UNK         0.3000 
    185 H185       -2.0829  -11.2552  -42.7966 H         1 UNK         0.0600 
    186 H186       -1.2905   -8.3984  -43.5831 H         1 UNK         0.0600 
    187 H187       -2.7770   -9.2268  -44.0484 H         1 UNK         0.0600 
    188 H188       -2.4832   -8.8289  -42.3633 H         1 UNK         0.0600 
    189 H189       -0.5910  -10.2481  -45.0503 H         1 UNK         0.3000 
    190 H190       -0.1473  -22.3782  -46.5745 H         1 UNK         0.3000 
    191 H191       -2.3034  -22.7425  -46.2840 H         1 UNK         0.0600 
    192 H192       -3.3769  -24.5137  -47.7397 H         1 UNK         0.0600 
    193 H193       -1.7973  -24.9675  -47.1216 H         1 UNK         0.0600 
    194 H194       -1.9651  -24.4544  -48.7928 H         1 UNK         0.0600 
    195 H195       -1.9561  -20.2987  -47.0832 H         1 UNK         0.3000 
    196 H196       -3.3400  -19.4036  -49.3995 H         1 UNK         0.0600 
    197 H197       -3.0681  -17.1778  -48.3550 H         1 UNK         0.0600 
    198 H198       -1.5868  -18.1135  -48.2001 H         1 UNK         0.0600 
    199 H199       -2.6629  -17.9256  -46.8142 H         1 UNK         0.0600 
    200 H200       -4.6065  -20.5732  -46.4393 H         1 UNK         0.3000 
    201 H201       -7.1153  -19.1284  -46.3949 H         1 UNK         0.0600 
    202 H202       -6.1141  -20.1148  -44.3435 H         1 UNK         0.0600 
    203 H203       -6.2397  -21.7339  -45.0334 H         1 UNK         0.0600 
    204 H204       -7.6930  -20.8184  -44.6521 H         1 UNK         0.0600 
    205 H205       -5.9304  -21.8189  -48.2815 H         1 UNK         0.3000 
    206 H206       -8.4932  -23.0950  -48.7780 H         1 UNK         0.0600 
    207 H207       -6.2744  -24.2941  -48.9501 H         1 UNK         0.0600 
    208 H208       -7.1998  -24.3890  -50.4411 H         1 UNK         0.0600 
    209 H209       -5.8486  -23.2757  -50.3232 H         1 UNK         0.0600 
    210 H210       -9.5778  -23.1122  -50.8493 H         1 UNK         0.3000 
    211 H211       -9.7905  -20.4869  -52.1075 H         1 UNK         0.0600 
    212 H212      -11.3652  -23.0738  -52.5493 H         1 UNK         0.0600 
    213 H213      -11.8019  -21.4761  -53.1457 H         1 UNK         0.0600 
    214 H214      -11.8000  -21.7901  -51.4202 H         1 UNK         0.0600 
    215 H215       -7.2882  -21.5966  -52.6281 H         1 UNK         0.3000 
    216 H216       -5.7608  -22.0823  -54.1391 H         1 UNK         0.0600 
    217 H217       -5.9326  -20.9957  -56.3475 H         1 UNK         0.0600 
    218 H218       -6.5908  -19.9413  -55.1157 H         1 UNK         0.0600 
    219 H219       -7.6817  -20.8283  -56.1745 H         1 UNK         0.0600 
    220 H220       -6.7315  -22.6753  -57.0760 H         1 UNK         0.3000 
    221 H221       -7.0847  -24.3043  -58.4752 H         1 UNK         0.0600 
    222 H222       -8.6651  -25.7294  -56.2744 H         1 UNK         0.0600 
    223 H223       -9.3073  -24.5334  -57.3984 H         1 UNK         0.0600 
    224 H224       -8.7296  -26.0825  -57.9940 H         1 UNK         0.0600 
    225 H225       -6.0795  -25.6694  -55.3691 H         1 UNK         0.3000 
    226 H226       -4.5025  -27.8527  -56.5891 H         1 UNK         0.0600 
    227 H227       -5.8392  -28.1827  -54.4684 H         1 UNK         0.0600 
    228 H228       -4.1352  -28.4927  -54.2195 H         1 UNK         0.0600 
    229 H229       -4.8422  -26.9766  -53.6629 H         1 UNK         0.0600 
    230 H230       -2.2985  -27.9116  -54.9431 H         1 UNK         0.3000 
    231 H231       -0.5123  -25.8702  -55.9351 H         1 UNK         0.0600 
    232 H232        1.1490  -27.0704  -54.5114 H         1 UNK         0.0600 
    233 H233        0.2356  -28.2006  -55.4974 H         1 UNK         0.0600 
    234 H234       -0.1376  -28.0231  -53.7819 H         1 UNK         0.0600 
    235 H235       -2.5769  -26.1213  -53.1755 H         1 UNK         0.3000 
    236 H236       -1.3582  -24.2404  -51.3796 H         1 UNK         0.0600 
    237 H237       -4.2573  -25.2048  -51.7492 H         1 UNK         0.0600 
    238 H238       -3.0666  -25.8974  -50.6457 H         1 UNK         0.0600 
    239 H239       -3.6803  -24.2734  -50.3809 H         1 UNK         0.0600 
    240 H240       -1.6351  -22.0098  -51.2354 H         1 UNK         0.3000 
    241 H241       -2.5939  -20.5994  -53.5847 H         1 UNK         0.0600 
    242 H242       -5.7283  -20.5718  -51.0178 H         1 UNK         0.3800 
    243 H243       -4.3104  -21.5179  -50.6126 H         1 UNK         0.3800 
    244 H244       -1.4120  -19.6341  -50.9465 H         1 UNK         0.0800 
    245 H245       -2.0555  -18.5158  -52.1234 H         1 UNK         0.0800 
    246 H246        1.2556  -17.6905  -53.6402 H         1 UNK         0.0800 
    247 H247       -0.3759  -17.1929  -53.2654 H         1 UNK         0.0800 
@<TRIPOS>BOND
     1    1    2 1    
     2    1  127 1    
     3    1  128 1    
     4    1  129 1    
     5    2    3 2    
     6    2    4 am   BACKBONE|DICT|INTERRES
     7    4    5 1    
     8    4  130 1    
     9    5    6 1    
    10    5   65 1    
    11    5  131 1    
    12    6    7 1    
    13    6  132 1    
    14    6  133 1    
    15    7    8 1    
    16    8    9 1    
    17    8  134 1    
    18    8  135 1    
    19    9   10 ar   
    20    9   14 ar   
    21   10   11 ar   
    22   10  136 1    
    23   11   12 ar   
    24   11  126 1    
    25   12   13 ar   
    26   12  137 1    
    27   13   14 ar   
    28   13   15 1    
    29   14  138 1    
    30   15   16 1    
    31   15  139 1    
    32   15  140 1    
    33   16   17 1    
    34   17   18 1    
    35   17  141 1    
    36   17  142 1    
    37   18   19 1    
    38   18   67 1    
    39   18  143 1    
    40   19   20 am   BACKBONE|DICT|INTERRES
    41   19  144 1    
    42   20   21 2    
    43   20   22 1    
    44   22   23 1    
    45   22   24 1    
    46   22  145 1    
    47   23  146 1    
    48   23  147 1    
    49   23  148 1    
    50   24   25 am   BACKBONE|DICT|INTERRES
    51   24  149 1    
    52   25   26 2    
    53   25   27 1    
    54   27   28 1    
    55   27   29 1    
    56   27  150 1    
    57   28  151 1    
    58   28  152 1    
    59   28  153 1    
    60   29   30 am   BACKBONE|DICT|INTERRES
    61   29  154 1    
    62   30   31 2    
    63   30   32 1    
    64   32   33 1    
    65   32   34 1    
    66   32  155 1    
    67   33  156 1    
    68   33  157 1    
    69   33  158 1    
    70   34   35 am   BACKBONE|DICT|INTERRES
    71   34  159 1    
    72   35   36 2    
    73   35   37 1    
    74   37   38 1    
    75   37   39 1    
    76   37  160 1    
    77   38  161 1    
    78   38  162 1    
    79   38  163 1    
    80   39   40 am   BACKBONE|DICT|INTERRES
    81   39  164 1    
    82   40   41 2    
    83   40   42 1    
    84   42   43 1    
    85   42   44 1    
    86   42  165 1    
    87   43  166 1    
    88   43  167 1    
    89   43  168 1    
    90   44   45 am   BACKBONE|DICT|INTERRES
    91   44  169 1    
    92   45   46 2    
    93   45   47 1    
    94   47   48 1    
    95   47   49 1    
    96   47  170 1    
    97   48  171 1    
    98   48  172 1    
    99   48  173 1    
   100   49   50 am   BACKBONE|DICT|INTERRES
   101   49  174 1    
   102   50   51 2    
   103   50   52 1    
   104   52   53 1    
   105   52   54 1    
   106   52  175 1    
   107   53  176 1    
   108   53  177 1    
   109   53  178 1    
   110   54   55 am   BACKBONE|DICT|INTERRES
   111   54  179 1    
   112   55   56 2    
   113   55   57 1    
   114   57   58 1    
   115   57   59 1    
   116   57  180 1    
   117   58  181 1    
   118   58  182 1    
   119   58  183 1    
   120   59   60 am   BACKBONE|DICT|INTERRES
   121   59  184 1    
   122   60   61 2    
   123   60   62 1    
   124   62   63 1    
   125   62   64 1    
   126   62  185 1    
   127   63  186 1    
   128   63  187 1    
   129   63  188 1    
   130   64   65 am   BACKBONE|DICT|INTERRES
   131   64  189 1    
   132   65   66 2    
   133   67   68 2    
   134   67   69 am   BACKBONE|DICT|INTERRES
   135   69   70 1    
   136   69  190 1    
   137   70   71 1    
   138   70   72 1    
   139   70  191 1    
   140   71  192 1    
   141   71  193 1    
   142   71  194 1    
   143   72   73 2    
   144   72   74 am   BACKBONE|DICT|INTERRES
   145   74   75 1    
   146   74  195 1    
   147   75   76 1    
   148   75   77 1    
   149   75  196 1    
   150   76  197 1    
   151   76  198 1    
   152   76  199 1    
   153   77   78 2    
   154   77   79 am   BACKBONE|DICT|INTERRES
   155   79   80 1    
   156   79  200 1    
   157   80   81 1    
   158   80   82 1    
   159   80  201 1    
   160   81  202 1    
   161   81  203 1    
   162   81  204 1    
   163   82   83 2    
   164   82   84 am   BACKBONE|DICT|INTERRES
   165   84   85 1    
   166   84  205 1    
   167   85   86 1    
   168   85   87 1    
   169   85  206 1    
   170   86  207 1    
   171   86  208 1    
   172   86  209 1    
   173   87   88 2    
   174   87   89 am   BACKBONE|DICT|INTERRES
   175   89   90 1    
   176   89  210 1    
   177   90   91 1    
   178   90   92 1    
   179   90  211 1    
   180   91  212 1    
   181   91  213 1    
   182   91  214 1    
   183   92   93 2    
   184   92   94 am   BACKBONE|DICT|INTERRES
   185   94   95 1    
   186   94  215 1    
   187   95   96 1    
   188   95   97 1    
   189   95  216 1    
   190   96  217 1    
   191   96  218 1    
   192   96  219 1    
   193   97   98 2    
   194   97   99 am   BACKBONE|DICT|INTERRES
   195   99  100 1    
   196   99  220 1    
   197  100  101 1    
   198  100  102 1    
   199  100  221 1    
   200  101  222 1    
   201  101  223 1    
   202  101  224 1    
   203  102  103 2    
   204  102  104 am   BACKBONE|DICT|INTERRES
   205  104  105 1    
   206  104  225 1    
   207  105  106 1    
   208  105  107 1    
   209  105  226 1    
   210  106  227 1    
   211  106  228 1    
   212  106  229 1    
   213  107  108 2    
   214  107  109 am   BACKBONE|DICT|INTERRES
   215  109  110 1    
   216  109  230 1    
   217  110  111 1    
   218  110  112 1    
   219  110  231 1    
   220  111  232 1    
   221  111  233 1    
   222  111  234 1    
   223  112  113 2    
   224  112  114 am   BACKBONE|DICT|INTERRES
   225  114  115 1    
   226  114  235 1    
   227  115  116 1    
   228  115  117 1    
   229  115  236 1    
   230  116  237 1    
   231  116  238 1    
   232  116  239 1    
   233  117  118 2    
   234  117  119 am   BACKBONE|DICT|INTERRES
   235  119  120 1    
   236  119  240 1    
   237  120  121 1    
   238  120  124 1    
   239  120  241 1    
   240  121  122 am   BACKBONE|DICT|INTERRES
   241  121  123 2    
   242  122  242 1    
   243  122  243 1    
   244  124  125 1    
   245  124  244 1    
   246  124  245 1    
   247  125  126 1    
   248  126  246 1    
   249  126  247 1    
@<TRIPOS>SUBSTRUCTURE
     1 UNK         1 GROUP             0       ****    0 ROOT    
