@<TRIPOS>MOLECULE
3R540
247   249    1
SMALL
USER_CHARGES


@<TRIPOS>ATOM
      1 CA          2.5808  -16.4879  -48.6263 C.3       0 UNK        -0.1800 
      2 C           1.1812  -15.9488  -48.8839 C.2       0 UNK         0.5000 
      3 O           1.0453  -14.8633  -49.4472 O.2       0 UNK        -0.5000 
      4 N           0.1480  -16.7162  -48.5063 N.am      1 UNK        -0.5000 
      5 CA         -1.2596  -16.4694  -48.8463 C.3       1 UNK         0.1400 
      6 C6         -1.4833  -16.4092  -50.3854 C.3       23 UNK        -0.0398 
      7 S7         -3.0895  -17.0806  -50.9299 S.3       23 UNK        -0.2404 
      8 C8         -2.8413  -18.8837  -50.7807 C.3       23 UNK        -0.0205 
      9 C9         -1.5648  -19.4092  -51.4311 C.ar      23 UNK        -0.0193 
     10 C10        -1.1709  -18.9968  -52.7089 C.ar      23 UNK        -0.1150 
     11 C11         0.0227  -19.4623  -53.2681 C.ar      23 UNK        -0.0193 
     12 C12         0.8158  -20.3623  -52.5495 C.ar      23 UNK        -0.1150 
     13 C13         0.4185  -20.8088  -51.2857 C.ar      23 UNK        -0.0193 
     14 C14        -0.7730  -20.3276  -50.7377 C.ar      23 UNK        -0.1150 
     15 C15         1.2446  -21.8546  -50.5470 C.3       23 UNK        -0.0205 
     16 S16         2.4713  -21.1435  -49.3972 S.3       23 UNK        -0.2404 
     17 C17         1.4930  -20.6227  -47.9442 C.3       23 UNK        -0.0398 
     18 CA          0.8797  -21.8018  -47.1313 C.3       11 UNK         0.1400 
     19 N           1.1139  -21.6940  -45.6868 N.am      11 UNK        -0.5000 
     20 C           0.7761  -22.6337  -44.7882 C.2       10 UNK         0.5000 
     21 O           0.3197  -23.7357  -45.0885 O.2       10 UNK        -0.5000 
     22 CA          0.9045  -22.2650  -43.3002 C.3       10 UNK         0.1400 
     23 CB          2.3148  -22.5802  -42.7819 C.3       10 UNK        -0.1800 
     24 N           0.5674  -20.8661  -43.0332 N.am      10 UNK        -0.5000 
     25 C          -0.6365  -20.3164  -43.2530 C.2       9 UNK         0.5000 
     26 O          -1.6137  -20.9527  -43.6447 O.2       9 UNK        -0.5000 
     27 CA         -0.7555  -18.7951  -43.0624 C.3       9 UNK         0.1400 
     28 CB         -0.9920  -18.4400  -41.5876 C.3       9 UNK        -0.1800 
     29 N           0.4251  -18.0878  -43.5491 N.am      9 UNK        -0.5000 
     30 C           0.7972  -18.0046  -44.8336 C.2       8 UNK         0.5000 
     31 O           0.1682  -18.4923  -45.7774 O.2       8 UNK        -0.5000 
     32 CA          2.1377  -17.3006  -45.0993 C.3       8 UNK         0.1400 
     33 CB          1.9849  -15.7719  -45.1186 C.3       8 UNK        -0.1800 
     34 N           3.1563  -17.6815  -44.1238 N.am      8 UNK        -0.5000 
     35 C           3.7231  -18.8944  -44.0644 C.2       7 UNK         0.5000 
     36 O           3.4693  -19.8054  -44.8529 O.2       7 UNK        -0.5000 
     37 CA          4.7127  -19.1349  -42.9092 C.3       7 UNK         0.1400 
     38 CB          6.1238  -18.6743  -43.3033 C.3       7 UNK        -0.1800 
     39 N           4.3107  -18.4597  -41.6732 N.am      7 UNK        -0.5000 
     40 C           3.2319  -18.7897  -40.9488 C.2       6 UNK         0.5000 
     41 O           2.4769  -19.7170  -41.2327 O.2       6 UNK        -0.5000 
     42 CA          2.9136  -17.9013  -39.7336 C.3       6 UNK         0.1400 
     43 CB          3.7188  -18.3521  -38.5059 C.3       6 UNK        -0.1800 
     44 N           3.1599  -16.4795  -39.9860 N.am      6 UNK        -0.5000 
     45 C           2.5056  -15.7488  -40.8971 C.2       5 UNK         0.5000 
     46 O           1.6350  -16.2004  -41.6452 O.2       5 UNK        -0.5000 
     47 CA          2.9303  -14.2834  -41.0258 C.3       5 UNK         0.1400 
     48 CB          4.1002  -14.1376  -42.0139 C.3       5 UNK        -0.1800 
     49 N           1.7928  -13.5005  -41.4935 N.am      5 UNK        -0.5000 
     50 C           1.5439  -12.2319  -41.1511 C.2       4 UNK         0.5000 
     51 O           2.2878  -11.5654  -40.4296 O.2       4 UNK        -0.5000 
     52 CA          0.2606  -11.5788  -41.7026 C.3       4 UNK         0.1400 
     53 CB          0.6040  -10.6237  -42.8570 C.3       4 UNK        -0.1800 
     54 N          -0.7617  -12.5172  -42.1703 N.am      4 UNK        -0.5000 
     55 C          -1.4711  -13.3637  -41.4100 C.2       3 UNK         0.5000 
     56 O          -1.2909  -13.5025  -40.2000 O.2       3 UNK        -0.5000 
     57 CA         -2.5906  -14.1669  -42.1101 C.3       3 UNK         0.1400 
     58 CB         -3.9631  -13.8266  -41.5065 C.3       3 UNK        -0.1800 
     59 N          -2.6470  -13.9290  -43.5575 N.am      3 UNK        -0.5000 
     60 C          -1.8821  -14.5609  -44.4538 C.2       2 UNK         0.5000 
     61 O          -1.0833  -15.4487  -44.1622 O.2       2 UNK        -0.5000 
     62 CA         -1.9858  -14.0820  -45.9055 C.3       2 UNK         0.1400 
     63 CB         -1.1352  -12.8153  -46.1176 C.3       2 UNK        -0.1800 
     64 N          -1.5216  -15.1432  -46.7941 N.am      2 UNK        -0.5000 
     65 C          -1.8571  -15.2631  -48.0836 C.2       1 UNK         0.5000 
     66 O          -2.6024  -14.4672  -48.6584 O.2       1 UNK        -0.5000 
     67 C          -0.6257  -21.9518  -47.4243 C.2       11 UNK         0.5000 
     68 O          -1.0229  -22.9008  -48.0974 O.2       11 UNK        -0.5000 
     69 N          -1.4387  -21.0275  -46.8911 N.am      12 UNK        -0.5000 
     70 CA         -2.8949  -21.0213  -47.0544 C.3       12 UNK         0.1400 
     71 CB         -3.4749  -19.7375  -46.4431 C.3       12 UNK        -0.1800 
     72 C          -3.5778  -22.2750  -46.4741 C.2       12 UNK         0.5000 
     73 O          -4.5084  -22.7967  -47.0896 O.2       12 UNK        -0.5000 
     74 N          -3.0784  -22.7572  -45.3280 N.am      13 UNK        -0.5000 
     75 CA         -3.5033  -24.0021  -44.6907 C.3       13 UNK         0.1400 
     76 CB         -2.8866  -24.1036  -43.2878 C.3       13 UNK        -0.1800 
     77 C          -3.1605  -25.2427  -45.5353 C.2       13 UNK         0.5000 
     78 O          -4.0327  -26.0855  -45.7459 O.2       13 UNK        -0.5000 
     79 N          -1.9194  -25.3179  -46.0397 N.am      14 UNK        -0.5000 
     80 CA         -1.4396  -26.3895  -46.9192 C.3       14 UNK         0.1400 
     81 CB          0.0757  -26.2478  -47.1276 C.3       14 UNK        -0.1800 
     82 C          -2.1709  -26.4279  -48.2739 C.2       14 UNK         0.5000 
     83 O          -2.4467  -27.5117  -48.7891 O.2       14 UNK        -0.5000 
     84 N          -2.5095  -25.2445  -48.8003 N.am      15 UNK        -0.5000 
     85 CA         -3.3192  -25.0508  -50.0027 C.3       15 UNK         0.1400 
     86 CB         -3.0549  -23.6391  -50.5495 C.3       15 UNK        -0.1800 
     87 C          -4.8297  -25.2813  -49.7750 C.2       15 UNK         0.5000 
     88 O          -5.5930  -25.2062  -50.7371 O.2       15 UNK        -0.5000 
     89 N          -5.2448  -25.5462  -48.5259 N.am      16 UNK        -0.5000 
     90 CA         -6.6171  -25.8109  -48.0793 C.3       16 UNK         0.1400 
     91 CB         -7.1134  -27.1637  -48.6306 C.3       16 UNK        -0.1800 
     92 C          -7.5820  -24.6437  -48.3762 C.2       16 UNK         0.5000 
     93 O          -8.7195  -24.8677  -48.7932 O.2       16 UNK        -0.5000 
     94 N          -7.0869  -23.4147  -48.1719 N.am      17 UNK        -0.5000 
     95 CA         -7.7432  -22.1225  -48.4000 C.3       17 UNK         0.1400 
     96 CB         -9.0240  -21.9834  -47.5508 C.3       17 UNK        -0.1800 
     97 C          -7.9806  -21.7629  -49.8839 C.2       17 UNK         0.5000 
     98 O          -8.5661  -20.7126  -50.1546 O.2       17 UNK        -0.5000 
     99 N          -7.4951  -22.5890  -50.8211 N.am      18 UNK        -0.5000 
    100 CA        -7.3746  -22.2427  -52.2376 C.3       18 UNK         0.1400 
    101 CB        -7.3939  -23.5314  -53.0758 C.3       18 UNK        -0.1800 
    102 C         -6.0755  -21.4484  -52.4722 C.2       18 UNK         0.5000 
    103 O         -5.2319  -21.3696  -51.5766 O.2       18 UNK        -0.5000 
    104 N         -5.9257  -20.8819  -53.6728 N.am      19 UNK        -0.5000 
    105 CA        -4.7444  -20.1323  -54.0876 C.3       19 UNK         0.1400 
    106 CB        -4.9915  -18.6292  -53.8718 C.3       19 UNK        -0.1800 
    107 C         -4.4517  -20.4238  -55.5633 C.2       19 UNK         0.5000 
    108 O         -5.3853  -20.6291  -56.3429 O.2       19 UNK        -0.5000 
    109 N         -3.1632  -20.3927  -55.9228 N.am      20 UNK        -0.5000 
    110 CA        -2.6710  -20.5566  -57.2952 C.3       20 UNK         0.1400 
    111 CB        -1.3524  -21.3488  -57.2578 C.3       20 UNK        -0.1800 
    112 C         -2.4962  -19.2099  -58.0325 C.2       20 UNK         0.5000 
    113 O         -1.9845  -19.2032  -59.1525 O.2       20 UNK        -0.5000 
    114 N         -2.9122  -18.1021  -57.3956 N.am      21 UNK        -0.5000 
    115 CA        -2.8516  -16.7156  -57.8782 C.3       21 UNK         0.1400 
    116 CB        -3.7614  -16.5193  -59.1096 C.3       21 UNK        -0.1800 
    117 C         -1.4064  -16.2198  -58.1016 C.2       21 UNK         0.5000 
    118 O         -1.1185  -15.5592  -59.1015 O.2       21 UNK        -0.5000 
    119 N         -0.5220  -16.5552  -57.1539 N.am      22 UNK        -0.5000 
    120 CA         0.9008  -16.1749  -57.1481 C.3       22 UNK         0.1400 
    121 C          1.1945  -14.7024  -56.7290 C.2       22 UNK         0.5000 
    122 N          0.2207  -13.9344  -56.2547 N.am      22 UNK        -0.7600 
    123 O          2.3264  -14.2421  -56.8538 O.2       22 UNK        -0.5000 
    124 C124        1.7612  -17.1944  -56.3553 C.3       23 UNK        -0.0398 
    125 S125        1.2793  -17.3910  -54.6008 S.3       23 UNK        -0.2404 
    126 C126        0.4477  -19.0061  -54.6538 C.3       23 UNK        -0.0205 
    127 H127        2.5646  -17.5477  -48.3724 H         1 UNK         0.0600 
    128 H128        3.0618  -15.9353  -47.8203 H         1 UNK         0.0600 
    129 H129        3.1916  -16.3755  -49.5221 H         1 UNK         0.0600 
    130 H130        0.3213  -17.5676  -47.9899 H         1 UNK         0.3000 
    131 H131       -1.7864  -17.3435  -48.4629 H         1 UNK         0.0600 
    132 H132       -0.6968  -16.9572  -50.9031 H         1 UNK         0.0800 
    133 H133       -1.3878  -15.3888  -50.7602 H         1 UNK         0.0800 
    134 H134       -2.8646  -19.1426  -49.7220 H         1 UNK         0.0800 
    135 H135       -3.6938  -19.3864  -51.2310 H         1 UNK         0.0800 
    136 H136       -1.7797  -18.2923  -53.2571 H         1 UNK         0.1150 
    137 H137        1.7355  -20.7304  -52.9822 H         1 UNK         0.1150 
    138 H138       -1.0956  -20.6756  -49.7709 H         1 UNK         0.1150 
    139 H139        0.5944  -22.5563  -50.0283 H         1 UNK         0.0800 
    140 H140        1.7859  -22.4589  -51.2765 H         1 UNK         0.0800 
    141 H141        0.7498  -19.8892  -48.2605 H         1 UNK         0.0800 
    142 H142        2.1826  -20.0602  -47.3135 H         1 UNK         0.0800 
    143 H143        1.3620  -22.7308  -47.4433 H         1 UNK         0.0600 
    144 H144        1.5214  -20.8306  -45.3508 H         1 UNK         0.3000 
    145 H145        0.1978  -22.8838  -42.7443 H         1 UNK         0.0600 
    146 H146        2.5704  -23.6257  -42.9590 H         1 UNK         0.0600 
    147 H147        3.0715  -21.9705  -43.2742 H         1 UNK         0.0600 
    148 H148        2.3886  -22.4070  -41.7083 H         1 UNK         0.0600 
    149 H149        1.3016  -20.2926  -42.6276 H         1 UNK         0.3000 
    150 H150       -1.6151  -18.4487  -43.6401 H         1 UNK         0.0600 
    151 H151       -1.1139  -17.3643  -41.4585 H         1 UNK         0.0600 
    152 H152       -0.1607  -18.7585  -40.9582 H         1 UNK         0.0600 
    153 H153       -1.8955  -18.9201  -41.2102 H         1 UNK         0.0600 
    154 H154        0.9686  -17.5841  -42.8548 H         1 UNK         0.3000 
    155 H155        2.4854  -17.6236  -46.0796 H         1 UNK         0.0600 
    156 H156        1.2510  -15.4600  -45.8610 H         1 UNK         0.0600 
    157 H157        2.9267  -15.2836  -45.3684 H         1 UNK         0.0600 
    158 H158        1.6537  -15.3837  -44.1560 H         1 UNK         0.0600 
    159 H159        3.3800  -17.0059  -43.4094 H         1 UNK         0.3000 
    160 H160        4.7459  -20.2091  -42.7160 H         1 UNK         0.0600 
    161 H161        6.4575  -19.1754  -44.2130 H         1 UNK         0.0600 
    162 H162        6.8471  -18.9071  -42.5217 H         1 UNK         0.0600 
    163 H163        6.1617  -17.5998  -43.4874 H         1 UNK         0.0600 
    164 H164        4.8794  -17.6840  -41.3678 H         1 UNK         0.3000 
    165 H165        1.8520  -18.0212  -39.5072 H         1 UNK         0.0600 
    166 H166        3.4361  -17.7849  -37.6190 H         1 UNK         0.0600 
    167 H167        3.5387  -19.4056  -38.2870 H         1 UNK         0.0600 
    168 H168        4.7916  -18.2270  -38.6575 H         1 UNK         0.0600 
    169 H169        3.8679  -16.0379  -39.4170 H         1 UNK         0.3000 
    170 H170        3.2415  -13.9330  -40.0392 H         1 UNK         0.0600 
    171 H171        4.4263  -13.0998  -42.0859 H         1 UNK         0.0600 
    172 H172        4.9615  -14.7256  -41.6948 H         1 UNK         0.0600 
    173 H173        3.8259  -14.4700  -43.0154 H         1 UNK         0.0600 
    174 H174        1.1119  -14.0170  -42.0356 H         1 UNK         0.3000 
    175 H175       -0.1748  -10.9917  -40.8914 H         1 UNK         0.0600 
    176 H176        1.0204  -11.1597  -43.7110 H         1 UNK         0.0600 
    177 H177       -0.2781  -10.0812  -43.1978 H         1 UNK         0.0600 
    178 H178        1.3393   -9.8803  -42.5461 H         1 UNK         0.0600 
    179 H179       -0.9826  -12.4797  -43.1530 H         1 UNK         0.3000 
    180 H180       -2.3937  -15.2251  -41.9257 H         1 UNK         0.0600 
    181 H181       -4.7536  -14.4206  -41.9657 H         1 UNK         0.0600 
    182 H182       -4.2123  -12.7733  -41.6408 H         1 UNK         0.0600 
    183 H183       -3.9845  -14.0352  -40.4360 H         1 UNK         0.0600 
    184 H184       -3.2805  -13.2057  -43.8682 H         1 UNK         0.3000 
    185 H185       -3.0343  -13.8629  -46.1187 H         1 UNK         0.0600 
    186 H186       -0.0815  -13.0002  -45.9035 H         1 UNK         0.0600 
    187 H187       -1.2069  -12.4565  -47.1444 H         1 UNK         0.0600 
    188 H188       -1.4665  -12.0024  -45.4706 H         1 UNK         0.0600 
    189 H189       -0.9467  -15.8457  -46.3461 H         1 UNK         0.3000 
    190 H190       -1.0369  -20.2885  -46.3262 H         1 UNK         0.3000 
    191 H191       -3.1049  -21.0091  -48.1256 H         1 UNK         0.0600 
    192 H192       -3.2900  -19.6818  -45.3701 H         1 UNK         0.0600 
    193 H193       -4.5541  -19.6882  -46.5932 H         1 UNK         0.0600 
    194 H194       -3.0415  -18.8495  -46.9028 H         1 UNK         0.0600 
    195 H195       -2.3609  -22.2191  -44.8492 H         1 UNK         0.3000 
    196 H196       -4.5890  -23.9642  -44.5797 H         1 UNK         0.0600 
    197 H197       -3.2306  -25.0026  -42.7750 H         1 UNK         0.0600 
    198 H198       -3.1661  -23.2491  -42.6713 H         1 UNK         0.0600 
    199 H199       -1.7984  -24.1451  -43.3276 H         1 UNK         0.0600 
    200 H200       -1.2432  -24.5969  -45.8016 H         1 UNK         0.3000 
    201 H201       -1.6258  -27.3408  -46.4167 H         1 UNK         0.0600 
    202 H202        0.6109  -26.3134  -46.1802 H         1 UNK         0.0600 
    203 H203        0.3306  -25.2936  -47.5902 H         1 UNK         0.0600 
    204 H204        0.4585  -27.0395  -47.7727 H         1 UNK         0.0600 
    205 H205       -2.1702  -24.3995  -48.3469 H         1 UNK         0.3000 
    206 H206       -2.9935  -25.7702  -50.7564 H         1 UNK         0.0600 
    207 H207       -3.4093  -22.8695  -49.8628 H         1 UNK         0.0600 
    208 H208       -3.5624  -23.4889  -51.5026 H         1 UNK         0.0600 
    209 H209       -1.9916  -23.4706  -50.7213 H         1 UNK         0.0600 
    210 H210       -4.5476  -25.5650  -47.7918 H         1 UNK         0.3000 
    211 H211       -6.5723  -25.8957  -46.9928 H         1 UNK         0.0600 
    212 H212       -7.2322  -27.1412  -49.7143 H         1 UNK         0.0600 
    213 H213       -8.0796  -27.4305  -48.2009 H         1 UNK         0.0600 
    214 H214       -6.4179  -27.9666  -48.3860 H         1 UNK         0.0600 
    215 H215       -6.1263  -23.3426  -47.8391 H         1 UNK         0.3000 
    216 H216       -7.0339  -21.3786  -48.0341 H         1 UNK         0.0600 
    217 H217       -9.4055  -20.9623  -47.5844 H         1 UNK         0.0600 
    218 H218       -8.8319  -22.2213  -46.5046 H         1 UNK         0.0600 
    219 H219       -9.8211  -22.6373  -47.9048 H         1 UNK         0.0600 
    220 H220       -6.9836  -23.4102  -50.5236 H         1 UNK         0.3000 
    221 H221       -8.2218  -21.6221  -52.5368 H         1 UNK         0.0600 
    222 H222       -6.4949  -24.1283  -52.9226 H         1 UNK         0.0600 
    223 H223       -8.2554  -24.1522  -52.8288 H         1 UNK         0.0600 
    224 H224       -7.4534  -23.3044  -54.1407 H         1 UNK         0.0600 
    225 H225       -6.6172  -21.0243  -54.3977 H         1 UNK         0.3000 
    226 H226       -3.8771  -20.4443  -53.5013 H         1 UNK         0.0600 
    227 H227       -5.2466  -18.4148  -52.8341 H         1 UNK         0.0600 
    228 H228       -4.1042  -18.0440  -54.1144 H         1 UNK         0.0600 
    229 H229       -5.8092  -18.2629  -54.4938 H         1 UNK         0.0600 
    230 H230       -2.4613  -20.2414  -55.2131 H         1 UNK         0.3000 
    231 H231       -3.3898  -21.1416  -57.8729 H         1 UNK         0.0600 
    232 H232       -0.5572  -20.7969  -56.7587 H         1 UNK         0.0600 
    233 H233       -1.4782  -22.2992  -56.7388 H         1 UNK         0.0600 
    234 H234       -1.0050  -21.5780  -58.2660 H         1 UNK         0.0600 
    235 H235       -3.3279  -18.2270  -56.4851 H         1 UNK         0.3000 
    236 H236       -3.2582  -16.0975  -57.0765 H         1 UNK         0.0600 
    237 H237       -3.3909  -17.0602  -59.9808 H         1 UNK         0.0600 
    238 H238       -4.7762  -16.8626  -58.9084 H         1 UNK         0.0600 
    239 H239       -3.8252  -15.4655  -59.3837 H         1 UNK         0.0600 
    240 H240       -0.8415  -17.0752  -56.3519 H         1 UNK         0.3000 
    241 H241        1.2440  -16.2356  -58.1828 H         1 UNK         0.0600 
    242 H242        0.4229  -12.9818  -55.9942 H         1 UNK         0.3800 
    243 H243       -0.7121  -14.2966  -56.1445 H         1 UNK         0.3800 
    244 H244        1.7150  -18.1643  -56.8523 H         1 UNK         0.0800 
    245 H245        2.8144  -16.9103  -56.3881 H         1 UNK         0.0800 
    246 H246        1.1144  -19.7445  -55.1022 H         1 UNK         0.0800 
    247 H247       -0.4253  -18.9382  -55.3021 H         1 UNK         0.0800 
@<TRIPOS>BOND
     1    1    2 1    
     2    1  127 1    
     3    1  128 1    
     4    1  129 1    
     5    2    3 2    
     6    2    4 am   BACKBONE|DICT|INTERRES
     7    4    5 1    
     8    4  130 1    
     9    5    6 1    
    10    5   65 1    
    11    5  131 1    
    12    6    7 1    
    13    6  132 1    
    14    6  133 1    
    15    7    8 1    
    16    8    9 1    
    17    8  134 1    
    18    8  135 1    
    19    9   10 ar   
    20    9   14 ar   
    21   10   11 ar   
    22   10  136 1    
    23   11   12 ar   
    24   11  126 1    
    25   12   13 ar   
    26   12  137 1    
    27   13   14 ar   
    28   13   15 1    
    29   14  138 1    
    30   15   16 1    
    31   15  139 1    
    32   15  140 1    
    33   16   17 1    
    34   17   18 1    
    35   17  141 1    
    36   17  142 1    
    37   18   19 1    
    38   18   67 1    
    39   18  143 1    
    40   19   20 am   BACKBONE|DICT|INTERRES
    41   19  144 1    
    42   20   21 2    
    43   20   22 1    
    44   22   23 1    
    45   22   24 1    
    46   22  145 1    
    47   23  146 1    
    48   23  147 1    
    49   23  148 1    
    50   24   25 am   BACKBONE|DICT|INTERRES
    51   24  149 1    
    52   25   26 2    
    53   25   27 1    
    54   27   28 1    
    55   27   29 1    
    56   27  150 1    
    57   28  151 1    
    58   28  152 1    
    59   28  153 1    
    60   29   30 am   BACKBONE|DICT|INTERRES
    61   29  154 1    
    62   30   31 2    
    63   30   32 1    
    64   32   33 1    
    65   32   34 1    
    66   32  155 1    
    67   33  156 1    
    68   33  157 1    
    69   33  158 1    
    70   34   35 am   BACKBONE|DICT|INTERRES
    71   34  159 1    
    72   35   36 2    
    73   35   37 1    
    74   37   38 1    
    75   37   39 1    
    76   37  160 1    
    77   38  161 1    
    78   38  162 1    
    79   38  163 1    
    80   39   40 am   BACKBONE|DICT|INTERRES
    81   39  164 1    
    82   40   41 2    
    83   40   42 1    
    84   42   43 1    
    85   42   44 1    
    86   42  165 1    
    87   43  166 1    
    88   43  167 1    
    89   43  168 1    
    90   44   45 am   BACKBONE|DICT|INTERRES
    91   44  169 1    
    92   45   46 2    
    93   45   47 1    
    94   47   48 1    
    95   47   49 1    
    96   47  170 1    
    97   48  171 1    
    98   48  172 1    
    99   48  173 1    
   100   49   50 am   BACKBONE|DICT|INTERRES
   101   49  174 1    
   102   50   51 2    
   103   50   52 1    
   104   52   53 1    
   105   52   54 1    
   106   52  175 1    
   107   53  176 1    
   108   53  177 1    
   109   53  178 1    
   110   54   55 am   BACKBONE|DICT|INTERRES
   111   54  179 1    
   112   55   56 2    
   113   55   57 1    
   114   57   58 1    
   115   57   59 1    
   116   57  180 1    
   117   58  181 1    
   118   58  182 1    
   119   58  183 1    
   120   59   60 am   BACKBONE|DICT|INTERRES
   121   59  184 1    
   122   60   61 2    
   123   60   62 1    
   124   62   63 1    
   125   62   64 1    
   126   62  185 1    
   127   63  186 1    
   128   63  187 1    
   129   63  188 1    
   130   64   65 am   BACKBONE|DICT|INTERRES
   131   64  189 1    
   132   65   66 2    
   133   67   68 2    
   134   67   69 am   BACKBONE|DICT|INTERRES
   135   69   70 1    
   136   69  190 1    
   137   70   71 1    
   138   70   72 1    
   139   70  191 1    
   140   71  192 1    
   141   71  193 1    
   142   71  194 1    
   143   72   73 2    
   144   72   74 am   BACKBONE|DICT|INTERRES
   145   74   75 1    
   146   74  195 1    
   147   75   76 1    
   148   75   77 1    
   149   75  196 1    
   150   76  197 1    
   151   76  198 1    
   152   76  199 1    
   153   77   78 2    
   154   77   79 am   BACKBONE|DICT|INTERRES
   155   79   80 1    
   156   79  200 1    
   157   80   81 1    
   158   80   82 1    
   159   80  201 1    
   160   81  202 1    
   161   81  203 1    
   162   81  204 1    
   163   82   83 2    
   164   82   84 am   BACKBONE|DICT|INTERRES
   165   84   85 1    
   166   84  205 1    
   167   85   86 1    
   168   85   87 1    
   169   85  206 1    
   170   86  207 1    
   171   86  208 1    
   172   86  209 1    
   173   87   88 2    
   174   87   89 am   BACKBONE|DICT|INTERRES
   175   89   90 1    
   176   89  210 1    
   177   90   91 1    
   178   90   92 1    
   179   90  211 1    
   180   91  212 1    
   181   91  213 1    
   182   91  214 1    
   183   92   93 2    
   184   92   94 am   BACKBONE|DICT|INTERRES
   185   94   95 1    
   186   94  215 1    
   187   95   96 1    
   188   95   97 1    
   189   95  216 1    
   190   96  217 1    
   191   96  218 1    
   192   96  219 1    
   193   97   98 2    
   194   97   99 am   BACKBONE|DICT|INTERRES
   195   99  100 1    
   196   99  220 1    
   197  100  101 1    
   198  100  102 1    
   199  100  221 1    
   200  101  222 1    
   201  101  223 1    
   202  101  224 1    
   203  102  103 2    
   204  102  104 am   BACKBONE|DICT|INTERRES
   205  104  105 1    
   206  104  225 1    
   207  105  106 1    
   208  105  107 1    
   209  105  226 1    
   210  106  227 1    
   211  106  228 1    
   212  106  229 1    
   213  107  108 2    
   214  107  109 am   BACKBONE|DICT|INTERRES
   215  109  110 1    
   216  109  230 1    
   217  110  111 1    
   218  110  112 1    
   219  110  231 1    
   220  111  232 1    
   221  111  233 1    
   222  111  234 1    
   223  112  113 2    
   224  112  114 am   BACKBONE|DICT|INTERRES
   225  114  115 1    
   226  114  235 1    
   227  115  116 1    
   228  115  117 1    
   229  115  236 1    
   230  116  237 1    
   231  116  238 1    
   232  116  239 1    
   233  117  118 2    
   234  117  119 am   BACKBONE|DICT|INTERRES
   235  119  120 1    
   236  119  240 1    
   237  120  121 1    
   238  120  124 1    
   239  120  241 1    
   240  121  122 am   BACKBONE|DICT|INTERRES
   241  121  123 2    
   242  122  242 1    
   243  122  243 1    
   244  124  125 1    
   245  124  244 1    
   246  124  245 1    
   247  125  126 1    
   248  126  246 1    
   249  126  247 1    
@<TRIPOS>SUBSTRUCTURE
     1 UNK         1 GROUP             0       ****    0 ROOT    
