@<TRIPOS>MOLECULE
3R540
247   249    1
SMALL
USER_CHARGES


@<TRIPOS>ATOM
      1 CA         -5.5369   -8.5137  -47.9423 C.3       0 UNK        -0.1800 
      2 C          -6.1050   -9.9316  -47.9144 C.2       0 UNK         0.5000 
      3 O          -7.2378  -10.1169  -47.4745 O.2       0 UNK        -0.5000 
      4 N          -5.3763  -10.9615  -48.3713 N.am      1 UNK        -0.5000 
      5 CA         -3.9983  -10.9217  -48.8823 C.3       1 UNK         0.1400 
      6 C6         -3.6607  -12.2226  -49.6542 C.3       23 UNK        -0.0398 
      7 S7         -2.2587  -12.0344  -50.8102 S.3       23 UNK        -0.2404 
      8 C8         -0.9208  -12.8938  -49.9219 C.3       23 UNK        -0.0205 
      9 C9         -0.9019  -14.3851  -50.2236 C.ar      23 UNK        -0.0193 
     10 C10        -0.0934  -14.8825  -51.2516 C.ar      23 UNK        -0.1150 
     11 C11        -0.0351  -16.2559  -51.5071 C.ar      23 UNK        -0.0193 
     12 C12        -0.8029  -17.1303  -50.7333 C.ar      23 UNK        -0.1150 
     13 C13        -1.6271  -16.6457  -49.7162 C.ar      23 UNK        -0.0193 
     14 C14        -1.6667  -15.2729  -49.4605 C.ar      23 UNK        -0.1150 
     15 C15        -2.4531  -17.6090  -48.8814 C.3       23 UNK        -0.0205 
     16 S16        -1.4442  -18.3005  -47.5420 S.3       23 UNK        -0.2404 
     17 C17        -2.6376  -19.3721  -46.6818 C.3       23 UNK        -0.0398 
     18 CA         -2.4174  -20.8801  -46.9551 C.3       11 UNK         0.1400 
     19 N          -1.0595  -21.3499  -46.6498 N.am      11 UNK        -0.5000 
     20 C          -0.6056  -22.5882  -46.9012 C.2       10 UNK         0.5000 
     21 O          -1.2616  -23.4501  -47.4834 O.2       10 UNK        -0.5000 
     22 CA          0.7835  -22.9567  -46.3503 C.3       10 UNK         0.1400 
     23 CB          1.9012  -22.5150  -47.3073 C.3       10 UNK        -0.1800 
     24 N           1.0036  -22.4052  -45.0122 N.am      10 UNK        -0.5000 
     25 C           0.3335  -22.8039  -43.9203 C.2       9 UNK         0.5000 
     26 O          -0.4741  -23.7330  -43.9193 O.2       9 UNK        -0.5000 
     27 CA          0.5526  -21.9964  -42.6278 C.3       9 UNK         0.1400 
     28 CB          1.7758  -22.5081  -41.8528 C.3       9 UNK        -0.1800 
     29 N           0.6882  -20.5630  -42.8909 N.am      9 UNK        -0.5000 
     30 C          -0.3201  -19.7806  -43.3025 C.2       8 UNK         0.5000 
     31 O          -1.4769  -20.1798  -43.4353 O.2       8 UNK        -0.5000 
     32 CA          0.0230  -18.3236  -43.6707 C.3       8 UNK         0.1400 
     33 CB         -0.1463  -17.4063  -42.4512 C.3       8 UNK        -0.1800 
     34 N           1.3704  -18.1553  -44.2194 N.am      8 UNK        -0.5000 
     35 C           1.8202  -18.7426  -45.3373 C.2       7 UNK         0.5000 
     36 O           1.1418  -19.5007  -46.0252 O.2       7 UNK        -0.5000 
     37 CA          3.2989  -18.5180  -45.6955 C.3       7 UNK         0.1400 
     38 CB          3.5156  -17.1352  -46.3293 C.3       7 UNK        -0.1800 
     39 N           4.1695  -18.6830  -44.5300 N.am      7 UNK        -0.5000 
     40 C           4.3316  -19.8305  -43.8569 C.2       6 UNK         0.5000 
     41 O           3.8118  -20.8910  -44.2046 O.2       6 UNK        -0.5000 
     42 CA          5.1521  -19.7947  -42.5499 C.3       6 UNK         0.1400 
     43 CB          6.6492  -20.0426  -42.8162 C.3       6 UNK        -0.1800 
     44 N           4.9223  -18.5935  -41.7312 N.am      6 UNK        -0.5000 
     45 C           5.2842  -17.3297  -41.9870 C.2       5 UNK         0.5000 
     46 O           5.9758  -16.9905  -42.9503 O.2       5 UNK        -0.5000 
     47 CA          4.7295  -16.2544  -41.0305 C.3       5 UNK         0.1400 
     48 CB          5.7694  -15.8961  -39.9586 C.3       5 UNK        -0.1800 
     49 N           4.3386  -15.0374  -41.7477 N.am      5 UNK        -0.5000 
     50 C           3.4443  -14.9924  -42.7451 C.2       4 UNK         0.5000 
     51 O           2.7672  -15.9643  -43.0902 O.2       4 UNK        -0.5000 
     52 CA          3.3340  -13.6521  -43.5004 C.3       4 UNK         0.1400 
     53 CB          4.6698  -13.2949  -44.1765 C.3       4 UNK        -0.1800 
     54 N           2.3005  -13.6789  -44.5354 N.am      4 UNK        -0.5000 
     55 C           0.9841  -13.5880  -44.3185 C.2       3 UNK         0.5000 
     56 O           0.4742  -13.4372  -43.2050 O.2       3 UNK        -0.5000 
     57 CA          0.0913  -13.7031  -45.5713 C.3       3 UNK         0.1400 
     58 CB         -0.3367  -15.1629  -45.7847 C.3       3 UNK        -0.1800 
     59 N          -1.1055  -12.8610  -45.5030 N.am      3 UNK        -0.5000 
     60 C          -1.1044  -11.5250  -45.3940 C.2       2 UNK         0.5000 
     61 O          -0.0819  -10.8358  -45.3969 O.2       2 UNK        -0.5000 
     62 CA         -2.4956  -10.8644  -45.3009 C.3       2 UNK         0.1400 
     63 CB         -2.4340   -9.3717  -44.9124 C.3       2 UNK        -0.1800 
     64 N          -3.2814  -11.0479  -46.5277 N.am      2 UNK        -0.5000 
     65 C          -2.9647  -10.6352  -47.7670 C.2       1 UNK         0.5000 
     66 O          -1.9355  -10.0213  -48.0473 O.2       1 UNK        -0.5000 
     67 C          -3.4848  -21.7073  -46.2138 C.2       11 UNK         0.5000 
     68 O          -4.4606  -22.1253  -46.8360 O.2       11 UNK        -0.5000 
     69 N          -3.2679  -21.9545  -44.9140 N.am      12 UNK        -0.5000 
     70 CA         -4.1355  -22.7766  -44.0707 C.3       12 UNK         0.1400 
     71 CB         -3.6803  -22.6805  -42.6069 C.3       12 UNK        -0.1800 
     72 C          -4.1999  -24.2425  -44.5359 C.2       12 UNK         0.5000 
     73 O          -5.2959  -24.7943  -44.6348 O.2       12 UNK        -0.5000 
     74 N          -3.0377  -24.8290  -44.8586 N.am      13 UNK        -0.5000 
     75 CA         -2.9086  -26.1891  -45.3902 C.3       13 UNK         0.1400 
     76 CB         -1.4226  -26.5718  -45.4587 C.3       13 UNK        -0.1800 
     77 C          -3.5795  -26.3675  -46.7662 C.2       13 UNK         0.5000 
     78 O          -4.2006  -27.4016  -47.0132 O.2       13 UNK        -0.5000 
     79 N          -3.4677  -25.3437  -47.6215 N.am      14 UNK        -0.5000 
     80 CA         -4.1038  -25.2672  -48.9365 C.3       14 UNK         0.1400 
     81 CB         -3.3975  -24.1731  -49.7496 C.3       14 UNK        -0.1800 
     82 C          -5.6155  -24.9713  -48.8839 C.2       14 UNK         0.5000 
     83 O          -6.2747  -25.0752  -49.9175 O.2       14 UNK        -0.5000 
     84 N          -6.1297  -24.5582  -47.7157 N.am      15 UNK        -0.5000 
     85 CA         -7.4856  -24.0485  -47.4802 C.3       15 UNK         0.1400 
     86 CB         -8.5379  -25.1615  -47.6648 C.3       15 UNK        -0.1800 
     87 C          -7.7785  -22.7806  -48.3138 C.2       15 UNK         0.5000 
     88 O          -8.8569  -22.6461  -48.8941 O.2       15 UNK        -0.5000 
     89 N          -6.7806  -21.8860  -48.3634 N.am      16 UNK        -0.5000 
     90 CA         -6.7343  -20.6037  -49.0723 C.3       16 UNK         0.1400 
     91 CB         -7.8206  -19.6412  -48.5494 C.3       16 UNK        -0.1800 
     92 C          -6.7281  -20.7119  -50.6130 C.2       16 UNK         0.5000 
     93 O          -6.9234  -19.6979  -51.2855 O.2       16 UNK        -0.5000 
     94 N          -6.4765  -21.9099  -51.1605 N.am      17 UNK        -0.5000 
     95 CA         -6.3085  -22.1390  -52.5944 C.3       17 UNK         0.1400 
     96 CB         -6.4796  -23.6356  -52.9013 C.3       17 UNK        -0.1800 
     97 C          -4.9305  -21.6306  -53.0496 C.2       17 UNK         0.5000 
     98 O          -3.9256  -22.3028  -52.8090 O.2       17 UNK        -0.5000 
     99 N          -4.9023  -20.4534  -53.6895 N.am      18 UNK        -0.5000 
    100 CA        -3.6915  -19.7589  -54.1456 C.3       18 UNK         0.1400 
    101 CB        -4.0865  -18.4372  -54.8197 C.3       18 UNK        -0.1800 
    102 C         -2.7975  -20.5959  -55.0799 C.2       18 UNK         0.5000 
    103 O         -1.5744  -20.5005  -54.9969 O.2       18 UNK        -0.5000 
    104 N         -3.4214  -21.4457  -55.9076 N.am      19 UNK        -0.5000 
    105 CA        -2.7509  -22.3856  -56.8092 C.3       19 UNK         0.1400 
    106 CB        -3.8098  -23.0819  -57.6777 C.3       19 UNK        -0.1800 
    107 C         -1.8738  -23.4306  -56.0878 C.2       19 UNK         0.5000 
    108 O         -0.9100  -23.9155  -56.6820 O.2       19 UNK        -0.5000 
    109 N         -2.2131  -23.7483  -54.8314 N.am      20 UNK        -0.5000 
    110 CA        -1.4310  -24.6162  -53.9565 C.3       20 UNK         0.1400 
    111 CB        -2.3776  -25.5554  -53.1927 C.3       20 UNK        -0.1800 
    112 C         -0.5722  -23.7846  -52.9900 C.2       20 UNK         0.5000 
    113 O          0.6204  -24.0615  -52.8549 O.2       20 UNK        -0.5000 
    114 N         -1.1797  -22.7733  -52.3502 N.am      21 UNK        -0.5000 
    115 CA        -0.5609  -21.9334  -51.3203 C.3       21 UNK         0.1400 
    116 CB        -1.6074  -20.9667  -50.7490 C.3       21 UNK        -0.1800 
    117 C          0.6691  -21.1461  -51.8060 C.2       21 UNK         0.5000 
    118 O          1.6367  -21.0199  -51.0551 O.2       21 UNK        -0.5000 
    119 N          0.6170  -20.6491  -53.0481 N.am      22 UNK        -0.5000 
    120 CA         1.7174  -19.9218  -53.7006 C.3       22 UNK         0.1400 
    121 C          2.7251  -20.8485  -54.4445 C.2       22 UNK         0.5000 
    122 N          2.6005  -22.1699  -54.3812 N.am      22 UNK        -0.7600 
    123 O          3.6531  -20.3603  -55.0838 O.2       22 UNK        -0.5000 
    124 C124        1.2131  -18.7691  -54.6164 C.3       23 UNK        -0.0398 
    125 S125       -0.0654  -17.6973  -53.8664 S.3       23 UNK        -0.2404 
    126 C126        0.8800  -16.8108  -52.5883 C.3       23 UNK        -0.0205 
    127 H127       -5.1281   -8.2656  -48.9212 H         1 UNK         0.0600 
    128 H128       -4.7561   -8.3945  -47.1915 H         1 UNK         0.0600 
    129 H129       -6.3200   -7.7875  -47.7231 H         1 UNK         0.0600 
    130 H130       -5.7983  -11.8791  -48.3510 H         1 UNK         0.3000 
    131 H131       -3.9423  -10.0975  -49.5956 H         1 UNK         0.0600 
    132 H132       -4.5152  -12.5170  -50.2654 H         1 UNK         0.0800 
    133 H133       -3.4948  -13.0525  -48.9685 H         1 UNK         0.0800 
    134 H134       -1.0068  -12.7245  -48.8474 H         1 UNK         0.0800 
    135 H135        0.0304  -12.4480  -50.2164 H         1 UNK         0.0800 
    136 H136        0.5028  -14.2003  -51.8413 H         1 UNK         0.1150 
    137 H137       -0.7501  -18.1925  -50.9215 H         1 UNK         0.1150 
    138 H138       -2.2839  -14.9023  -48.6562 H         1 UNK         0.1150 
    139 H139       -3.3207  -17.0978  -48.4612 H         1 UNK         0.0800 
    140 H140       -2.8367  -18.4150  -49.5087 H         1 UNK         0.0800 
    141 H141       -3.6487  -19.0779  -46.9695 H         1 UNK         0.0800 
    142 H142       -2.5599  -19.1586  -45.6157 H         1 UNK         0.0800 
    143 H143       -2.5781  -21.0476  -48.0203 H         1 UNK         0.0600 
    144 H144       -0.4211  -20.6737  -46.2400 H         1 UNK         0.3000 
    145 H145        0.8296  -24.0448  -46.2707 H         1 UNK         0.0600 
    146 H146        2.8845  -22.7693  -46.9112 H         1 UNK         0.0600 
    147 H147        1.7995  -23.0115  -48.2731 H         1 UNK         0.0600 
    148 H148        1.8832  -21.4425  -47.4963 H         1 UNK         0.0600 
    149 H149        1.6382  -21.6200  -44.9412 H         1 UNK         0.3000 
    150 H150       -0.3255  -22.1405  -41.9946 H         1 UNK         0.0600 
    151 H151        1.6474  -23.5559  -41.5785 H         1 UNK         0.0600 
    152 H152        1.9230  -21.9469  -40.9299 H         1 UNK         0.0600 
    153 H153        2.6907  -22.4376  -42.4398 H         1 UNK         0.0600 
    154 H154        1.6165  -20.1710  -42.8448 H         1 UNK         0.3000 
    155 H155       -0.6852  -18.0058  -44.4377 H         1 UNK         0.0600 
    156 H156        0.5724  -17.6453  -41.6665 H         1 UNK         0.0600 
    157 H157       -1.1459  -17.5001  -42.0251 H         1 UNK         0.0600 
    158 H158       -0.0066  -16.3598  -42.7227 H         1 UNK         0.0600 
    159 H159        1.9783  -17.4973  -43.7346 H         1 UNK         0.3000 
    160 H160        3.5793  -19.2738  -46.4323 H         1 UNK         0.0600 
    161 H161        3.2727  -16.3278  -45.6401 H         1 UNK         0.0600 
    162 H162        2.8874  -17.0107  -47.2124 H         1 UNK         0.0600 
    163 H163        4.5508  -17.0049  -46.6446 H         1 UNK         0.0600 
    164 H164        4.6399  -17.8566  -44.1769 H         1 UNK         0.3000 
    165 H165        4.7943  -20.6277  -41.9425 H         1 UNK         0.0600 
    166 H166        7.0804  -19.2912  -43.4779 H         1 UNK         0.0600 
    167 H167        7.2208  -20.0423  -41.8882 H         1 UNK         0.0600 
    168 H168        6.8000  -21.0129  -43.2909 H         1 UNK         0.0600 
    169 H169        4.3449  -18.7520  -40.9170 H         1 UNK         0.3000 
    170 H170        3.8382  -16.6467  -40.5364 H         1 UNK         0.0600 
    171 H171        6.6734  -15.4750  -40.4007 H         1 UNK         0.0600 
    172 H172        5.3721  -15.1701  -39.2490 H         1 UNK         0.0600 
    173 H173        6.0635  -16.7786  -39.3888 H         1 UNK         0.0600 
    174 H174        4.8758  -14.2088  -41.5401 H         1 UNK         0.3000 
    175 H175        3.0861  -12.8739  -42.7756 H         1 UNK         0.0600 
    176 H176        4.9861  -14.0713  -44.8747 H         1 UNK         0.0600 
    177 H177        4.5944  -12.3579  -44.7288 H         1 UNK         0.0600 
    178 H178        5.4683  -13.1688  -43.4447 H         1 UNK         0.0600 
    179 H179        2.6269  -13.8343  -45.4772 H         1 UNK         0.3000 
    180 H180        0.6674  -13.3815  -46.4415 H         1 UNK         0.0600 
    181 H181       -0.9103  -15.2784  -46.7026 H         1 UNK         0.0600 
    182 H182       -0.9495  -15.5268  -44.9596 H         1 UNK         0.0600 
    183 H183        0.5304  -15.8197  -45.8638 H         1 UNK         0.0600 
    184 H184       -1.9901  -13.3456  -45.4794 H         1 UNK         0.3000 
    185 H185       -3.0335  -11.3820  -44.5050 H         1 UNK         0.0600 
    186 H186       -3.4342   -8.9526  -44.8023 H         1 UNK         0.0600 
    187 H187       -1.9200   -9.2399  -43.9596 H         1 UNK         0.0600 
    188 H188       -1.9019   -8.7757  -45.6542 H         1 UNK         0.0600 
    189 H189       -4.1588  -11.5357  -46.4114 H         1 UNK         0.3000 
    190 H190       -2.4668  -21.5259  -44.4597 H         1 UNK         0.3000 
    191 H191       -5.1447  -22.3646  -44.1366 H         1 UNK         0.0600 
    192 H192       -4.3379  -23.2574  -41.9554 H         1 UNK         0.0600 
    193 H193       -3.6980  -21.6485  -42.2560 H         1 UNK         0.0600 
    194 H194       -2.6683  -23.0614  -42.4715 H         1 UNK         0.0600 
    195 H195       -2.1729  -24.3171  -44.7083 H         1 UNK         0.3000 
    196 H196       -3.4024  -26.8670  -44.6910 H         1 UNK         0.0600 
    197 H197       -0.8683  -25.9113  -46.1260 H         1 UNK         0.0600 
    198 H198       -0.9564  -26.5206  -44.4746 H         1 UNK         0.0600 
    199 H199       -1.2976  -27.5912  -45.8259 H         1 UNK         0.0600 
    200 H200       -2.8742  -24.5590  -47.3667 H         1 UNK         0.3000 
    201 H201       -3.9716  -26.2216  -49.4500 H         1 UNK         0.0600 
    202 H202       -3.8646  -24.0358  -50.7236 H         1 UNK         0.0600 
    203 H203       -3.4417  -23.2145  -49.2337 H         1 UNK         0.0600 
    204 H204       -2.3487  -24.4167  -49.9202 H         1 UNK         0.0600 
    205 H205       -5.4995  -24.4899  -46.9267 H         1 UNK         0.3000 
    206 H206       -7.5150  -23.7387  -46.4346 H         1 UNK         0.0600 
    207 H207       -8.2971  -26.0343  -47.0578 H         1 UNK         0.0600 
    208 H208       -9.5263  -24.8166  -47.3593 H         1 UNK         0.0600 
    209 H209       -8.6126  -25.4849  -48.7033 H         1 UNK         0.0600 
    210 H210       -5.9359  -22.1031  -47.8340 H         1 UNK         0.3000 
    211 H211       -5.7686  -20.1683  -48.8115 H         1 UNK         0.0600 
    212 H212       -7.6782  -18.6356  -48.9467 H         1 UNK         0.0600 
    213 H213       -7.7898  -19.5649  -47.4625 H         1 UNK         0.0600 
    214 H214       -8.8214  -19.9647  -48.8361 H         1 UNK         0.0600 
    215 H215       -6.3312  -22.7058  -50.5548 H         1 UNK         0.3000 
    216 H216       -7.0875  -21.5976  -53.1354 H         1 UNK         0.0600 
    217 H217       -5.7192  -24.2432  -52.4101 H         1 UNK         0.0600 
    218 H218       -6.4039  -23.8239  -53.9728 H         1 UNK         0.0600 
    219 H219       -7.4550  -23.9961  -52.5741 H         1 UNK         0.0600 
    220 H220       -5.7720  -19.9529  -53.8067 H         1 UNK         0.3000 
    221 H221       -3.1009  -19.5157  -53.2624 H         1 UNK         0.0600 
    222 H222       -4.6314  -17.7909  -54.1314 H         1 UNK         0.0600 
    223 H223       -4.7142  -18.6031  -55.6960 H         1 UNK         0.0600 
    224 H224       -3.2023  -17.8877  -55.1465 H         1 UNK         0.0600 
    225 H225       -4.4303  -21.4653  -55.8997 H         1 UNK         0.3000 
    226 H226       -2.0960  -21.8066  -57.4635 H         1 UNK         0.0600 
    227 H227       -4.5122  -23.6558  -57.0718 H         1 UNK         0.0600 
    228 H228       -4.3802  -22.3591  -58.2612 H         1 UNK         0.0600 
    229 H229       -3.3447  -23.7720  -58.3831 H         1 UNK         0.0600 
    230 H230       -2.9934  -23.2659  -54.4018 H         1 UNK         0.3000 
    231 H231       -0.7542  -25.2400  -54.5442 H         1 UNK         0.0600 
    232 H232       -3.1561  -25.0050  -52.6668 H         1 UNK         0.0600 
    233 H233       -1.8354  -26.1500  -52.4564 H         1 UNK         0.0600 
    234 H234       -2.8696  -26.2497  -53.8739 H         1 UNK         0.0600 
    235 H235       -2.1692  -22.6100  -52.5233 H         1 UNK         0.3000 
    236 H236       -0.2371  -22.5957  -50.5144 H         1 UNK         0.0600 
    237 H237       -1.9186  -20.2313  -51.4885 H         1 UNK         0.0600 
    238 H238       -2.4991  -21.4904  -50.4112 H         1 UNK         0.0600 
    239 H239       -1.1999  -20.4224  -49.8965 H         1 UNK         0.0600 
    240 H240       -0.2166  -20.7797  -53.6139 H         1 UNK         0.3000 
    241 H241        2.3183  -19.4551  -52.9199 H         1 UNK         0.0600 
    242 H242        3.2662  -22.7513  -54.8652 H         1 UNK         0.3800 
    243 H243        1.8666  -22.6012  -53.8335 H         1 UNK         0.3800 
    244 H244        0.7887  -19.1831  -55.5325 H         1 UNK         0.0800 
    245 H245        2.0470  -18.1387  -54.9294 H         1 UNK         0.0800 
    246 H246        1.5948  -17.4802  -52.1109 H         1 UNK         0.0800 
    247 H247        1.4615  -16.0174  -53.0598 H         1 UNK         0.0800 
@<TRIPOS>BOND
     1    1    2 1    
     2    1  127 1    
     3    1  128 1    
     4    1  129 1    
     5    2    3 2    
     6    2    4 am   BACKBONE|DICT|INTERRES
     7    4    5 1    
     8    4  130 1    
     9    5    6 1    
    10    5   65 1    
    11    5  131 1    
    12    6    7 1    
    13    6  132 1    
    14    6  133 1    
    15    7    8 1    
    16    8    9 1    
    17    8  134 1    
    18    8  135 1    
    19    9   10 ar   
    20    9   14 ar   
    21   10   11 ar   
    22   10  136 1    
    23   11   12 ar   
    24   11  126 1    
    25   12   13 ar   
    26   12  137 1    
    27   13   14 ar   
    28   13   15 1    
    29   14  138 1    
    30   15   16 1    
    31   15  139 1    
    32   15  140 1    
    33   16   17 1    
    34   17   18 1    
    35   17  141 1    
    36   17  142 1    
    37   18   19 1    
    38   18   67 1    
    39   18  143 1    
    40   19   20 am   BACKBONE|DICT|INTERRES
    41   19  144 1    
    42   20   21 2    
    43   20   22 1    
    44   22   23 1    
    45   22   24 1    
    46   22  145 1    
    47   23  146 1    
    48   23  147 1    
    49   23  148 1    
    50   24   25 am   BACKBONE|DICT|INTERRES
    51   24  149 1    
    52   25   26 2    
    53   25   27 1    
    54   27   28 1    
    55   27   29 1    
    56   27  150 1    
    57   28  151 1    
    58   28  152 1    
    59   28  153 1    
    60   29   30 am   BACKBONE|DICT|INTERRES
    61   29  154 1    
    62   30   31 2    
    63   30   32 1    
    64   32   33 1    
    65   32   34 1    
    66   32  155 1    
    67   33  156 1    
    68   33  157 1    
    69   33  158 1    
    70   34   35 am   BACKBONE|DICT|INTERRES
    71   34  159 1    
    72   35   36 2    
    73   35   37 1    
    74   37   38 1    
    75   37   39 1    
    76   37  160 1    
    77   38  161 1    
    78   38  162 1    
    79   38  163 1    
    80   39   40 am   BACKBONE|DICT|INTERRES
    81   39  164 1    
    82   40   41 2    
    83   40   42 1    
    84   42   43 1    
    85   42   44 1    
    86   42  165 1    
    87   43  166 1    
    88   43  167 1    
    89   43  168 1    
    90   44   45 am   BACKBONE|DICT|INTERRES
    91   44  169 1    
    92   45   46 2    
    93   45   47 1    
    94   47   48 1    
    95   47   49 1    
    96   47  170 1    
    97   48  171 1    
    98   48  172 1    
    99   48  173 1    
   100   49   50 am   BACKBONE|DICT|INTERRES
   101   49  174 1    
   102   50   51 2    
   103   50   52 1    
   104   52   53 1    
   105   52   54 1    
   106   52  175 1    
   107   53  176 1    
   108   53  177 1    
   109   53  178 1    
   110   54   55 am   BACKBONE|DICT|INTERRES
   111   54  179 1    
   112   55   56 2    
   113   55   57 1    
   114   57   58 1    
   115   57   59 1    
   116   57  180 1    
   117   58  181 1    
   118   58  182 1    
   119   58  183 1    
   120   59   60 am   BACKBONE|DICT|INTERRES
   121   59  184 1    
   122   60   61 2    
   123   60   62 1    
   124   62   63 1    
   125   62   64 1    
   126   62  185 1    
   127   63  186 1    
   128   63  187 1    
   129   63  188 1    
   130   64   65 am   BACKBONE|DICT|INTERRES
   131   64  189 1    
   132   65   66 2    
   133   67   68 2    
   134   67   69 am   BACKBONE|DICT|INTERRES
   135   69   70 1    
   136   69  190 1    
   137   70   71 1    
   138   70   72 1    
   139   70  191 1    
   140   71  192 1    
   141   71  193 1    
   142   71  194 1    
   143   72   73 2    
   144   72   74 am   BACKBONE|DICT|INTERRES
   145   74   75 1    
   146   74  195 1    
   147   75   76 1    
   148   75   77 1    
   149   75  196 1    
   150   76  197 1    
   151   76  198 1    
   152   76  199 1    
   153   77   78 2    
   154   77   79 am   BACKBONE|DICT|INTERRES
   155   79   80 1    
   156   79  200 1    
   157   80   81 1    
   158   80   82 1    
   159   80  201 1    
   160   81  202 1    
   161   81  203 1    
   162   81  204 1    
   163   82   83 2    
   164   82   84 am   BACKBONE|DICT|INTERRES
   165   84   85 1    
   166   84  205 1    
   167   85   86 1    
   168   85   87 1    
   169   85  206 1    
   170   86  207 1    
   171   86  208 1    
   172   86  209 1    
   173   87   88 2    
   174   87   89 am   BACKBONE|DICT|INTERRES
   175   89   90 1    
   176   89  210 1    
   177   90   91 1    
   178   90   92 1    
   179   90  211 1    
   180   91  212 1    
   181   91  213 1    
   182   91  214 1    
   183   92   93 2    
   184   92   94 am   BACKBONE|DICT|INTERRES
   185   94   95 1    
   186   94  215 1    
   187   95   96 1    
   188   95   97 1    
   189   95  216 1    
   190   96  217 1    
   191   96  218 1    
   192   96  219 1    
   193   97   98 2    
   194   97   99 am   BACKBONE|DICT|INTERRES
   195   99  100 1    
   196   99  220 1    
   197  100  101 1    
   198  100  102 1    
   199  100  221 1    
   200  101  222 1    
   201  101  223 1    
   202  101  224 1    
   203  102  103 2    
   204  102  104 am   BACKBONE|DICT|INTERRES
   205  104  105 1    
   206  104  225 1    
   207  105  106 1    
   208  105  107 1    
   209  105  226 1    
   210  106  227 1    
   211  106  228 1    
   212  106  229 1    
   213  107  108 2    
   214  107  109 am   BACKBONE|DICT|INTERRES
   215  109  110 1    
   216  109  230 1    
   217  110  111 1    
   218  110  112 1    
   219  110  231 1    
   220  111  232 1    
   221  111  233 1    
   222  111  234 1    
   223  112  113 2    
   224  112  114 am   BACKBONE|DICT|INTERRES
   225  114  115 1    
   226  114  235 1    
   227  115  116 1    
   228  115  117 1    
   229  115  236 1    
   230  116  237 1    
   231  116  238 1    
   232  116  239 1    
   233  117  118 2    
   234  117  119 am   BACKBONE|DICT|INTERRES
   235  119  120 1    
   236  119  240 1    
   237  120  121 1    
   238  120  124 1    
   239  120  241 1    
   240  121  122 am   BACKBONE|DICT|INTERRES
   241  121  123 2    
   242  122  242 1    
   243  122  243 1    
   244  124  125 1    
   245  124  244 1    
   246  124  245 1    
   247  125  126 1    
   248  126  246 1    
   249  126  247 1    
@<TRIPOS>SUBSTRUCTURE
     1 UNK         1 GROUP             0       ****    0 ROOT    
