@<TRIPOS>MOLECULE
3R540
247   249    1
SMALL
USER_CHARGES


@<TRIPOS>ATOM
      1 CA         -6.1406  -14.4323  -49.4117 C.3       0 UNK        -0.1800 
      2 C          -4.9790  -13.9505  -48.5537 C.2       0 UNK         0.5000 
      3 O          -5.0516  -12.8656  -47.9769 O.2       0 UNK        -0.5000 
      4 N          -3.9136  -14.7549  -48.4621 N.am      1 UNK        -0.5000 
      5 CA         -2.6967  -14.4673  -47.6881 C.3       1 UNK         0.1400 
      6 C6         -1.4732  -15.2433  -48.2401 C.3       23 UNK        -0.0398 
      7 S7         -1.1234  -14.7787  -49.9724 S.3       23 UNK        -0.2404 
      8 C8          0.6725  -15.0392  -50.0981 C.3       23 UNK        -0.0205 
      9 C9          1.0106  -16.4623  -50.5161 C.ar      23 UNK        -0.0193 
     10 C10         0.8905  -16.8389  -51.8571 C.ar      23 UNK        -0.1150 
     11 C11         1.2336  -18.1291  -52.2701 C.ar      23 UNK        -0.0193 
     12 C12         1.7008  -19.0462  -51.3234 C.ar      23 UNK        -0.1150 
     13 C13         1.8301  -18.6835  -49.9793 C.ar      23 UNK        -0.0193 
     14 C14         1.4755  -17.3902  -49.5800 C.ar      23 UNK        -0.1150 
     15 C15         2.4222  -19.6573  -48.9697 C.3       23 UNK        -0.0205 
     16 S16         1.6287  -21.2980  -48.9658 S.3       23 UNK        -0.2404 
     17 C17         0.0220  -20.9731  -48.1655 C.3       23 UNK        -0.0398 
     18 CA         -0.3954  -22.1560  -47.2578 C.3       11 UNK         0.1400 
     19 N           0.4405  -22.2640  -46.0520 N.am      11 UNK        -0.5000 
     20 C           0.4628  -23.3068  -45.2077 C.2       10 UNK         0.5000 
     21 O          -0.2136  -24.3242  -45.3665 O.2       10 UNK        -0.5000 
     22 CA          1.3306  -23.1579  -43.9443 C.3       10 UNK         0.1400 
     23 CB          2.8098  -23.4445  -44.2453 C.3       10 UNK        -0.1800 
     24 N           1.1860  -21.8222  -43.3605 N.am      10 UNK        -0.5000 
     25 C           0.1629  -21.4538  -42.5749 C.2       9 UNK         0.5000 
     26 O          -0.6866  -22.2420  -42.1619 O.2       9 UNK        -0.5000 
     27 CA          0.0392  -19.9613  -42.1983 C.3       9 UNK         0.1400 
     28 CB          0.6651  -19.6930  -40.8219 C.3       9 UNK        -0.1800 
     29 N           0.6343  -19.0526  -43.1771 N.am      9 UNK        -0.5000 
     30 C           0.2144  -18.9038  -44.4408 C.2       8 UNK         0.5000 
     31 O          -0.7455  -19.4997  -44.9232 O.2       8 UNK        -0.5000 
     32 CA          1.0725  -17.9998  -45.3418 C.3       8 UNK         0.1400 
     33 CB          0.6807  -16.5255  -45.1771 C.3       8 UNK        -0.1800 
     34 N           2.5091  -18.1730  -45.1047 N.am      8 UNK        -0.5000 
     35 C           3.1710  -19.3269  -45.2821 C.2       7 UNK         0.5000 
     36 O           2.6347  -20.3628  -45.6716 O.2       7 UNK        -0.5000 
     37 CA          4.6653  -19.3363  -44.9211 C.3       7 UNK         0.1400 
     38 CB          5.4883  -18.5936  -45.9846 C.3       7 UNK        -0.1800 
     39 N           4.9066  -18.7438  -43.6069 N.am      7 UNK        -0.5000 
     40 C           4.4961  -19.2792  -42.4475 C.2       6 UNK         0.5000 
     41 O           3.9548  -20.3808  -42.3561 O.2       6 UNK        -0.5000 
     42 CA          4.6802  -18.4145  -41.1841 C.3       6 UNK         0.1400 
     43 CB          6.0364  -18.7047  -40.5244 C.3       6 UNK        -0.1800 
     44 N           4.5642  -16.9744  -41.4426 N.am      6 UNK        -0.5000 
     45 C           3.4651  -16.3763  -41.9195 C.2       5 UNK         0.5000 
     46 O           2.4186  -16.9785  -42.1820 O.2       5 UNK        -0.5000 
     47 CA          3.5685  -14.8707  -42.2013 C.3       5 UNK         0.1400 
     48 CB          4.4656  -14.5930  -43.4212 C.3       5 UNK        -0.1800 
     49 N           2.2256  -14.3766  -42.4641 N.am      5 UNK        -0.5000 
     50 C           1.7700  -13.1374  -42.2667 C.2       4 UNK         0.5000 
     51 O           2.4768  -12.2019  -41.8891 O.2       4 UNK        -0.5000 
     52 CA          0.2676  -12.8997  -42.5332 C.3       4 UNK         0.1400 
     53 CB          0.0741  -12.1384  -43.8538 C.3       4 UNK        -0.1800 
     54 N          -0.5434  -14.1231  -42.5775 N.am      4 UNK        -0.5000 
     55 C          -0.7744  -14.9398  -41.5367 C.2       3 UNK         0.5000 
     56 O          -0.3219  -14.7476  -40.4077 O.2       3 UNK        -0.5000 
     57 CA         -1.6845  -16.1481  -41.8136 C.3       3 UNK         0.1400 
     58 CB         -2.1885  -16.8512  -40.5396 C.3       3 UNK        -0.1800 
     59 N          -2.8155  -15.7049  -42.6199 N.am      3 UNK        -0.5000 
     60 C          -3.3890  -16.3987  -43.6060 C.2       2 UNK         0.5000 
     61 O          -3.0973  -17.5596  -43.8865 O.2       2 UNK        -0.5000 
     62 CA         -4.4607  -15.6664  -44.4388 C.3       2 UNK         0.1400 
     63 CB         -4.9995  -14.3767  -43.7793 C.3       2 UNK        -0.1800 
     64 N          -3.9971  -15.3715  -45.7972 N.am      2 UNK        -0.5000 
     65 C          -2.8911  -14.7070  -46.1717 C.2       1 UNK         0.5000 
     66 O          -2.0516  -14.2708  -45.3808 O.2       1 UNK        -0.5000 
     67 C          -1.9123  -22.1294  -46.9608 C.2       11 UNK         0.5000 
     68 O          -2.7044  -22.3646  -47.8747 O.2       11 UNK        -0.5000 
     69 N          -2.3038  -21.9223  -45.6949 N.am      12 UNK        -0.5000 
     70 CA         -3.6661  -22.0622  -45.1715 C.3       12 UNK         0.1400 
     71 CB         -3.6771  -21.6992  -43.6813 C.3       12 UNK        -0.1800 
     72 C          -4.2913  -23.4554  -45.3990 C.2       12 UNK         0.5000 
     73 O          -5.5171  -23.5634  -45.4218 O.2       12 UNK        -0.5000 
     74 N          -3.4591  -24.4817  -45.6367 N.am      13 UNK        -0.5000 
     75 CA         -3.8710  -25.8081  -46.1074 C.3       13 UNK         0.1400 
     76 CB         -2.6456  -26.7336  -46.1165 C.3       13 UNK        -0.1800 
     77 C          -4.5423  -25.7895  -47.5004 C.2       13 UNK         0.5000 
     78 O          -5.3626  -26.6618  -47.7861 O.2       13 UNK        -0.5000 
     79 N          -4.2124  -24.7823  -48.3210 N.am      14 UNK        -0.5000 
     80 CA         -4.8330  -24.4760  -49.6117 C.3       14 UNK         0.1400 
     81 CB         -3.7203  -24.3046  -50.6623 C.3       14 UNK        -0.1800 
     82 C          -5.7184  -23.2151  -49.5005 C.2       14 UNK         0.5000 
     83 O          -5.8789  -22.4855  -50.4797 O.2       14 UNK        -0.5000 
     84 N          -6.2386  -22.9499  -48.2905 N.am      15 UNK        -0.5000 
     85 CA         -7.0570  -21.7997  -47.8818 C.3       15 UNK         0.1400 
     86 CB         -8.3848  -21.7639  -48.6668 C.3       15 UNK        -0.1800 
     87 C          -6.3203  -20.4430  -47.9305 C.2       15 UNK         0.5000 
     88 O          -6.9623  -19.4047  -47.7688 O.2       15 UNK        -0.5000 
     89 N          -4.9969  -20.4699  -48.1574 N.am      16 UNK        -0.5000 
     90 CA         -4.0921  -19.3328  -48.3528 C.3       16 UNK         0.1400 
     91 CB         -3.9442  -18.5151  -47.0561 C.3       16 UNK        -0.1800 
     92 C          -4.4425  -18.4628  -49.5780 C.2       16 UNK         0.5000 
     93 O          -4.0026  -17.3151  -49.6565 O.2       16 UNK        -0.5000 
     94 N          -5.2109  -19.0233  -50.5211 N.am      17 UNK        -0.5000 
     95 CA         -5.5303  -18.4128  -51.8038 C.3       17 UNK         0.1400 
     96 CB         -6.8103  -19.0542  -52.3614 C.3       17 UNK        -0.1800 
     97 C          -4.3453  -18.6383  -52.7481 C.2       17 UNK         0.5000 
     98 O          -3.9816  -19.7920  -52.9849 O.2       17 UNK        -0.5000 
     99 N          -3.7573  -17.5509  -53.2613 N.am      18 UNK        -0.5000 
    100 CA        -2.5234  -17.5749  -54.0516 C.3       18 UNK         0.1400 
    101 CB        -2.0956  -16.1373  -54.3794 C.3       18 UNK        -0.1800 
    102 C         -2.6084  -18.4295  -55.3314 C.2       18 UNK         0.5000 
    103 O         -1.6383  -19.1005  -55.6821 O.2       18 UNK        -0.5000 
    104 N         -3.7850  -18.4311  -55.9716 N.am      19 UNK        -0.5000 
    105 CA        -4.0870  -19.2339  -57.1580 C.3       19 UNK         0.1400 
    106 CB        -5.4273  -18.7663  -57.7457 C.3       19 UNK        -0.1800 
    107 C         -4.1175  -20.7527  -56.8900 C.2       19 UNK         0.5000 
    108 O         -3.8885  -21.5285  -57.8185 O.2       19 UNK        -0.5000 
    109 N         -4.3993  -21.1496  -55.6416 N.am      20 UNK        -0.5000 
    110 CA        -4.3930  -22.5405  -55.1971 C.3       20 UNK         0.1400 
    111 CB        -5.5013  -22.7519  -54.1521 C.3       20 UNK        -0.1800 
    112 C         -3.0177  -22.9116  -54.6239 C.2       20 UNK         0.5000 
    113 O         -2.4279  -23.9053  -55.0494 O.2       20 UNK        -0.5000 
    114 N         -2.5240  -22.0926  -53.6853 N.am      21 UNK        -0.5000 
    115 CA        -1.2930  -22.3140  -52.9258 C.3       21 UNK         0.1400 
    116 CB        -1.1988  -21.2569  -51.8163 C.3       21 UNK        -0.1800 
    117 C         -0.0102  -22.3341  -53.7790 C.2       21 UNK         0.5000 
    118 O          0.9213  -23.0662  -53.4429 O.2       21 UNK        -0.5000 
    119 N          0.0044  -21.5570  -54.8677 N.am      22 UNK        -0.5000 
    120 CA         1.0932  -21.4948  -55.8570 C.3       22 UNK         0.1400 
    121 C          0.6647  -22.0824  -57.2348 C.2       22 UNK         0.5000 
    122 N         -0.4302  -22.8294  -57.3297 N.am      22 UNK        -0.7600 
    123 O          1.3439  -21.8796  -58.2379 O.2       22 UNK        -0.5000 
    124 C124        1.6821  -20.0613  -55.9826 C.3       23 UNK        -0.0398 
    125 S125        2.4430  -19.4590  -54.4333 S.3       23 UNK        -0.2404 
    126 C126        1.0436  -18.5333  -53.7264 C.3       23 UNK        -0.0205 
    127 H127       -6.3294  -13.7246  -50.2189 H         1 UNK         0.0600 
    128 H128       -7.0447  -14.5130  -48.8084 H         1 UNK         0.0600 
    129 H129       -5.9413  -15.4076  -49.8556 H         1 UNK         0.0600 
    130 H130       -3.9086  -15.6384  -48.9715 H         1 UNK         0.3000 
    131 H131       -2.4779  -13.4024  -47.7933 H         1 UNK         0.0600 
    132 H132       -1.6323  -16.3212  -48.1941 H         1 UNK         0.0800 
    133 H133       -0.5902  -15.0325  -47.6350 H         1 UNK         0.0800 
    134 H134        1.1640  -14.7781  -49.1599 H         1 UNK         0.0800 
    135 H135        1.0692  -14.3484  -50.8437 H         1 UNK         0.0800 
    136 H136        0.5241  -16.1218  -52.5783 H         1 UNK         0.1150 
    137 H137        1.9710  -20.0457  -51.6341 H         1 UNK         0.1150 
    138 H138        1.5865  -17.0948  -48.5463 H         1 UNK         0.1150 
    139 H139        3.4804  -19.7874  -49.1989 H         1 UNK         0.0800 
    140 H140        2.3789  -19.2336  -47.9707 H         1 UNK         0.0800 
    141 H141       -0.7068  -20.8059  -48.9593 H         1 UNK         0.0800 
    142 H142        0.0623  -20.0472  -47.5933 H         1 UNK         0.0800 
    143 H143       -0.2404  -23.0754  -47.8267 H         1 UNK         0.0600 
    144 H144        1.0705  -21.4870  -45.8730 H         1 UNK         0.3000 
    145 H145        0.9942  -23.9001  -43.2173 H         1 UNK         0.0600 
    146 H146        3.4231  -23.3264  -43.3516 H         1 UNK         0.0600 
    147 H147        2.9406  -24.4681  -44.5980 H         1 UNK         0.0600 
    148 H148        3.2100  -22.7838  -45.0135 H         1 UNK         0.0600 
    149 H149        1.8540  -21.1223  -43.6565 H         1 UNK         0.3000 
    150 H150       -1.0257  -19.7254  -42.1401 H         1 UNK         0.0600 
    151 H151        0.1765  -20.2875  -40.0491 H         1 UNK         0.0600 
    152 H152        0.5679  -18.6449  -40.5388 H         1 UNK         0.0600 
    153 H153        1.7253  -19.9452  -40.8083 H         1 UNK         0.0600 
    154 H154        1.4208  -18.4924  -42.8607 H         1 UNK         0.3000 
    155 H155        0.8705  -18.2780  -46.3761 H         1 UNK         0.0600 
    156 H156        0.8614  -16.1702  -44.1652 H         1 UNK         0.0600 
    157 H157       -0.3809  -16.3888  -45.3834 H         1 UNK         0.0600 
    158 H158        1.2337  -15.8858  -45.8649 H         1 UNK         0.0600 
    159 H159        3.0073  -17.3798  -44.7320 H         1 UNK         0.3000 
    160 H160        4.9976  -20.3765  -44.8959 H         1 UNK         0.0600 
    161 H161        5.2272  -17.5359  -46.0368 H         1 UNK         0.0600 
    162 H162        5.3227  -19.0219  -46.9742 H         1 UNK         0.0600 
    163 H163        6.5559  -18.6650  -45.7756 H         1 UNK         0.0600 
    164 H164        5.3561  -17.8409  -43.5855 H         1 UNK         0.3000 
    165 H165        3.8922  -18.6902  -40.4804 H         1 UNK         0.0600 
    166 H166        6.1416  -18.1638  -39.5837 H         1 UNK         0.0600 
    167 H167        6.1417  -19.7671  -40.3000 H         1 UNK         0.0600 
    168 H168        6.8681  -18.4215  -41.1706 H         1 UNK         0.0600 
    169 H169        5.3846  -16.4166  -41.2534 H         1 UNK         0.3000 
    170 H170        3.9752  -14.3798  -41.3148 H         1 UNK         0.0600 
    171 H171        5.4835  -14.9467  -43.2546 H         1 UNK         0.0600 
    172 H172        4.0872  -15.0835  -44.3189 H         1 UNK         0.0600 
    173 H173        4.5277  -13.5245  -43.6284 H         1 UNK         0.0600 
    174 H174        1.5646  -15.1055  -42.6962 H         1 UNK         0.3000 
    175 H175       -0.1101  -12.2766  -41.7200 H         1 UNK         0.0600 
    176 H176        0.4115  -12.7270  -44.7081 H         1 UNK         0.0600 
    177 H177       -0.9746  -11.8876  -44.0148 H         1 UNK         0.0600 
    178 H178        0.6352  -11.2030  -43.8554 H         1 UNK         0.0600 
    179 H179       -0.9788  -14.3323  -43.4701 H         1 UNK         0.3000 
    180 H180       -1.0828  -16.8589  -42.3830 H         1 UNK         0.0600 
    181 H181       -2.7906  -17.7258  -40.7866 H         1 UNK         0.0600 
    182 H182       -2.7983  -16.1846  -39.9291 H         1 UNK         0.0600 
    183 H183       -1.3567  -17.1952  -39.9242 H         1 UNK         0.0600 
    184 H184       -3.1075  -14.7481  -42.4752 H         1 UNK         0.3000 
    185 H185       -5.2960  -16.3611  -44.5376 H         1 UNK         0.0600 
    186 H186       -5.8247  -13.9632  -44.3594 H         1 UNK         0.0600 
    187 H187       -5.3823  -14.5749  -42.7773 H         1 UNK         0.0600 
    188 H188       -4.2368  -13.6009  -43.7015 H         1 UNK         0.0600 
    189 H189       -4.6012  -15.6925  -46.5392 H         1 UNK         0.3000 
    190 H190       -1.5942  -21.6434  -45.0305 H         1 UNK         0.3000 
    191 H191       -4.2931  -21.3403  -45.6925 H         1 UNK         0.0600 
    192 H192       -4.6967  -21.6730  -43.2951 H         1 UNK         0.0600 
    193 H193       -3.2384  -20.7155  -43.5090 H         1 UNK         0.0600 
    194 H194       -3.1234  -22.4276  -43.0893 H         1 UNK         0.0600 
    195 H195       -2.4611  -24.3171  -45.5773 H         1 UNK         0.3000 
    196 H196       -4.5980  -26.2053  -45.3962 H         1 UNK         0.0600 
    197 H197       -1.8739  -26.3707  -46.7969 H         1 UNK         0.0600 
    198 H198       -2.2038  -26.8131  -45.1229 H         1 UNK         0.0600 
    199 H199       -2.9174  -27.7414  -46.4333 H         1 UNK         0.0600 
    200 H200       -3.5473  -24.0862  -47.9965 H         1 UNK         0.3000 
    201 H201       -5.4805  -25.2949  -49.9302 H         1 UNK         0.0600 
    202 H202       -3.0683  -23.4652  -50.4198 H         1 UNK         0.0600 
    203 H203       -4.1353  -24.1228  -51.6541 H         1 UNK         0.0600 
    204 H204       -3.1016  -25.1993  -50.7305 H         1 UNK         0.0600 
    205 H205       -6.0167  -23.5888  -47.5364 H         1 UNK         0.3000 
    206 H206       -7.3027  -21.9664  -46.8323 H         1 UNK         0.0600 
    207 H207       -8.8948  -22.7262  -48.6241 H         1 UNK         0.0600 
    208 H208       -9.0652  -21.0199  -48.2513 H         1 UNK         0.0600 
    209 H209       -8.2306  -21.5108  -49.7162 H         1 UNK         0.0600 
    210 H210       -4.5569  -21.3758  -48.2678 H         1 UNK         0.3000 
    211 H211       -3.1150  -19.7607  -48.5777 H         1 UNK         0.0600 
    212 H212       -3.1735  -17.7532  -47.1593 H         1 UNK         0.0600 
    213 H213       -3.6442  -19.1452  -46.2196 H         1 UNK         0.0600 
    214 H214       -4.8725  -18.0139  -46.7832 H         1 UNK         0.0600 
    215 H215       -5.4830  -19.9907  -50.4071 H         1 UNK         0.3000 
    216 H216       -5.7039  -17.3429  -51.6712 H         1 UNK         0.0600 
    217 H217       -6.7008  -20.1320  -52.4903 H         1 UNK         0.0600 
    218 H218       -7.0693  -18.6305  -53.3324 H         1 UNK         0.0600 
    219 H219       -7.6559  -18.8843  -51.6947 H         1 UNK         0.0600 
    220 H220       -4.1115  -16.6391  -53.0113 H         1 UNK         0.3000 
    221 H221       -1.7584  -18.0150  -53.4124 H         1 UNK         0.0600 
    222 H222       -1.9235  -15.5608  -53.4700 H         1 UNK         0.0600 
    223 H223       -2.8505  -15.6174  -54.9704 H         1 UNK         0.0600 
    224 H224       -1.1661  -16.1260  -54.9501 H         1 UNK         0.0600 
    225 H225       -4.5316  -17.8591  -55.6054 H         1 UNK         0.3000 
    226 H226       -3.3053  -19.0487  -57.8977 H         1 UNK         0.0600 
    227 H227       -6.2470  -18.9080  -57.0402 H         1 UNK         0.0600 
    228 H228       -5.3936  -17.7106  -58.0156 H         1 UNK         0.0600 
    229 H229       -5.6730  -19.3237  -58.6506 H         1 UNK         0.0600 
    230 H230       -4.5108  -20.4491  -54.9194 H         1 UNK         0.3000 
    231 H231       -4.6008  -23.2039  -56.0394 H         1 UNK         0.0600 
    232 H232       -5.3517  -22.1365  -53.2644 H         1 UNK         0.0600 
    233 H233       -5.5345  -23.7917  -53.8251 H         1 UNK         0.0600 
    234 H234       -6.4811  -22.5093  -54.5634 H         1 UNK         0.0600 
    235 H235       -3.0756  -21.2812  -53.4109 H         1 UNK         0.3000 
    236 H236       -1.3748  -23.2935  -52.4505 H         1 UNK         0.0600 
    237 H237       -2.0256  -21.3477  -51.1117 H         1 UNK         0.0600 
    238 H238       -0.2729  -21.3704  -51.2540 H         1 UNK         0.0600 
    239 H239       -1.2183  -20.2443  -52.2180 H         1 UNK         0.0600 
    240 H240       -0.8000  -20.9753  -55.0731 H         1 UNK         0.3000 
    241 H241        1.9111  -22.1418  -55.5363 H         1 UNK         0.0600 
    242 H242       -0.6963  -23.2034  -58.2267 H         1 UNK         0.3800 
    243 H243       -0.9790  -23.0556  -56.5111 H         1 UNK         0.3800 
    244 H244        0.9207  -19.3576  -56.3211 H         1 UNK         0.0800 
    245 H245        2.4653  -20.0393  -56.7418 H         1 UNK         0.0800 
    246 H246        0.1565  -19.1572  -53.7763 H         1 UNK         0.0800 
    247 H247        0.8504  -17.6607  -54.3520 H         1 UNK         0.0800 
@<TRIPOS>BOND
     1    1    2 1    
     2    1  127 1    
     3    1  128 1    
     4    1  129 1    
     5    2    3 2    
     6    2    4 am   BACKBONE|DICT|INTERRES
     7    4    5 1    
     8    4  130 1    
     9    5    6 1    
    10    5   65 1    
    11    5  131 1    
    12    6    7 1    
    13    6  132 1    
    14    6  133 1    
    15    7    8 1    
    16    8    9 1    
    17    8  134 1    
    18    8  135 1    
    19    9   10 ar   
    20    9   14 ar   
    21   10   11 ar   
    22   10  136 1    
    23   11   12 ar   
    24   11  126 1    
    25   12   13 ar   
    26   12  137 1    
    27   13   14 ar   
    28   13   15 1    
    29   14  138 1    
    30   15   16 1    
    31   15  139 1    
    32   15  140 1    
    33   16   17 1    
    34   17   18 1    
    35   17  141 1    
    36   17  142 1    
    37   18   19 1    
    38   18   67 1    
    39   18  143 1    
    40   19   20 am   BACKBONE|DICT|INTERRES
    41   19  144 1    
    42   20   21 2    
    43   20   22 1    
    44   22   23 1    
    45   22   24 1    
    46   22  145 1    
    47   23  146 1    
    48   23  147 1    
    49   23  148 1    
    50   24   25 am   BACKBONE|DICT|INTERRES
    51   24  149 1    
    52   25   26 2    
    53   25   27 1    
    54   27   28 1    
    55   27   29 1    
    56   27  150 1    
    57   28  151 1    
    58   28  152 1    
    59   28  153 1    
    60   29   30 am   BACKBONE|DICT|INTERRES
    61   29  154 1    
    62   30   31 2    
    63   30   32 1    
    64   32   33 1    
    65   32   34 1    
    66   32  155 1    
    67   33  156 1    
    68   33  157 1    
    69   33  158 1    
    70   34   35 am   BACKBONE|DICT|INTERRES
    71   34  159 1    
    72   35   36 2    
    73   35   37 1    
    74   37   38 1    
    75   37   39 1    
    76   37  160 1    
    77   38  161 1    
    78   38  162 1    
    79   38  163 1    
    80   39   40 am   BACKBONE|DICT|INTERRES
    81   39  164 1    
    82   40   41 2    
    83   40   42 1    
    84   42   43 1    
    85   42   44 1    
    86   42  165 1    
    87   43  166 1    
    88   43  167 1    
    89   43  168 1    
    90   44   45 am   BACKBONE|DICT|INTERRES
    91   44  169 1    
    92   45   46 2    
    93   45   47 1    
    94   47   48 1    
    95   47   49 1    
    96   47  170 1    
    97   48  171 1    
    98   48  172 1    
    99   48  173 1    
   100   49   50 am   BACKBONE|DICT|INTERRES
   101   49  174 1    
   102   50   51 2    
   103   50   52 1    
   104   52   53 1    
   105   52   54 1    
   106   52  175 1    
   107   53  176 1    
   108   53  177 1    
   109   53  178 1    
   110   54   55 am   BACKBONE|DICT|INTERRES
   111   54  179 1    
   112   55   56 2    
   113   55   57 1    
   114   57   58 1    
   115   57   59 1    
   116   57  180 1    
   117   58  181 1    
   118   58  182 1    
   119   58  183 1    
   120   59   60 am   BACKBONE|DICT|INTERRES
   121   59  184 1    
   122   60   61 2    
   123   60   62 1    
   124   62   63 1    
   125   62   64 1    
   126   62  185 1    
   127   63  186 1    
   128   63  187 1    
   129   63  188 1    
   130   64   65 am   BACKBONE|DICT|INTERRES
   131   64  189 1    
   132   65   66 2    
   133   67   68 2    
   134   67   69 am   BACKBONE|DICT|INTERRES
   135   69   70 1    
   136   69  190 1    
   137   70   71 1    
   138   70   72 1    
   139   70  191 1    
   140   71  192 1    
   141   71  193 1    
   142   71  194 1    
   143   72   73 2    
   144   72   74 am   BACKBONE|DICT|INTERRES
   145   74   75 1    
   146   74  195 1    
   147   75   76 1    
   148   75   77 1    
   149   75  196 1    
   150   76  197 1    
   151   76  198 1    
   152   76  199 1    
   153   77   78 2    
   154   77   79 am   BACKBONE|DICT|INTERRES
   155   79   80 1    
   156   79  200 1    
   157   80   81 1    
   158   80   82 1    
   159   80  201 1    
   160   81  202 1    
   161   81  203 1    
   162   81  204 1    
   163   82   83 2    
   164   82   84 am   BACKBONE|DICT|INTERRES
   165   84   85 1    
   166   84  205 1    
   167   85   86 1    
   168   85   87 1    
   169   85  206 1    
   170   86  207 1    
   171   86  208 1    
   172   86  209 1    
   173   87   88 2    
   174   87   89 am   BACKBONE|DICT|INTERRES
   175   89   90 1    
   176   89  210 1    
   177   90   91 1    
   178   90   92 1    
   179   90  211 1    
   180   91  212 1    
   181   91  213 1    
   182   91  214 1    
   183   92   93 2    
   184   92   94 am   BACKBONE|DICT|INTERRES
   185   94   95 1    
   186   94  215 1    
   187   95   96 1    
   188   95   97 1    
   189   95  216 1    
   190   96  217 1    
   191   96  218 1    
   192   96  219 1    
   193   97   98 2    
   194   97   99 am   BACKBONE|DICT|INTERRES
   195   99  100 1    
   196   99  220 1    
   197  100  101 1    
   198  100  102 1    
   199  100  221 1    
   200  101  222 1    
   201  101  223 1    
   202  101  224 1    
   203  102  103 2    
   204  102  104 am   BACKBONE|DICT|INTERRES
   205  104  105 1    
   206  104  225 1    
   207  105  106 1    
   208  105  107 1    
   209  105  226 1    
   210  106  227 1    
   211  106  228 1    
   212  106  229 1    
   213  107  108 2    
   214  107  109 am   BACKBONE|DICT|INTERRES
   215  109  110 1    
   216  109  230 1    
   217  110  111 1    
   218  110  112 1    
   219  110  231 1    
   220  111  232 1    
   221  111  233 1    
   222  111  234 1    
   223  112  113 2    
   224  112  114 am   BACKBONE|DICT|INTERRES
   225  114  115 1    
   226  114  235 1    
   227  115  116 1    
   228  115  117 1    
   229  115  236 1    
   230  116  237 1    
   231  116  238 1    
   232  116  239 1    
   233  117  118 2    
   234  117  119 am   BACKBONE|DICT|INTERRES
   235  119  120 1    
   236  119  240 1    
   237  120  121 1    
   238  120  124 1    
   239  120  241 1    
   240  121  122 am   BACKBONE|DICT|INTERRES
   241  121  123 2    
   242  122  242 1    
   243  122  243 1    
   244  124  125 1    
   245  124  244 1    
   246  124  245 1    
   247  125  126 1    
   248  126  246 1    
   249  126  247 1    
@<TRIPOS>SUBSTRUCTURE
     1 UNK         1 GROUP             0       ****    0 ROOT    
