@<TRIPOS>MOLECULE
3R540
247   249    1
SMALL
USER_CHARGES


@<TRIPOS>ATOM
      1 CA         -2.3161  -12.8547  -46.3091 C.3       0 UNK        -0.1800 
      2 C          -1.1365  -12.7392  -47.2628 C.2       0 UNK         0.5000 
      3 O          -1.2739  -12.1563  -48.3390 O.2       0 UNK        -0.5000 
      4 N           0.0230  -13.2790  -46.8676 N.am      1 UNK        -0.5000 
      5 CA          1.2938  -13.1057  -47.5787 C.3       1 UNK         0.1400 
      6 C6          2.2876  -14.2777  -47.3391 C.3       23 UNK        -0.0398 
      7 S7          1.5903  -15.9483  -47.5294 S.3       23 UNK        -0.2404 
      8 C8          1.1569  -16.0373  -49.2925 C.3       23 UNK        -0.0205 
      9 C9          0.2550  -17.2359  -49.5445 C.ar      23 UNK        -0.0193 
     10 C10        -1.1338  -17.0903  -49.4907 C.ar      23 UNK        -0.1150 
     11 C11        -1.9728  -18.1933  -49.6723 C.ar      23 UNK        -0.0193 
     12 C12        -1.4121  -19.4521  -49.9043 C.ar      23 UNK        -0.1150 
     13 C13        -0.0235  -19.6148  -49.9586 C.ar      23 UNK        -0.0193 
     14 C14         0.8037  -18.4968  -49.7947 C.ar      23 UNK        -0.1150 
     15 C15         0.5599  -21.0073  -50.1850 C.3       23 UNK        -0.0205 
     16 S16         1.9808  -21.4213  -49.1152 S.3       23 UNK        -0.2404 
     17 C17         1.3210  -21.0935  -47.4461 C.3       23 UNK        -0.0398 
     18 CA          0.9779  -22.3636  -46.6351 C.3       11 UNK         0.1400 
     19 N           0.7896  -22.0462  -45.2207 N.am      11 UNK        -0.5000 
     20 C           0.6797  -22.9401  -44.2302 C.2       10 UNK         0.5000 
     21 O           0.7935  -24.1555  -44.3880 O.2       10 UNK        -0.5000 
     22 CA          0.3597  -22.3797  -42.8312 C.3       10 UNK         0.1400 
     23 CB          1.6407  -21.9069  -42.1280 C.3       10 UNK        -0.1800 
     24 N          -0.6117  -21.2834  -42.8637 N.am      10 UNK        -0.5000 
     25 C          -1.8838  -21.4104  -43.2697 C.2       9 UNK         0.5000 
     26 O          -2.3823  -22.4750  -43.6346 O.2       9 UNK        -0.5000 
     27 CA         -2.7280  -20.1238  -43.3236 C.3       9 UNK         0.1400 
     28 CB         -3.1841  -19.7010  -41.9191 C.3       9 UNK        -0.1800 
     29 N          -2.0221  -19.0152  -43.9646 N.am      9 UNK        -0.5000 
     30 C          -1.5993  -19.0184  -45.2363 C.2       8 UNK         0.5000 
     31 O          -1.7921  -19.9426  -46.0231 O.2       8 UNK        -0.5000 
     32 CA         -0.7744  -17.8079  -45.6919 C.3       8 UNK         0.1400 
     33 CB         -1.6920  -16.6250  -46.0303 C.3       8 UNK        -0.1800 
     34 N           0.2261  -17.4092  -44.6993 N.am      8 UNK        -0.5000 
     35 C           1.2540  -18.1804  -44.3133 C.2       7 UNK         0.5000 
     36 O           1.4793  -19.3004  -44.7669 O.2       7 UNK        -0.5000 
     37 CA          2.1439  -17.6396  -43.1824 C.3       7 UNK         0.1400 
     38 CB          3.1903  -16.6541  -43.7251 C.3       7 UNK        -0.1800 
     39 N           1.3523  -17.0012  -42.1325 N.am      7 UNK        -0.5000 
     40 C           0.5005  -17.6536  -41.3263 C.2       6 UNK         0.5000 
     41 O           0.3417  -18.8746  -41.3394 O.2       6 UNK        -0.5000 
     42 CA         -0.3578  -16.7834  -40.3892 C.3       6 UNK         0.1400 
     43 CB          0.3963  -16.4859  -39.0849 C.3       6 UNK        -0.1800 
     44 N          -0.7583  -15.5219  -41.0166 N.am      6 UNK        -0.5000 
     45 C          -1.5597  -15.4285  -42.0881 C.2       5 UNK         0.5000 
     46 O          -2.1137  -16.3985  -42.6038 O.2       5 UNK        -0.5000 
     47 CA         -1.7246  -14.0328  -42.7209 C.3       5 UNK         0.1400 
     48 CB         -2.9920  -13.3432  -42.1972 C.3       5 UNK        -0.1800 
     49 N          -0.5637  -13.1696  -42.4813 N.am      5 UNK        -0.5000 
     50 C           0.6221  -13.3155  -43.0867 C.2       4 UNK         0.5000 
     51 O           0.8188  -14.0948  -44.0243 O.2       4 UNK        -0.5000 
     52 CA          1.7884  -12.5172  -42.4824 C.3       4 UNK         0.1400 
     53 CB          2.1605  -13.1105  -41.1044 C.3       4 UNK        -0.1800 
     54 N           2.9396  -12.5630  -43.3819 N.am      4 UNK        -0.5000 
     55 C           4.0779  -11.8702  -43.2341 C.2       3 UNK         0.5000 
     56 O           4.2771  -11.0612  -42.3270 O.2       3 UNK        -0.5000 
     57 CA          5.1809  -12.1147  -44.2815 C.3       3 UNK         0.1400 
     58 CB          5.6289  -13.5866  -44.2963 C.3       3 UNK        -0.1800 
     59 N           4.7522  -11.7232  -45.6214 N.am      3 UNK        -0.5000 
     60 C           4.5491  -10.4618  -46.0314 C.2       2 UNK         0.5000 
     61 O           4.8212   -9.4674  -45.3582 O.2       2 UNK        -0.5000 
     62 CA          3.9121  -10.2839  -47.4275 C.3       2 UNK         0.1400 
     63 CB          4.9982  -10.0854  -48.4957 C.3       2 UNK        -0.1800 
     64 N           3.0542  -11.4098  -47.8160 N.am      2 UNK        -0.5000 
     65 C           1.9407  -11.7671  -47.1600 C.2       1 UNK         0.5000 
     66 O           1.4742  -11.1136  -46.2220 O.2       1 UNK        -0.5000 
     67 C          -0.2452  -23.1105  -47.2031 C.2       11 UNK         0.5000 
     68 O          -0.0889  -24.2076  -47.7388 O.2       11 UNK        -0.5000 
     69 N          -1.4448  -22.5359  -47.0347 N.am      12 UNK        -0.5000 
     70 CA         -2.7147  -23.0892  -47.5103 C.3       12 UNK         0.1400 
     71 CB         -3.8381  -22.0690  -47.2769 C.3       12 UNK        -0.1800 
     72 C          -3.0760  -24.4483  -46.8830 C.2       12 UNK         0.5000 
     73 O          -3.7085  -25.2687  -47.5452 O.2       12 UNK        -0.5000 
     74 N          -2.6326  -24.6973  -45.6433 N.am      13 UNK        -0.5000 
     75 CA         -2.7725  -25.9877  -44.9642 C.3       13 UNK         0.1400 
     76 CB         -2.3344  -25.8433  -43.4989 C.3       13 UNK        -0.1800 
     77 C          -2.0060  -27.1397  -45.6500 C.2       13 UNK         0.5000 
     78 O          -2.3969  -28.2962  -45.4850 O.2       13 UNK        -0.5000 
     79 N          -0.9475  -26.8136  -46.4047 N.am      14 UNK        -0.5000 
     80 CA         -0.1405  -27.7669  -47.1638 C.3       14 UNK         0.1400 
     81 CB          1.3472  -27.4545  -46.9338 C.3       14 UNK        -0.1800 
     82 C          -0.4739  -27.7234  -48.6652 C.2       14 UNK         0.5000 
     83 O          -0.6380  -28.7765  -49.2819 O.2       14 UNK        -0.5000 
     84 N          -0.5470  -26.5126  -49.2319 N.am      15 UNK        -0.5000 
     85 CA         -0.6555  -26.2650  -50.6713 C.3       15 UNK         0.1400 
     86 CB          0.0897  -24.9587  -50.9874 C.3       15 UNK        -0.1800 
     87 C          -2.1026  -26.1986  -51.1966 C.2       15 UNK         0.5000 
     88 O          -2.2871  -26.0683  -52.4087 O.2       15 UNK        -0.5000 
     89 N          -3.0986  -26.2628  -50.3006 N.am      16 UNK        -0.5000 
     90 CA         -4.5305  -26.0949  -50.5681 C.3       16 UNK         0.1400 
     91 CB         -5.0749  -27.2529  -51.4367 C.3       16 UNK        -0.1800 
     92 C          -4.8117  -24.6830  -51.1228 C.2       16 UNK         0.5000 
     93 O          -4.5045  -23.7018  -50.4452 O.2       16 UNK        -0.5000 
     94 N          -5.3600  -24.5932  -52.3413 N.am      17 UNK        -0.5000 
     95 CA         -5.5884  -23.3318  -53.0493 C.3       17 UNK         0.1400 
     96 CB         -6.5426  -23.5863  -54.2266 C.3       17 UNK        -0.1800 
     97 C          -4.2894  -22.6675  -53.5483 C.2       17 UNK         0.5000 
     98 O          -4.2978  -21.4695  -53.8230 O.2       17 UNK        -0.5000 
     99 N          -3.2072  -23.4515  -53.6950 N.am      18 UNK        -0.5000 
    100 CA        -1.8614  -23.0348  -54.1171 C.3       18 UNK         0.1400 
    101 CB        -1.2283  -22.1418  -53.0318 C.3       18 UNK        -0.1800 
    102 C         -1.8050  -22.3706  -55.5130 C.2       18 UNK         0.5000 
    103 O         -0.8751  -21.6116  -55.7906 O.2       18 UNK        -0.5000 
    104 N         -2.8157  -22.6491  -56.3518 N.am      19 UNK        -0.5000 
    105 CA        -3.1104  -22.0099  -57.6413 C.3       19 UNK         0.1400 
    106 CB        -2.0059  -22.3110  -58.6763 C.3       19 UNK        -0.1800 
    107 C         -3.4328  -20.4996  -57.5282 C.2       19 UNK         0.5000 
    108 O         -3.3115  -19.7741  -58.5173 O.2       19 UNK        -0.5000 
    109 N         -3.8523  -20.0553  -56.3372 N.am      20 UNK        -0.5000 
    110 CA        -4.2698  -18.6938  -56.0204 C.3       20 UNK         0.1400 
    111 CB        -3.4464  -18.2092  -54.8134 C.3       20 UNK        -0.1800 
    112 C         -5.7764  -18.6692  -55.7043 C.2       20 UNK         0.5000 
    113 O         -6.4253  -19.7176  -55.6519 O.2       20 UNK        -0.5000 
    114 N         -6.3141  -17.4595  -55.5052 N.am      21 UNK        -0.5000 
    115 CA        -7.7118  -17.2341  -55.1268 C.3       21 UNK         0.1400 
    116 CB        -8.0966  -15.7906  -55.4879 C.3       21 UNK        -0.1800 
    117 C         -7.9869  -17.5060  -53.6334 C.2       21 UNK         0.5000 
    118 O         -9.1359  -17.7628  -53.2698 O.2       21 UNK        -0.5000 
    119 N         -6.9451  -17.4178  -52.7968 N.am      22 UNK        -0.5000 
    120 CA        -6.9956  -17.6705  -51.3500 C.3       22 UNK         0.1400 
    121 C         -7.0779  -19.1791  -50.9710 C.2       22 UNK         0.5000 
    122 N         -7.3548  -19.4906  -49.7111 N.am      22 UNK        -0.7600 
    123 O         -6.8962  -20.0721  -51.7940 O.2       22 UNK        -0.5000 
    124 C124       -5.8588  -16.9181  -50.6090 C.3       23 UNK        -0.0398 
    125 S125       -4.1661  -17.3637  -51.1398 S.3       23 UNK        -0.2404 
    126 C126       -3.4816  -18.0225  -49.5880 C.3       23 UNK        -0.0205 
    127 H127       -2.0672  -12.4105  -45.3456 H         1 UNK         0.0600 
    128 H128       -2.5950  -13.8962  -46.1583 H         1 UNK         0.0600 
    129 H129       -3.1848  -12.3286  -46.7053 H         1 UNK         0.0600 
    130 H130        0.1008  -13.7027  -45.9500 H         1 UNK         0.3000 
    131 H131        1.0967  -13.0448  -48.6504 H         1 UNK         0.0600 
    132 H132        2.6877  -14.2314  -46.3249 H         1 UNK         0.0800 
    133 H133        3.1458  -14.2004  -48.0082 H         1 UNK         0.0800 
    134 H134        2.0655  -16.1089  -49.8918 H         1 UNK         0.0800 
    135 H135        0.6463  -15.1248  -49.6012 H         1 UNK         0.0800 
    136 H136       -1.5637  -16.1183  -49.2925 H         1 UNK         0.1150 
    137 H137       -2.0602  -20.3078  -50.0340 H         1 UNK         0.1150 
    138 H138        1.8778  -18.6120  -49.8301 H         1 UNK         0.1150 
    139 H139       -0.2085  -21.7658  -50.0333 H         1 UNK         0.0800 
    140 H140        0.8772  -21.0857  -51.2247 H         1 UNK         0.0800 
    141 H141        0.4692  -20.4147  -47.4851 H         1 UNK         0.0800 
    142 H142        2.1062  -20.5407  -46.9301 H         1 UNK         0.0800 
    143 H143        1.8323  -23.0412  -46.6969 H         1 UNK         0.0600 
    144 H144        0.7502  -21.0578  -44.9872 H         1 UNK         0.3000 
    145 H145       -0.0729  -23.1907  -42.2417 H         1 UNK         0.0600 
    146 H146        2.1043  -21.0722  -42.6548 H         1 UNK         0.0600 
    147 H147        1.4333  -21.5833  -41.1079 H         1 UNK         0.0600 
    148 H148        2.3758  -22.7107  -42.0721 H         1 UNK         0.0600 
    149 H149       -0.2847  -20.3754  -42.5486 H         1 UNK         0.3000 
    150 H150       -3.6180  -20.3366  -43.9194 H         1 UNK         0.0600 
    151 H151       -3.7447  -20.5010  -41.4341 H         1 UNK         0.0600 
    152 H152       -3.8343  -18.8270  -41.9630 H         1 UNK         0.0600 
    153 H153       -2.3390  -19.4553  -41.2760 H         1 UNK         0.0600 
    154 H154       -1.8602  -18.1856  -43.4016 H         1 UNK         0.3000 
    155 H155       -0.2462  -18.0982  -46.6022 H         1 UNK         0.0600 
    156 H156       -2.4243  -16.9082  -46.7855 H         1 UNK         0.0600 
    157 H157       -1.1217  -15.7908  -46.4321 H         1 UNK         0.0600 
    158 H158       -2.2458  -16.2703  -45.1633 H         1 UNK         0.0600 
    159 H159        0.1227  -16.4946  -44.2845 H         1 UNK         0.3000 
    160 H160        2.6735  -18.4849  -42.7377 H         1 UNK         0.0600 
    161 H161        2.7285  -15.8095  -44.2342 H         1 UNK         0.0600 
    162 H162        3.8448  -17.1451  -44.4462 H         1 UNK         0.0600 
    163 H163        3.8208  -16.2630  -42.9265 H         1 UNK         0.0600 
    164 H164        1.3984  -15.9961  -42.0775 H         1 UNK         0.3000 
    165 H165       -1.2617  -17.3453  -40.1449 H         1 UNK         0.0600 
    166 H166       -0.2284  -15.9286  -38.3867 H         1 UNK         0.0600 
    167 H167        0.6930  -17.4101  -38.5872 H         1 UNK         0.0600 
    168 H168        1.3015  -15.9043  -39.2642 H         1 UNK         0.0600 
    169 H169       -0.3636  -14.6773  -40.6328 H         1 UNK         0.3000 
    170 H170       -1.8349  -14.1812  -43.7954 H         1 UNK         0.0600 
    171 H171       -3.8747  -13.9567  -42.3830 H         1 UNK         0.0600 
    172 H172       -2.9385  -13.1607  -41.1232 H         1 UNK         0.0600 
    173 H173       -3.1527  -12.3862  -42.6940 H         1 UNK         0.0600 
    174 H174       -0.6551  -12.4920  -41.7376 H         1 UNK         0.3000 
    175 H175        1.4723  -11.4784  -42.3693 H         1 UNK         0.0600 
    176 H176        2.5231  -14.1352  -41.1941 H         1 UNK         0.0600 
    177 H177        2.9372  -12.5289  -40.6090 H         1 UNK         0.0600 
    178 H178        1.3065  -13.1206  -40.4267 H         1 UNK         0.0600 
    179 H179        2.8168  -13.1837  -44.1699 H         1 UNK         0.3000 
    180 H180        6.0441  -11.5051  -44.0055 H         1 UNK         0.0600 
    181 H181        4.8404  -14.2528  -44.6469 H         1 UNK         0.0600 
    182 H182        5.9179  -13.9169  -43.2976 H         1 UNK         0.0600 
    183 H183        6.4936  -13.7257  -44.9453 H         1 UNK         0.0600 
    184 H184        4.5278  -12.4689  -46.2606 H         1 UNK         0.3000 
    185 H185        3.2942   -9.3840  -47.3952 H         1 UNK         0.0600 
    186 H186        4.5591   -9.8835  -49.4729 H         1 UNK         0.0600 
    187 H187        5.6388   -9.2379  -48.2479 H         1 UNK         0.0600 
    188 H188        5.6380  -10.9638  -48.5886 H         1 UNK         0.0600 
    189 H189        3.3750  -11.9663  -48.5954 H         1 UNK         0.3000 
    190 H190       -1.5016  -21.6267  -46.5772 H         1 UNK         0.3000 
    191 H191       -2.6148  -23.2451  -48.5861 H         1 UNK         0.0600 
    192 H192       -3.6344  -21.1338  -47.7989 H         1 UNK         0.0600 
    193 H193       -4.7914  -22.4464  -47.6491 H         1 UNK         0.0600 
    194 H194       -3.9603  -21.8433  -46.2168 H         1 UNK         0.0600 
    195 H195       -2.1805  -23.9521  -45.1250 H         1 UNK         0.3000 
    196 H196       -3.8316  -26.2533  -44.9743 H         1 UNK         0.0600 
    197 H197       -2.4482  -26.7856  -42.9615 H         1 UNK         0.0600 
    198 H198       -2.9375  -25.0996  -42.9781 H         1 UNK         0.0600 
    199 H199       -1.2895  -25.5443  -43.4189 H         1 UNK         0.0600 
    200 H200       -0.7051  -25.8351  -46.5062 H         1 UNK         0.3000 
    201 H201       -0.3221  -28.7850  -46.8131 H         1 UNK         0.0600 
    202 H202        1.6088  -27.5499  -45.8798 H         1 UNK         0.0600 
    203 H203        1.6035  -26.4421  -47.2488 H         1 UNK         0.0600 
    204 H204        1.9827  -28.1440  -47.4909 H         1 UNK         0.0600 
    205 H205       -0.3911  -25.6883  -48.6529 H         1 UNK         0.3000 
    206 H206       -0.1566  -27.0722  -51.2116 H         1 UNK         0.0600 
    207 H207       -0.3772  -24.1084  -50.4912 H         1 UNK         0.0600 
    208 H208        1.1283  -25.0057  -50.6593 H         1 UNK         0.0600 
    209 H209        0.0977  -24.7560  -52.0588 H         1 UNK         0.0600 
    210 H210       -2.8529  -26.2936  -49.3192 H         1 UNK         0.3000 
    211 H211       -5.0399  -26.1498  -49.6059 H         1 UNK         0.0600 
    212 H212       -6.1565  -27.1782  -51.5560 H         1 UNK         0.0600 
    213 H213       -4.8732  -28.2152  -50.9660 H         1 UNK         0.0600 
    214 H214       -4.6311  -27.2771  -52.4322 H         1 UNK         0.0600 
    215 H215       -5.5763  -25.4437  -52.8405 H         1 UNK         0.3000 
    216 H216       -6.0708  -22.6330  -52.3630 H         1 UNK         0.0600 
    217 H217       -6.7566  -22.6590  -54.7606 H         1 UNK         0.0600 
    218 H218       -7.4959  -23.9875  -53.8821 H         1 UNK         0.0600 
    219 H219       -6.1199  -24.2897  -54.9449 H         1 UNK         0.0600 
    220 H220       -3.2839  -24.4255  -53.4243 H         1 UNK         0.3000 
    221 H221       -1.2693  -23.9482  -54.1866 H         1 UNK         0.0600 
    222 H222       -1.6810  -21.1496  -53.0084 H         1 UNK         0.0600 
    223 H223       -1.3481  -22.5815  -52.0430 H         1 UNK         0.0600 
    224 H224       -0.1605  -22.0120  -53.2092 H         1 UNK         0.0600 
    225 H225       -3.5203  -23.2902  -56.0165 H         1 UNK         0.3000 
    226 H226       -4.0273  -22.4787  -58.0010 H         1 UNK         0.0600 
    227 H227       -1.7990  -23.3796  -58.7335 H         1 UNK         0.0600 
    228 H228       -2.3057  -21.9870  -59.6735 H         1 UNK         0.0600 
    229 H229       -1.0732  -21.8002  -58.4362 H         1 UNK         0.0600 
    230 H230       -3.9808  -20.7176  -55.5763 H         1 UNK         0.3000 
    231 H231       -4.0883  -18.0263  -56.8649 H         1 UNK         0.0600 
    232 H232       -3.6482  -18.8063  -53.9230 H         1 UNK         0.0600 
    233 H233       -3.6671  -17.1699  -54.5688 H         1 UNK         0.0600 
    234 H234       -2.3772  -18.2715  -55.0172 H         1 UNK         0.0600 
    235 H235       -5.7302  -16.6394  -55.5848 H         1 UNK         0.3000 
    236 H236       -8.3469  -17.9076  -55.7064 H         1 UNK         0.0600 
    237 H237       -7.9702  -15.6034  -56.5545 H         1 UNK         0.0600 
    238 H238       -9.1420  -15.5931  -55.2467 H         1 UNK         0.0600 
    239 H239       -7.4917  -15.0640  -54.9442 H         1 UNK         0.0600 
    240 H240       -6.0276  -17.2509  -53.1808 H         1 UNK         0.3000 
    241 H241       -7.9327  -17.2367  -50.9952 H         1 UNK         0.0600 
    242 H242       -7.4103  -20.4638  -49.4556 H         1 UNK         0.3800 
    243 H243       -7.5327  -18.7866  -49.0124 H         1 UNK         0.3800 
    244 H244       -5.9762  -15.8465  -50.7754 H         1 UNK         0.0800 
    245 H245       -5.9585  -17.0471  -49.5305 H         1 UNK         0.0800 
    246 H246       -3.9651  -18.9727  -49.3547 H         1 UNK         0.0800 
    247 H247       -3.7190  -17.3443  -48.7677 H         1 UNK         0.0800 
@<TRIPOS>BOND
     1    1    2 1    
     2    1  127 1    
     3    1  128 1    
     4    1  129 1    
     5    2    3 2    
     6    2    4 am   BACKBONE|DICT|INTERRES
     7    4    5 1    
     8    4  130 1    
     9    5    6 1    
    10    5   65 1    
    11    5  131 1    
    12    6    7 1    
    13    6  132 1    
    14    6  133 1    
    15    7    8 1    
    16    8    9 1    
    17    8  134 1    
    18    8  135 1    
    19    9   10 ar   
    20    9   14 ar   
    21   10   11 ar   
    22   10  136 1    
    23   11   12 ar   
    24   11  126 1    
    25   12   13 ar   
    26   12  137 1    
    27   13   14 ar   
    28   13   15 1    
    29   14  138 1    
    30   15   16 1    
    31   15  139 1    
    32   15  140 1    
    33   16   17 1    
    34   17   18 1    
    35   17  141 1    
    36   17  142 1    
    37   18   19 1    
    38   18   67 1    
    39   18  143 1    
    40   19   20 am   BACKBONE|DICT|INTERRES
    41   19  144 1    
    42   20   21 2    
    43   20   22 1    
    44   22   23 1    
    45   22   24 1    
    46   22  145 1    
    47   23  146 1    
    48   23  147 1    
    49   23  148 1    
    50   24   25 am   BACKBONE|DICT|INTERRES
    51   24  149 1    
    52   25   26 2    
    53   25   27 1    
    54   27   28 1    
    55   27   29 1    
    56   27  150 1    
    57   28  151 1    
    58   28  152 1    
    59   28  153 1    
    60   29   30 am   BACKBONE|DICT|INTERRES
    61   29  154 1    
    62   30   31 2    
    63   30   32 1    
    64   32   33 1    
    65   32   34 1    
    66   32  155 1    
    67   33  156 1    
    68   33  157 1    
    69   33  158 1    
    70   34   35 am   BACKBONE|DICT|INTERRES
    71   34  159 1    
    72   35   36 2    
    73   35   37 1    
    74   37   38 1    
    75   37   39 1    
    76   37  160 1    
    77   38  161 1    
    78   38  162 1    
    79   38  163 1    
    80   39   40 am   BACKBONE|DICT|INTERRES
    81   39  164 1    
    82   40   41 2    
    83   40   42 1    
    84   42   43 1    
    85   42   44 1    
    86   42  165 1    
    87   43  166 1    
    88   43  167 1    
    89   43  168 1    
    90   44   45 am   BACKBONE|DICT|INTERRES
    91   44  169 1    
    92   45   46 2    
    93   45   47 1    
    94   47   48 1    
    95   47   49 1    
    96   47  170 1    
    97   48  171 1    
    98   48  172 1    
    99   48  173 1    
   100   49   50 am   BACKBONE|DICT|INTERRES
   101   49  174 1    
   102   50   51 2    
   103   50   52 1    
   104   52   53 1    
   105   52   54 1    
   106   52  175 1    
   107   53  176 1    
   108   53  177 1    
   109   53  178 1    
   110   54   55 am   BACKBONE|DICT|INTERRES
   111   54  179 1    
   112   55   56 2    
   113   55   57 1    
   114   57   58 1    
   115   57   59 1    
   116   57  180 1    
   117   58  181 1    
   118   58  182 1    
   119   58  183 1    
   120   59   60 am   BACKBONE|DICT|INTERRES
   121   59  184 1    
   122   60   61 2    
   123   60   62 1    
   124   62   63 1    
   125   62   64 1    
   126   62  185 1    
   127   63  186 1    
   128   63  187 1    
   129   63  188 1    
   130   64   65 am   BACKBONE|DICT|INTERRES
   131   64  189 1    
   132   65   66 2    
   133   67   68 2    
   134   67   69 am   BACKBONE|DICT|INTERRES
   135   69   70 1    
   136   69  190 1    
   137   70   71 1    
   138   70   72 1    
   139   70  191 1    
   140   71  192 1    
   141   71  193 1    
   142   71  194 1    
   143   72   73 2    
   144   72   74 am   BACKBONE|DICT|INTERRES
   145   74   75 1    
   146   74  195 1    
   147   75   76 1    
   148   75   77 1    
   149   75  196 1    
   150   76  197 1    
   151   76  198 1    
   152   76  199 1    
   153   77   78 2    
   154   77   79 am   BACKBONE|DICT|INTERRES
   155   79   80 1    
   156   79  200 1    
   157   80   81 1    
   158   80   82 1    
   159   80  201 1    
   160   81  202 1    
   161   81  203 1    
   162   81  204 1    
   163   82   83 2    
   164   82   84 am   BACKBONE|DICT|INTERRES
   165   84   85 1    
   166   84  205 1    
   167   85   86 1    
   168   85   87 1    
   169   85  206 1    
   170   86  207 1    
   171   86  208 1    
   172   86  209 1    
   173   87   88 2    
   174   87   89 am   BACKBONE|DICT|INTERRES
   175   89   90 1    
   176   89  210 1    
   177   90   91 1    
   178   90   92 1    
   179   90  211 1    
   180   91  212 1    
   181   91  213 1    
   182   91  214 1    
   183   92   93 2    
   184   92   94 am   BACKBONE|DICT|INTERRES
   185   94   95 1    
   186   94  215 1    
   187   95   96 1    
   188   95   97 1    
   189   95  216 1    
   190   96  217 1    
   191   96  218 1    
   192   96  219 1    
   193   97   98 2    
   194   97   99 am   BACKBONE|DICT|INTERRES
   195   99  100 1    
   196   99  220 1    
   197  100  101 1    
   198  100  102 1    
   199  100  221 1    
   200  101  222 1    
   201  101  223 1    
   202  101  224 1    
   203  102  103 2    
   204  102  104 am   BACKBONE|DICT|INTERRES
   205  104  105 1    
   206  104  225 1    
   207  105  106 1    
   208  105  107 1    
   209  105  226 1    
   210  106  227 1    
   211  106  228 1    
   212  106  229 1    
   213  107  108 2    
   214  107  109 am   BACKBONE|DICT|INTERRES
   215  109  110 1    
   216  109  230 1    
   217  110  111 1    
   218  110  112 1    
   219  110  231 1    
   220  111  232 1    
   221  111  233 1    
   222  111  234 1    
   223  112  113 2    
   224  112  114 am   BACKBONE|DICT|INTERRES
   225  114  115 1    
   226  114  235 1    
   227  115  116 1    
   228  115  117 1    
   229  115  236 1    
   230  116  237 1    
   231  116  238 1    
   232  116  239 1    
   233  117  118 2    
   234  117  119 am   BACKBONE|DICT|INTERRES
   235  119  120 1    
   236  119  240 1    
   237  120  121 1    
   238  120  124 1    
   239  120  241 1    
   240  121  122 am   BACKBONE|DICT|INTERRES
   241  121  123 2    
   242  122  242 1    
   243  122  243 1    
   244  124  125 1    
   245  124  244 1    
   246  124  245 1    
   247  125  126 1    
   248  126  246 1    
   249  126  247 1    
@<TRIPOS>SUBSTRUCTURE
     1 UNK         1 GROUP             0       ****    0 ROOT    
