@<TRIPOS>MOLECULE
3R540
247   249    1
SMALL
USER_CHARGES


@<TRIPOS>ATOM
      1 CA          4.1404  -14.5501  -48.0055 C.3       0 UNK        -0.1800 
      2 C           2.7051  -14.9149  -47.6589 C.2       0 UNK         0.5000 
      3 O           2.4743  -15.6122  -46.6722 O.2       0 UNK        -0.5000 
      4 N           1.7403  -14.4514  -48.4630 N.am      1 UNK        -0.5000 
      5 CA          0.3063  -14.7227  -48.2852 C.3       1 UNK         0.1400 
      6 C6         -0.5015  -14.5121  -49.5892 C.3       23 UNK        -0.0398 
      7 S7          0.1565  -15.5038  -50.9716 S.3       23 UNK        -0.2404 
      8 C8         -0.6653  -17.0957  -50.6689 C.3       23 UNK        -0.0205 
      9 C9          0.2267  -18.2549  -51.0723 C.ar      23 UNK        -0.0193 
     10 C10         0.0583  -18.8816  -52.3096 C.ar      23 UNK        -0.1150 
     11 C11         0.8995  -19.9306  -52.6929 C.ar      23 UNK        -0.0193 
     12 C12         1.9064  -20.3569  -51.8200 C.ar      23 UNK        -0.1150 
     13 C13         2.0740  -19.7462  -50.5729 C.ar      23 UNK        -0.0193 
     14 C14         1.2296  -18.6956  -50.2046 C.ar      23 UNK        -0.1150 
     15 C15         3.1865  -20.1998  -49.6379 C.3       23 UNK        -0.0205 
     16 S16         2.8471  -21.8239  -48.8890 S.3       23 UNK        -0.2404 
     17 C17         1.4908  -21.4242  -47.7382 C.3       23 UNK        -0.0398 
     18 CA          0.8046  -22.7021  -47.2045 C.3       11 UNK         0.1400 
     19 N           1.7127  -23.5229  -46.4007 N.am      11 UNK        -0.5000 
     20 C           1.4811  -24.7911  -46.0387 C.2       10 UNK         0.5000 
     21 O           0.4756  -25.4231  -46.3595 O.2       10 UNK        -0.5000 
     22 CA          2.5326  -25.4414  -45.1219 C.3       10 UNK         0.1400 
     23 CB          3.7232  -25.9587  -45.9429 C.3       10 UNK        -0.1800 
     24 N           3.0149  -24.5218  -44.0894 N.am      10 UNK        -0.5000 
     25 C           2.2535  -24.0355  -43.0993 C.2       9 UNK         0.5000 
     26 O           1.0738  -24.3417  -42.9322 O.2       9 UNK        -0.5000 
     27 CA          2.9041  -22.9996  -42.1656 C.3       9 UNK         0.1400 
     28 CB          3.6387  -23.6997  -41.0128 C.3       9 UNK        -0.1800 
     29 N           3.8257  -22.0847  -42.8454 N.am      9 UNK        -0.5000 
     30 C           3.4795  -21.2359  -43.8217 C.2       8 UNK         0.5000 
     31 O           2.3552  -21.1888  -44.3273 O.2       8 UNK        -0.5000 
     32 CA          4.5777  -20.2911  -44.3334 C.3       8 UNK         0.1400 
     33 CB          4.9709  -20.6299  -45.7790 C.3       8 UNK        -0.1800 
     34 N           4.1013  -18.9134  -44.2730 N.am      8 UNK        -0.5000 
     35 C           4.1082  -18.1579  -43.1670 C.2       7 UNK         0.5000 
     36 O           4.6305  -18.5017  -42.1057 O.2       7 UNK        -0.5000 
     37 CA          3.4023  -16.7924  -43.2587 C.3       7 UNK         0.1400 
     38 CB          4.3845  -15.7032  -43.7165 C.3       7 UNK        -0.1800 
     39 N           2.2546  -16.8083  -44.1652 N.am      7 UNK        -0.5000 
     40 C           1.0963  -17.4323  -43.9240 C.2       6 UNK         0.5000 
     41 O           0.8618  -18.0722  -42.8966 O.2       6 UNK        -0.5000 
     42 CA          0.0396  -17.3306  -45.0417 C.3       6 UNK         0.1400 
     43 CB          0.2794  -18.4011  -46.1177 C.3       6 UNK        -0.1800 
     44 N          -1.3372  -17.4448  -44.5582 N.am      6 UNK        -0.5000 
     45 C          -1.9235  -16.5820  -43.7188 C.2       5 UNK         0.5000 
     46 O          -1.3543  -15.6092  -43.2167 O.2       5 UNK        -0.5000 
     47 CA         -3.3952  -16.8694  -43.3648 C.3       5 UNK         0.1400 
     48 CB         -3.4867  -17.8717  -42.2034 C.3       5 UNK        -0.1800 
     49 N          -4.0880  -15.6370  -42.9868 N.am      5 UNK        -0.5000 
     50 C          -4.4622  -14.6872  -43.8536 C.2       4 UNK         0.5000 
     51 O          -4.4224  -14.8289  -45.0754 O.2       4 UNK        -0.5000 
     52 CA         -4.9493  -13.3472  -43.2806 C.3       4 UNK         0.1400 
     53 CB         -5.0501  -13.2989  -41.7412 C.3       4 UNK        -0.1800 
     54 N          -4.0384  -12.3040  -43.7428 N.am      4 UNK        -0.5000 
     55 C          -4.3955  -11.0712  -44.1201 C.2       3 UNK         0.5000 
     56 O          -5.5615  -10.6731  -44.1222 O.2       3 UNK        -0.5000 
     57 CA         -3.2722  -10.1033  -44.5464 C.3       3 UNK         0.1400 
     58 CB         -3.1527   -8.9475  -43.5387 C.3       3 UNK        -0.1800 
     59 N          -1.9622  -10.7520  -44.6595 N.am      3 UNK        -0.5000 
     60 C          -1.4495  -11.2623  -45.7866 C.2       2 UNK         0.5000 
     61 O          -2.0302  -11.2244  -46.8742 O.2       2 UNK        -0.5000 
     62 CA         -0.0272  -11.8636  -45.6835 C.3       2 UNK         0.1400 
     63 CB          0.2475  -12.5515  -44.3281 C.3       2 UNK        -0.1800 
     64 N           0.3119  -12.7733  -46.7833 N.am      2 UNK        -0.5000 
     65 C          -0.3102  -13.9133  -47.1244 C.2       1 UNK         0.5000 
     66 O          -1.3101  -14.3526  -46.5588 O.2       1 UNK        -0.5000 
     67 C          -0.4758  -22.3611  -46.4199 C.2       11 UNK         0.5000 
     68 O          -1.5638  -22.4023  -46.9940 O.2       11 UNK        -0.5000 
     69 N          -0.3341  -22.0720  -45.1182 N.am      12 UNK        -0.5000 
     70 CA         -1.4478  -21.8408  -44.1989 C.3       12 UNK         0.1400 
     71 CB         -0.9147  -21.3271  -42.8546 C.3       12 UNK        -0.1800 
     72 C          -2.3185  -23.0957  -44.0076 C.2       12 UNK         0.5000 
     73 O          -3.5426  -22.9954  -44.0845 O.2       12 UNK        -0.5000 
     74 N          -1.6762  -24.2578  -43.8171 N.am      13 UNK        -0.5000 
     75 CA         -2.3273  -25.5655  -43.6964 C.3       13 UNK         0.1400 
     76 CB         -1.2877  -26.6208  -43.2902 C.3       13 UNK        -0.1800 
     77 C          -3.0647  -25.9957  -44.9789 C.2       13 UNK         0.5000 
     78 O          -4.1490  -26.5727  -44.8924 O.2       13 UNK        -0.5000 
     79 N          -2.4829  -25.6760  -46.1427 N.am      14 UNK        -0.5000 
     80 CA         -3.0790  -25.8864  -47.4640 C.3       14 UNK         0.1400 
     81 CB         -1.9678  -25.8068  -48.5233 C.3       14 UNK        -0.1800 
     82 C          -4.2061  -24.8878  -47.8022 C.2       14 UNK         0.5000 
     83 O          -4.9141  -25.1020  -48.7868 O.2       14 UNK        -0.5000 
     84 N          -4.3337  -23.8130  -47.0078 N.am      15 UNK        -0.5000 
     85 CA         -5.2215  -22.6609  -47.1940 C.3       15 UNK         0.1400 
     86 CB         -6.7037  -23.0718  -47.0793 C.3       15 UNK        -0.1800 
     87 C          -4.9105  -21.8829  -48.4891 C.2       15 UNK         0.5000 
     88 O          -5.8184  -21.3472  -49.1283 O.2       15 UNK        -0.5000 
     89 N          -3.6208  -21.8137  -48.8487 N.am      16 UNK        -0.5000 
     90 CA         -3.1172  -21.2238  -50.0911 C.3       16 UNK         0.1400 
     91 CB         -1.6414  -21.6006  -50.2701 C.3       16 UNK        -0.1800 
     92 C          -3.3083  -19.6986  -50.1815 C.2       16 UNK         0.5000 
     93 O          -3.2520  -19.1493  -51.2781 O.2       16 UNK        -0.5000 
     94 N          -3.5722  -19.0421  -49.0426 N.am      17 UNK        -0.5000 
     95 CA         -3.9993  -17.6436  -48.9706 C.3       17 UNK         0.1400 
     96 CB         -3.9884  -17.1902  -47.5047 C.3       17 UNK        -0.1800 
     97 C          -5.3767  -17.3958  -49.6215 C.2       17 UNK         0.5000 
     98 O          -5.6186  -16.2918  -50.1102 O.2       17 UNK        -0.5000 
     99 N          -6.2359  -18.4247  -49.6399 N.am      18 UNK        -0.5000 
    100 CA        -7.4983  -18.4403  -50.3745 C.3       18 UNK         0.1400 
    101 CB        -8.5862  -19.0982  -49.5097 C.3       18 UNK        -0.1800 
    102 C         -7.3179  -19.1915  -51.7033 C.2       18 UNK         0.5000 
    103 O         -7.6364  -18.6509  -52.7631 O.2       18 UNK        -0.5000 
    104 N         -6.7794  -20.4156  -51.6301 N.am      19 UNK        -0.5000 
    105 CA        -6.5185  -21.3034  -52.7622 C.3       19 UNK         0.1400 
    106 CB        -6.5927  -22.7591  -52.2661 C.3       19 UNK        -0.1800 
    107 C         -5.1703  -20.9747  -53.4339 C.2       19 UNK         0.5000 
    108 O         -4.2828  -21.8285  -53.4979 O.2       19 UNK        -0.5000 
    109 N         -5.0279  -19.7331  -53.9138 N.am      20 UNK        -0.5000 
    110 CA        -3.8092  -19.1728  -54.5065 C.3       20 UNK         0.1400 
    111 CB        -3.8756  -17.6381  -54.4149 C.3       20 UNK        -0.1800 
    112 C         -3.5546  -19.6779  -55.9432 C.2       20 UNK         0.5000 
    113 O         -3.4036  -18.8819  -56.8727 O.2       20 UNK        -0.5000 
    114 N         -3.5057  -21.0066  -56.0986 N.am      21 UNK        -0.5000 
    115 CA        -3.3409  -21.7320  -57.3611 C.3       21 UNK         0.1400 
    116 CB        -3.5037  -23.2351  -57.0885 C.3       21 UNK        -0.1800 
    117 C         -2.0091  -21.4546  -58.0856 C.2       21 UNK         0.5000 
    118 O         -1.9318  -21.6487  -59.2995 O.2       21 UNK        -0.5000 
    119 N         -0.9970  -20.9936  -57.3398 N.am      22 UNK        -0.5000 
    120 CA         0.2858  -20.5167  -57.8737 C.3       22 UNK         0.1400 
    121 C          0.2258  -19.1209  -58.5685 C.2       22 UNK         0.5000 
    122 N         -0.8693  -18.3721  -58.4829 N.am      22 UNK        -0.7600 
    123 O          1.1895  -18.7169  -59.2139 O.2       22 UNK        -0.5000 
    124 C124        1.4144  -20.6098  -56.8139 C.3       23 UNK        -0.0398 
    125 S125        1.2306  -19.4729  -55.3925 S.3       23 UNK        -0.2404 
    126 C126        0.7255  -20.5950  -54.0509 C.3       23 UNK        -0.0205 
    127 H127        4.1963  -13.9242  -48.8963 H         1 UNK         0.0600 
    128 H128        4.7219  -15.4540  -48.1864 H         1 UNK         0.0600 
    129 H129        4.5986  -14.0087  -47.1779 H         1 UNK         0.0600 
    130 H130        1.9879  -13.9097  -49.2789 H         1 UNK         0.3000 
    131 H131        0.2066  -15.7746  -48.0086 H         1 UNK         0.0600 
    132 H132       -1.5536  -14.7644  -49.4414 H         1 UNK         0.0800 
    133 H133       -0.4800  -13.4621  -49.8863 H         1 UNK         0.0800 
    134 H134       -1.6013  -17.1160  -51.2277 H         1 UNK         0.0800 
    135 H135       -0.9234  -17.2015  -49.6148 H         1 UNK         0.0800 
    136 H136       -0.7183  -18.5437  -52.9813 H         1 UNK         0.1150 
    137 H137        2.5647  -21.1643  -52.1087 H         1 UNK         0.1150 
    138 H138        1.3613  -18.2068  -49.2494 H         1 UNK         0.1150 
    139 H139        3.3570  -19.4659  -48.8485 H         1 UNK         0.0800 
    140 H140        4.1190  -20.2622  -50.2005 H         1 UNK         0.0800 
    141 H141        0.7742  -20.7880  -48.2554 H         1 UNK         0.0800 
    142 H142        1.8875  -20.8256  -46.9189 H         1 UNK         0.0800 
    143 H143        0.4944  -23.2981  -48.0658 H         1 UNK         0.0600 
    144 H144        2.5448  -23.0653  -46.0602 H         1 UNK         0.3000 
    145 H145        2.0621  -26.2933  -44.6264 H         1 UNK         0.0600 
    146 H146        3.3916  -26.6590  -46.7108 H         1 UNK         0.0600 
    147 H147        4.4383  -26.4856  -45.3110 H         1 UNK         0.0600 
    148 H148        4.2518  -25.1473  -46.4449 H         1 UNK         0.0600 
    149 H149        3.9753  -24.2186  -44.1540 H         1 UNK         0.3000 
    150 H150        2.1008  -22.3964  -41.7381 H         1 UNK         0.0600 
    151 H151        4.0184  -22.9772  -40.2901 H         1 UNK         0.0600 
    152 H152        2.9695  -24.3731  -40.4753 H         1 UNK         0.0600 
    153 H153        4.4815  -24.2918  -41.3716 H         1 UNK         0.0600 
    154 H154        4.7706  -22.0587  -42.4900 H         1 UNK         0.3000 
    155 H155        5.4666  -20.3965  -43.7076 H         1 UNK         0.0600 
    156 H156        4.1485  -20.4614  -46.4722 H         1 UNK         0.0600 
    157 H157        5.2727  -21.6740  -45.8715 H         1 UNK         0.0600 
    158 H158        5.8108  -20.0184  -46.1091 H         1 UNK         0.0600 
    159 H159        3.6071  -18.5683  -45.0819 H         1 UNK         0.3000 
    160 H160        3.0451  -16.5340  -42.2597 H         1 UNK         0.0600 
    161 H161        4.7602  -15.8972  -44.7221 H         1 UNK         0.0600 
    162 H162        5.2446  -15.6456  -43.0482 H         1 UNK         0.0600 
    163 H163        3.9095  -14.7218  -43.7216 H         1 UNK         0.0600 
    164 H164        2.3693  -16.3186  -45.0531 H         1 UNK         0.3000 
    165 H165        0.1386  -16.3482  -45.5030 H         1 UNK         0.0600 
    166 H166        1.2760  -18.3042  -46.5503 H         1 UNK         0.0600 
    167 H167        0.1992  -19.4034  -45.6989 H         1 UNK         0.0600 
    168 H168       -0.4371  -18.3149  -46.9350 H         1 UNK         0.0600 
    169 H169       -1.8608  -18.2407  -44.8865 H         1 UNK         0.3000 
    170 H170       -3.8912  -17.2988  -44.2381 H         1 UNK         0.0600 
    171 H171       -2.9984  -17.4920  -41.3049 H         1 UNK         0.0600 
    172 H172       -3.0061  -18.8158  -42.4626 H         1 UNK         0.0600 
    173 H173       -4.5245  -18.0939  -41.9542 H         1 UNK         0.0600 
    174 H174       -4.1172  -15.4256  -42.0005 H         1 UNK         0.3000 
    175 H175       -5.9458  -13.1832  -43.6959 H         1 UNK         0.0600 
    176 H176       -5.4475  -12.3395  -41.4093 H         1 UNK         0.0600 
    177 H177       -5.7239  -14.0690  -41.3635 H         1 UNK         0.0600 
    178 H178       -4.0784  -13.4331  -41.2642 H         1 UNK         0.0600 
    179 H179       -3.0708  -12.5773  -43.8408 H         1 UNK         0.3000 
    180 H180       -3.5589   -9.6792  -45.5110 H         1 UNK         0.0600 
    181 H181       -2.8860   -9.3061  -42.5437 H         1 UNK         0.0600 
    182 H182       -4.0945   -8.4044  -43.4500 H         1 UNK         0.0600 
    183 H183       -2.3950   -8.2287  -43.8514 H         1 UNK         0.0600 
    184 H184       -1.4162  -10.8042  -43.8113 H         1 UNK         0.3000 
    185 H185        0.6616  -11.0224  -45.7719 H         1 UNK         0.0600 
    186 H186        0.2494  -11.8357  -43.5059 H         1 UNK         0.0600 
    187 H187       -0.5023  -13.3101  -44.1064 H         1 UNK         0.0600 
    188 H188        1.2221  -13.0405  -44.3242 H         1 UNK         0.0600 
    189 H189        1.1130  -12.5036  -47.3356 H         1 UNK         0.3000 
    190 H190        0.6027  -22.0033  -44.7314 H         1 UNK         0.3000 
    191 H191       -2.0779  -21.0606  -44.6311 H         1 UNK         0.0600 
    192 H192       -0.3245  -20.4215  -42.9878 H         1 UNK         0.0600 
    193 H193       -1.7335  -21.0868  -42.1757 H         1 UNK         0.0600 
    194 H194       -0.2844  -22.0649  -42.3594 H         1 UNK         0.0600 
    195 H195       -0.6647  -24.2470  -43.7140 H         1 UNK         0.3000 
    196 H196       -3.0687  -25.4945  -42.8979 H         1 UNK         0.0600 
    197 H197       -0.4945  -26.7106  -44.0332 H         1 UNK         0.0600 
    198 H198       -1.7487  -27.6031  -43.1799 H         1 UNK         0.0600 
    199 H199       -0.8244  -26.3701  -42.3358 H         1 UNK         0.0600 
    200 H200       -1.5525  -25.2708  -46.1273 H         1 UNK         0.3000 
    201 H201       -3.5096  -26.8893  -47.4948 H         1 UNK         0.0600 
    202 H202       -2.3625  -25.9905  -49.5233 H         1 UNK         0.0600 
    203 H203       -1.1932  -26.5514  -48.3393 H         1 UNK         0.0600 
    204 H204       -1.4937  -24.8249  -48.5329 H         1 UNK         0.0600 
    205 H205       -3.6952  -23.7358  -46.2264 H         1 UNK         0.3000 
    206 H206       -5.0052  -21.9775  -46.3720 H         1 UNK         0.0600 
    207 H207       -7.0187  -23.6974  -47.9149 H         1 UNK         0.0600 
    208 H208       -6.8891  -23.6229  -46.1574 H         1 UNK         0.0600 
    209 H209       -7.3516  -22.1945  -47.0686 H         1 UNK         0.0600 
    210 H210       -2.9225  -22.2138  -48.2248 H         1 UNK         0.3000 
    211 H211       -3.6793  -21.6721  -50.9104 H         1 UNK         0.0600 
    212 H212       -1.2836  -21.3032  -51.2559 H         1 UNK         0.0600 
    213 H213       -1.4878  -22.6759  -50.1791 H         1 UNK         0.0600 
    214 H214       -1.0162  -21.1039  -49.5315 H         1 UNK         0.0600 
    215 H215       -3.5860  -19.5714  -48.1841 H         1 UNK         0.3000 
    216 H216       -3.2786  -17.0343  -49.5156 H         1 UNK         0.0600 
    217 H217       -4.6698  -17.7807  -46.8913 H         1 UNK         0.0600 
    218 H218       -2.9897  -17.2655  -47.0744 H         1 UNK         0.0600 
    219 H219       -4.2933  -16.1463  -47.4226 H         1 UNK         0.0600 
    220 H220       -5.9409  -19.3118  -49.2488 H         1 UNK         0.3000 
    221 H221       -7.8222  -17.4227  -50.6028 H         1 UNK         0.0600 
    222 H222       -8.3252  -20.1192  -49.2287 H         1 UNK         0.0600 
    223 H223       -8.7506  -18.5332  -48.5921 H         1 UNK         0.0600 
    224 H224       -9.5371  -19.1367  -50.0425 H         1 UNK         0.0600 
    225 H225       -6.5077  -20.7750  -50.7176 H         1 UNK         0.3000 
    226 H226       -7.2990  -21.1687  -53.5139 H         1 UNK         0.0600 
    227 H227       -7.5676  -22.9769  -51.8297 H         1 UNK         0.0600 
    228 H228       -6.4406  -23.4614  -53.0866 H         1 UNK         0.0600 
    229 H229       -5.8356  -22.9678  -51.5089 H         1 UNK         0.0600 
    230 H230       -5.8131  -19.1011  -53.8137 H         1 UNK         0.3000 
    231 H231       -2.9558  -19.4985  -53.9085 H         1 UNK         0.0600 
    232 H232       -4.7119  -17.2362  -54.9881 H         1 UNK         0.0600 
    233 H233       -2.9613  -17.1824  -54.7971 H         1 UNK         0.0600 
    234 H234       -3.9891  -17.3123  -53.3804 H         1 UNK         0.0600 
    235 H235       -3.6542  -21.5700  -55.2650 H         1 UNK         0.3000 
    236 H236       -4.1440  -21.4151  -58.0293 H         1 UNK         0.0600 
    237 H237       -2.7418  -23.6023  -56.3997 H         1 UNK         0.0600 
    238 H238       -4.4802  -23.4543  -56.6560 H         1 UNK         0.0600 
    239 H239       -3.4204  -23.8125  -58.0102 H         1 UNK         0.0600 
    240 H240       -1.1544  -20.8462  -56.3552 H         1 UNK         0.3000 
    241 H241        0.5671  -21.2089  -58.6698 H         1 UNK         0.0600 
    242 H242       -0.8897  -17.4767  -58.9446 H         1 UNK         0.3800 
    243 H243       -1.6780  -18.6763  -57.9524 H         1 UNK         0.3800 
    244 H244        2.3770  -20.3982  -57.2824 H         1 UNK         0.0800 
    245 H245        1.4934  -21.6362  -56.4540 H         1 UNK         0.0800 
    246 H246        1.3143  -21.5123  -54.0976 H         1 UNK         0.0800 
    247 H247       -0.3172  -20.8855  -54.1858 H         1 UNK         0.0800 
@<TRIPOS>BOND
     1    1    2 1    
     2    1  127 1    
     3    1  128 1    
     4    1  129 1    
     5    2    3 2    
     6    2    4 am   BACKBONE|DICT|INTERRES
     7    4    5 1    
     8    4  130 1    
     9    5    6 1    
    10    5   65 1    
    11    5  131 1    
    12    6    7 1    
    13    6  132 1    
    14    6  133 1    
    15    7    8 1    
    16    8    9 1    
    17    8  134 1    
    18    8  135 1    
    19    9   10 ar   
    20    9   14 ar   
    21   10   11 ar   
    22   10  136 1    
    23   11   12 ar   
    24   11  126 1    
    25   12   13 ar   
    26   12  137 1    
    27   13   14 ar   
    28   13   15 1    
    29   14  138 1    
    30   15   16 1    
    31   15  139 1    
    32   15  140 1    
    33   16   17 1    
    34   17   18 1    
    35   17  141 1    
    36   17  142 1    
    37   18   19 1    
    38   18   67 1    
    39   18  143 1    
    40   19   20 am   BACKBONE|DICT|INTERRES
    41   19  144 1    
    42   20   21 2    
    43   20   22 1    
    44   22   23 1    
    45   22   24 1    
    46   22  145 1    
    47   23  146 1    
    48   23  147 1    
    49   23  148 1    
    50   24   25 am   BACKBONE|DICT|INTERRES
    51   24  149 1    
    52   25   26 2    
    53   25   27 1    
    54   27   28 1    
    55   27   29 1    
    56   27  150 1    
    57   28  151 1    
    58   28  152 1    
    59   28  153 1    
    60   29   30 am   BACKBONE|DICT|INTERRES
    61   29  154 1    
    62   30   31 2    
    63   30   32 1    
    64   32   33 1    
    65   32   34 1    
    66   32  155 1    
    67   33  156 1    
    68   33  157 1    
    69   33  158 1    
    70   34   35 am   BACKBONE|DICT|INTERRES
    71   34  159 1    
    72   35   36 2    
    73   35   37 1    
    74   37   38 1    
    75   37   39 1    
    76   37  160 1    
    77   38  161 1    
    78   38  162 1    
    79   38  163 1    
    80   39   40 am   BACKBONE|DICT|INTERRES
    81   39  164 1    
    82   40   41 2    
    83   40   42 1    
    84   42   43 1    
    85   42   44 1    
    86   42  165 1    
    87   43  166 1    
    88   43  167 1    
    89   43  168 1    
    90   44   45 am   BACKBONE|DICT|INTERRES
    91   44  169 1    
    92   45   46 2    
    93   45   47 1    
    94   47   48 1    
    95   47   49 1    
    96   47  170 1    
    97   48  171 1    
    98   48  172 1    
    99   48  173 1    
   100   49   50 am   BACKBONE|DICT|INTERRES
   101   49  174 1    
   102   50   51 2    
   103   50   52 1    
   104   52   53 1    
   105   52   54 1    
   106   52  175 1    
   107   53  176 1    
   108   53  177 1    
   109   53  178 1    
   110   54   55 am   BACKBONE|DICT|INTERRES
   111   54  179 1    
   112   55   56 2    
   113   55   57 1    
   114   57   58 1    
   115   57   59 1    
   116   57  180 1    
   117   58  181 1    
   118   58  182 1    
   119   58  183 1    
   120   59   60 am   BACKBONE|DICT|INTERRES
   121   59  184 1    
   122   60   61 2    
   123   60   62 1    
   124   62   63 1    
   125   62   64 1    
   126   62  185 1    
   127   63  186 1    
   128   63  187 1    
   129   63  188 1    
   130   64   65 am   BACKBONE|DICT|INTERRES
   131   64  189 1    
   132   65   66 2    
   133   67   68 2    
   134   67   69 am   BACKBONE|DICT|INTERRES
   135   69   70 1    
   136   69  190 1    
   137   70   71 1    
   138   70   72 1    
   139   70  191 1    
   140   71  192 1    
   141   71  193 1    
   142   71  194 1    
   143   72   73 2    
   144   72   74 am   BACKBONE|DICT|INTERRES
   145   74   75 1    
   146   74  195 1    
   147   75   76 1    
   148   75   77 1    
   149   75  196 1    
   150   76  197 1    
   151   76  198 1    
   152   76  199 1    
   153   77   78 2    
   154   77   79 am   BACKBONE|DICT|INTERRES
   155   79   80 1    
   156   79  200 1    
   157   80   81 1    
   158   80   82 1    
   159   80  201 1    
   160   81  202 1    
   161   81  203 1    
   162   81  204 1    
   163   82   83 2    
   164   82   84 am   BACKBONE|DICT|INTERRES
   165   84   85 1    
   166   84  205 1    
   167   85   86 1    
   168   85   87 1    
   169   85  206 1    
   170   86  207 1    
   171   86  208 1    
   172   86  209 1    
   173   87   88 2    
   174   87   89 am   BACKBONE|DICT|INTERRES
   175   89   90 1    
   176   89  210 1    
   177   90   91 1    
   178   90   92 1    
   179   90  211 1    
   180   91  212 1    
   181   91  213 1    
   182   91  214 1    
   183   92   93 2    
   184   92   94 am   BACKBONE|DICT|INTERRES
   185   94   95 1    
   186   94  215 1    
   187   95   96 1    
   188   95   97 1    
   189   95  216 1    
   190   96  217 1    
   191   96  218 1    
   192   96  219 1    
   193   97   98 2    
   194   97   99 am   BACKBONE|DICT|INTERRES
   195   99  100 1    
   196   99  220 1    
   197  100  101 1    
   198  100  102 1    
   199  100  221 1    
   200  101  222 1    
   201  101  223 1    
   202  101  224 1    
   203  102  103 2    
   204  102  104 am   BACKBONE|DICT|INTERRES
   205  104  105 1    
   206  104  225 1    
   207  105  106 1    
   208  105  107 1    
   209  105  226 1    
   210  106  227 1    
   211  106  228 1    
   212  106  229 1    
   213  107  108 2    
   214  107  109 am   BACKBONE|DICT|INTERRES
   215  109  110 1    
   216  109  230 1    
   217  110  111 1    
   218  110  112 1    
   219  110  231 1    
   220  111  232 1    
   221  111  233 1    
   222  111  234 1    
   223  112  113 2    
   224  112  114 am   BACKBONE|DICT|INTERRES
   225  114  115 1    
   226  114  235 1    
   227  115  116 1    
   228  115  117 1    
   229  115  236 1    
   230  116  237 1    
   231  116  238 1    
   232  116  239 1    
   233  117  118 2    
   234  117  119 am   BACKBONE|DICT|INTERRES
   235  119  120 1    
   236  119  240 1    
   237  120  121 1    
   238  120  124 1    
   239  120  241 1    
   240  121  122 am   BACKBONE|DICT|INTERRES
   241  121  123 2    
   242  122  242 1    
   243  122  243 1    
   244  124  125 1    
   245  124  244 1    
   246  124  245 1    
   247  125  126 1    
   248  126  246 1    
   249  126  247 1    
@<TRIPOS>SUBSTRUCTURE
     1 UNK         1 GROUP             0       ****    0 ROOT    
