@<TRIPOS>MOLECULE
3R540
247   249    1
SMALL
USER_CHARGES


@<TRIPOS>ATOM
      1 CA         -0.5689   -9.9106  -49.7601 C.3       0 UNK        -0.1800 
      2 C           0.5155  -10.4949  -50.6542 C.2       0 UNK         0.5000 
      3 O           1.3916   -9.7631  -51.1159 O.2       0 UNK        -0.5000 
      4 N           0.4532  -11.8074  -50.9028 N.am      1 UNK        -0.5000 
      5 CA          1.4558  -12.5742  -51.6471 C.3       1 UNK         0.1400 
      6 C6          0.8239  -13.8465  -52.2736 C.3       23 UNK        -0.0398 
      7 S7          0.3485  -15.1176  -51.0531 S.3       23 UNK        -0.2404 
      8 C8         -1.4673  -15.0813  -51.1204 C.3       23 UNK        -0.0205 
      9 C9         -2.0641  -15.9760  -50.0442 C.ar      23 UNK        -0.0193 
     10 C10        -2.8738  -15.4421  -49.0367 C.ar      23 UNK        -0.1150 
     11 C11        -3.4199  -16.2686  -48.0476 C.ar      23 UNK        -0.0193 
     12 C12        -3.1339  -17.6370  -48.0634 C.ar      23 UNK        -0.1150 
     13 C13        -2.3158  -18.1784  -49.0590 C.ar      23 UNK        -0.0193 
     14 C14        -1.7964  -17.3467  -50.0517 C.ar      23 UNK        -0.1150 
     15 C15        -1.9776  -19.6575  -49.0710 C.3       23 UNK        -0.0205 
     16 S16        -0.4389  -19.9907  -48.1588 S.3       23 UNK        -0.2404 
     17 C17        -1.0766  -20.3474  -46.4888 C.3       23 UNK        -0.0398 
     18 CA         -1.1607  -21.8704  -46.2350 C.3       11 UNK         0.1400 
     19 N          -1.1078  -22.2007  -44.8107 N.am      11 UNK        -0.5000 
     20 C          -1.0125  -23.4427  -44.3150 C.2       10 UNK         0.5000 
     21 O          -0.9236  -24.4527  -45.0130 O.2       10 UNK        -0.5000 
     22 CA         -1.1011  -23.5782  -42.7871 C.3       10 UNK         0.1400 
     23 CB          0.2524  -23.2781  -42.1255 C.3       10 UNK        -0.1800 
     24 N          -2.1335  -22.6921  -42.2475 N.am      10 UNK        -0.5000 
     25 C          -3.4491  -22.9300  -42.3533 C.2       9 UNK         0.5000 
     26 O          -3.9164  -23.9652  -42.8279 O.2       9 UNK        -0.5000 
     27 CA         -4.4033  -21.8182  -41.8766 C.3       9 UNK         0.1400 
     28 CB         -4.7274  -21.9897  -40.3851 C.3       9 UNK        -0.1800 
     29 N          -3.8697  -20.4736  -42.1015 N.am      9 UNK        -0.5000 
     30 C          -3.7270  -19.9021  -43.3057 C.2       8 UNK         0.5000 
     31 O          -4.0613  -20.4387  -44.3625 O.2       8 UNK        -0.5000 
     32 CA         -3.0388  -18.5234  -43.3379 C.3       8 UNK         0.1400 
     33 CB         -4.0606  -17.3890  -43.1879 C.3       8 UNK        -0.1800 
     34 N          -2.0025  -18.3606  -42.3155 N.am      8 UNK        -0.5000 
     35 C          -0.8815  -19.0874  -42.2481 C.2       7 UNK         0.5000 
     36 O          -0.6410  -20.0433  -42.9882 O.2       7 UNK        -0.5000 
     37 CA          0.1368  -18.6900  -41.1642 C.3       7 UNK         0.1400 
     38 CB          0.1918  -19.7538  -40.0570 C.3       7 UNK        -0.1800 
     39 N           1.4731  -18.5100  -41.7328 N.am      7 UNK        -0.5000 
     40 C           1.7847  -17.5769  -42.6421 C.2       6 UNK         0.5000 
     41 O           0.9883  -16.7185  -43.0310 O.2       6 UNK        -0.5000 
     42 CA          3.2148  -17.6303  -43.2136 C.3       6 UNK         0.1400 
     43 CB          3.4153  -18.8969  -44.0642 C.3       6 UNK        -0.1800 
     44 N           3.4845  -16.4560  -44.0431 N.am      6 UNK        -0.5000 
     45 C           3.8886  -15.2662  -43.5730 C.2       5 UNK         0.5000 
     46 O           4.2146  -15.0742  -42.4005 O.2       5 UNK        -0.5000 
     47 CA          3.9360  -14.0857  -44.5677 C.3       5 UNK         0.1400 
     48 CB          5.3623  -13.8895  -45.1036 C.3       5 UNK        -0.1800 
     49 N           3.0273  -14.2603  -45.6997 N.am      5 UNK        -0.5000 
     50 C           1.6893  -14.1962  -45.6297 C.2       4 UNK         0.5000 
     51 O           1.0827  -13.7918  -44.6375 O.2       4 UNK        -0.5000 
     52 CA          0.8906  -14.6728  -46.8631 C.3       4 UNK         0.1400 
     53 CB          0.1055  -13.5115  -47.4943 C.3       4 UNK        -0.1800 
     54 N           1.7147  -15.3196  -47.8907 N.am      4 UNK        -0.5000 
     55 C           2.3197  -16.5096  -47.7559 C.2       3 UNK         0.5000 
     56 O           2.2668  -17.1783  -46.7251 O.2       3 UNK        -0.5000 
     57 CA          3.1731  -17.0173  -48.9335 C.3       3 UNK         0.1400 
     58 CB          2.4179  -18.0912  -49.7253 C.3       3 UNK        -0.1800 
     59 N           3.6050  -15.9513  -49.8408 N.am      3 UNK        -0.5000 
     60 C           4.5904  -15.0837  -49.5668 C.2       2 UNK         0.5000 
     61 O           5.2316  -15.0934  -48.5157 O.2       2 UNK        -0.5000 
     62 CA          4.8949  -14.0110  -50.6337 C.3       2 UNK         0.1400 
     63 CB          5.9148  -14.5417  -51.6525 C.3       2 UNK        -0.1800 
     64 N           3.7028  -13.5391  -51.3460 N.am      2 UNK        -0.5000 
     65 C           2.6864  -12.8911  -50.7602 C.2       1 UNK         0.5000 
     66 O           2.6854  -12.5972  -49.5622 O.2       1 UNK        -0.5000 
     67 C          -2.3780  -22.5058  -46.9416 C.2       11 UNK         0.5000 
     68 O          -2.2390  -22.9691  -48.0723 O.2       11 UNK        -0.5000 
     69 N          -3.5271  -22.5723  -46.2535 N.am      12 UNK        -0.5000 
     70 CA         -4.7414  -23.2368  -46.7312 C.3       12 UNK         0.1400 
     71 CB         -5.8898  -22.9984  -45.7395 C.3       12 UNK        -0.1800 
     72 C          -4.5589  -24.7462  -46.9862 C.2       12 UNK         0.5000 
     73 O          -5.1871  -25.2841  -47.8976 O.2       12 UNK        -0.5000 
     74 N          -3.6987  -25.3978  -46.1922 N.am      13 UNK        -0.5000 
     75 CA         -3.3272  -26.7999  -46.3675 C.3       13 UNK         0.1400 
     76 CB         -2.8780  -27.3823  -45.0181 C.3       13 UNK        -0.1800 
     77 C          -2.2301  -26.9694  -47.4339 C.2       13 UNK         0.5000 
     78 O          -2.3111  -27.8939  -48.2435 O.2       13 UNK        -0.5000 
     79 N          -1.2211  -26.0871  -47.4083 N.am      14 UNK        -0.5000 
     80 CA         -0.0573  -26.1306  -48.2953 C.3       14 UNK         0.1400 
     81 CB          1.0402  -25.2140  -47.7326 C.3       14 UNK        -0.1800 
     82 C          -0.3691  -25.7504  -49.7547 C.2       14 UNK         0.5000 
     83 O           0.2069  -26.3477  -50.6648 O.2       14 UNK        -0.5000 
     84 N          -1.2488  -24.7553  -49.9434 N.am      15 UNK        -0.5000 
     85 CA         -1.6111  -24.1131  -51.2114 C.3       15 UNK         0.1400 
     86 CB         -2.4254  -25.0707  -52.1046 C.3       15 UNK        -0.1800 
     87 C          -0.3928  -23.4852  -51.9223 C.2       15 UNK         0.5000 
     88 O          -0.1937  -23.6828  -53.1230 O.2       15 UNK        -0.5000 
     89 N           0.4187  -22.7563  -51.1459 N.am      16 UNK        -0.5000 
     90 CA          1.5739  -22.0060  -51.6282 C.3       16 UNK         0.1400 
     91 CB          2.5526  -21.8015  -50.4622 C.3       16 UNK        -0.1800 
     92 C           1.1254  -20.6555  -52.2109 C.2       16 UNK         0.5000 
     93 O           0.2871  -19.9862  -51.6076 O.2       16 UNK        -0.5000 
     94 N           1.6951  -20.2774  -53.3638 N.am      17 UNK        -0.5000 
     95 CA          1.4730  -19.0474  -54.1442 C.3       17 UNK         0.1400 
     96 CB          1.8681  -17.7920  -53.3436 C.3       17 UNK        -0.1800 
     97 C           0.0590  -18.8898  -54.7452 C.2       17 UNK         0.5000 
     98 O          -0.0563  -18.5064  -55.9102 O.2       17 UNK        -0.5000 
     99 N          -0.9788  -19.1922  -53.9624 N.am      18 UNK        -0.5000 
    100 CA        -2.3846  -19.1926  -54.3452 C.3       18 UNK         0.1400 
    101 CB        -3.1013  -18.0555  -53.6008 C.3       18 UNK        -0.1800 
    102 C         -3.0041  -20.5497  -53.9824 C.2       18 UNK         0.5000 
    103 O         -2.5011  -21.2460  -53.0965 O.2       18 UNK        -0.5000 
    104 N         -4.1047  -20.8958  -54.6609 N.am      19 UNK        -0.5000 
    105 CA        -4.8674  -22.1318  -54.4764 C.3       19 UNK         0.1400 
    106 CB        -5.7767  -22.3377  -55.7010 C.3       19 UNK        -0.1800 
    107 C         -5.6571  -22.1242  -53.1514 C.2       19 UNK         0.5000 
    108 O         -6.8746  -21.9315  -53.1545 O.2       19 UNK        -0.5000 
    109 N         -4.9264  -22.2845  -52.0409 N.am      20 UNK        -0.5000 
    110 CA        -5.3454  -22.2722  -50.6339 C.3       20 UNK         0.1400 
    111 CB        -6.4309  -23.3272  -50.3461 C.3       20 UNK        -0.1800 
    112 C         -5.7607  -20.8796  -50.1266 C.2       20 UNK         0.5000 
    113 O         -5.2789  -20.4573  -49.0755 O.2       20 UNK        -0.5000 
    114 N         -6.6205  -20.1882  -50.8871 N.am      21 UNK        -0.5000 
    115 CA        -7.1179  -18.8300  -50.6593 C.3       21 UNK         0.1400 
    116 CB        -6.0175  -17.8094  -51.0327 C.3       21 UNK        -0.1800 
    117 C         -7.6927  -18.6521  -49.2361 C.2       21 UNK         0.5000 
    118 O         -8.6256  -19.3672  -48.8649 O.2       21 UNK        -0.5000 
    119 N         -7.1204  -17.7184  -48.4727 N.am      22 UNK        -0.5000 
    120 CA        -7.4040  -17.4563  -47.0565 C.3       22 UNK         0.1400 
    121 C         -6.7252  -18.4416  -46.0596 C.2       22 UNK         0.5000 
    122 N         -5.8444  -19.3414  -46.4780 N.am      22 UNK        -0.7600 
    123 O         -7.0176  -18.3913  -44.8686 O.2       22 UNK        -0.5000 
    124 C124       -7.1461  -15.9649  -46.6719 C.3       23 UNK        -0.0398 
    125 S125       -5.8786  -15.0745  -47.6521 S.3       23 UNK        -0.2404 
    126 C126       -4.3065  -15.6776  -46.9597 C.3       23 UNK        -0.0205 
    127 H127       -1.1300   -9.1475  -50.2989 H         1 UNK         0.0600 
    128 H128       -0.1200   -9.4491  -48.8806 H         1 UNK         0.0600 
    129 H129       -1.2703  -10.6736  -49.4216 H         1 UNK         0.0600 
    130 H130       -0.2658  -12.3591  -50.4602 H         1 UNK         0.3000 
    131 H131        1.8143  -11.9522  -52.4696 H         1 UNK         0.0600 
    132 H132       -0.0459  -13.5722  -52.8720 H         1 UNK         0.0800 
    133 H133        1.5189  -14.3059  -52.9775 H         1 UNK         0.0800 
    134 H134       -1.8016  -15.4229  -52.1007 H         1 UNK         0.0800 
    135 H135       -1.8167  -14.0544  -51.0064 H         1 UNK         0.0800 
    136 H136       -3.0875  -14.3827  -49.0213 H         1 UNK         0.1150 
    137 H137       -3.5388  -18.2809  -47.2974 H         1 UNK         0.1150 
    138 H138       -1.1604  -17.7648  -50.8202 H         1 UNK         0.1150 
    139 H139       -2.7966  -20.2375  -48.6507 H         1 UNK         0.0800 
    140 H140       -1.8660  -20.0033  -50.0995 H         1 UNK         0.0800 
    141 H141       -2.0355  -19.8557  -46.3216 H         1 UNK         0.0800 
    142 H142       -0.3793  -19.8891  -45.7858 H         1 UNK         0.0800 
    143 H143       -0.2695  -22.3271  -46.6689 H         1 UNK         0.0600 
    144 H144       -1.1174  -21.4194  -44.1596 H         1 UNK         0.3000 
    145 H145       -1.3679  -24.6114  -42.5540 H         1 UNK         0.0600 
    146 H146        0.1895  -23.3641  -41.0406 H         1 UNK         0.0600 
    147 H147        1.0117  -23.9840  -42.4640 H         1 UNK         0.0600 
    148 H148        0.6121  -22.2773  -42.3638 H         1 UNK         0.0600 
    149 H149       -1.8255  -21.7970  -41.8968 H         1 UNK         0.3000 
    150 H150       -5.3328  -21.9147  -42.4421 H         1 UNK         0.0600 
    151 H151       -5.1488  -22.9765  -40.1886 H         1 UNK         0.0600 
    152 H152       -5.4598  -21.2533  -40.0537 H         1 UNK         0.0600 
    153 H153       -3.8375  -21.8828  -39.7636 H         1 UNK         0.0600 
    154 H154       -3.5672  -19.9594  -41.2875 H         1 UNK         0.3000 
    155 H155       -2.5595  -18.4194  -44.3135 H         1 UNK         0.0600 
    156 H156       -4.5914  -17.4446  -42.2367 H         1 UNK         0.0600 
    157 H157       -3.5804  -16.4123  -43.2507 H         1 UNK         0.0600 
    158 H158       -4.8035  -17.4291  -43.9815 H         1 UNK         0.0600 
    159 H159       -2.1245  -17.5903  -41.6740 H         1 UNK         0.3000 
    160 H160       -0.1699  -17.7428  -40.7156 H         1 UNK         0.0600 
    161 H161        0.5377  -20.7157  -40.4363 H         1 UNK         0.0600 
    162 H162       -0.7928  -19.9100  -39.6144 H         1 UNK         0.0600 
    163 H163        0.8632  -19.4508  -39.2533 H         1 UNK         0.0600 
    164 H164        2.1647  -19.2003  -41.4802 H         1 UNK         0.3000 
    165 H165        3.9204  -17.6560  -42.3805 H         1 UNK         0.0600 
    166 H166        4.3926  -18.8995  -44.5473 H         1 UNK         0.0600 
    167 H167        3.3561  -19.7967  -43.4511 H         1 UNK         0.0600 
    168 H168        2.6563  -18.9858  -44.8421 H         1 UNK         0.0600 
    169 H169        3.1592  -16.5187  -45.0019 H         1 UNK         0.3000 
    170 H170        3.6445  -13.1827  -44.0273 H         1 UNK         0.0600 
    171 H171        6.0668  -13.7213  -44.2881 H         1 UNK         0.0600 
    172 H172        5.7058  -14.7625  -45.6603 H         1 UNK         0.0600 
    173 H173        5.4199  -13.0260  -45.7666 H         1 UNK         0.0600 
    174 H174        3.4421  -14.5716  -46.5668 H         1 UNK         0.3000 
    175 H175        0.1681  -15.4117  -46.5098 H         1 UNK         0.0600 
    176 H176       -0.4612  -13.8415  -48.3639 H         1 UNK         0.0600 
    177 H177        0.7638  -12.7011  -47.8059 H         1 UNK         0.0600 
    178 H178       -0.6090  -13.0942  -46.7838 H         1 UNK         0.0600 
    179 H179        1.8314  -14.8130  -48.7571 H         1 UNK         0.3000 
    180 H180        4.0642  -17.4857  -48.5101 H         1 UNK         0.0600 
    181 H181        1.4695  -17.7209  -50.1141 H         1 UNK         0.0600 
    182 H182        2.1907  -18.9440  -49.0865 H         1 UNK         0.0600 
    183 H183        3.0092  -18.4642  -50.5609 H         1 UNK         0.0600 
    184 H184        3.1056  -15.8657  -50.7138 H         1 UNK         0.3000 
    185 H185        5.3398  -13.1554  -50.1210 H         1 UNK         0.0600 
    186 H186        6.8237  -14.8811  -51.1540 H         1 UNK         0.0600 
    187 H187        5.5173  -15.3844  -52.2196 H         1 UNK         0.0600 
    188 H188        6.2054  -13.7660  -52.3611 H         1 UNK         0.0600 
    189 H189        3.6583  -13.7474  -52.3328 H         1 UNK         0.3000 
    190 H190       -3.5894  -22.0967  -45.3596 H         1 UNK         0.3000 
    191 H191       -5.0116  -22.7716  -47.6784 H         1 UNK         0.0600 
    192 H192       -5.6769  -23.4343  -44.7638 H         1 UNK         0.0600 
    193 H193       -6.8156  -23.4460  -46.1029 H         1 UNK         0.0600 
    194 H194       -6.0818  -21.9366  -45.5960 H         1 UNK         0.0600 
    195 H195       -3.2065  -24.8802  -45.4767 H         1 UNK         0.3000 
    196 H196       -4.2038  -27.3631  -46.6953 H         1 UNK         0.0600 
    197 H197       -2.6307  -28.4402  -45.1144 H         1 UNK         0.0600 
    198 H198       -3.6681  -27.2992  -44.2715 H         1 UNK         0.0600 
    199 H199       -1.9959  -26.8746  -44.6276 H         1 UNK         0.0600 
    200 H200       -1.2059  -25.3886  -46.6707 H         1 UNK         0.3000 
    201 H201        0.3263  -27.1531  -48.2946 H         1 UNK         0.0600 
    202 H202        1.3119  -25.4994  -46.7162 H         1 UNK         0.0600 
    203 H203        0.7224  -24.1719  -47.7146 H         1 UNK         0.0600 
    204 H204        1.9446  -25.2693  -48.3400 H         1 UNK         0.0600 
    205 H205       -1.6392  -24.3005  -49.1191 H         1 UNK         0.3000 
    206 H206       -2.2620  -23.2784  -50.9500 H         1 UNK         0.0600 
    207 H207       -2.7740  -24.5621  -53.0038 H         1 UNK         0.0600 
    208 H208       -1.8350  -25.9301  -52.4228 H         1 UNK         0.0600 
    209 H209       -3.3058  -25.4423  -51.5800 H         1 UNK         0.0600 
    210 H210        0.1533  -22.5984  -50.1849 H         1 UNK         0.3000 
    211 H211        2.0804  -22.5838  -52.4042 H         1 UNK         0.0600 
    212 H212        2.0821  -21.2758  -49.6309 H         1 UNK         0.0600 
    213 H213        3.4187  -21.2167  -50.7745 H         1 UNK         0.0600 
    214 H214        2.9212  -22.7562  -50.0863 H         1 UNK         0.0600 
    215 H215        2.3504  -20.9200  -53.7865 H         1 UNK         0.3000 
    216 H216        2.1591  -19.1167  -54.9898 H         1 UNK         0.0600 
    217 H217        1.8055  -16.8982  -53.9651 H         1 UNK         0.0600 
    218 H218        2.8913  -17.8615  -52.9753 H         1 UNK         0.0600 
    219 H219        1.2093  -17.6364  -52.4901 H         1 UNK         0.0600 
    220 H220       -0.7772  -19.5499  -53.0298 H         1 UNK         0.3000 
    221 H221       -2.4884  -19.0413  -55.4215 H         1 UNK         0.0600 
    222 H222       -3.0901  -18.2109  -52.5212 H         1 UNK         0.0600 
    223 H223       -2.6322  -17.0933  -53.8060 H         1 UNK         0.0600 
    224 H224       -4.1430  -17.9811  -53.9134 H         1 UNK         0.0600 
    225 H225       -4.4721  -20.2523  -55.3468 H         1 UNK         0.3000 
    226 H226       -4.1682  -22.9699  -54.4403 H         1 UNK         0.0600 
    227 H227       -5.1911  -22.4231  -56.6165 H         1 UNK         0.0600 
    228 H228       -6.3604  -23.2541  -55.6038 H         1 UNK         0.0600 
    229 H229       -6.4788  -21.5126  -55.8279 H         1 UNK         0.0600 
    230 H230       -3.9213  -22.2690  -52.1844 H         1 UNK         0.3000 
    231 H231       -4.4596  -22.5564  -50.0636 H         1 UNK         0.0600 
    232 H232       -6.6909  -23.3410  -49.2876 H         1 UNK         0.0600 
    233 H233       -6.0846  -24.3271  -50.6077 H         1 UNK         0.0600 
    234 H234       -7.3526  -23.1352  -50.8950 H         1 UNK         0.0600 
    235 H235       -6.9644  -20.6559  -51.7210 H         1 UNK         0.3000 
    236 H236       -7.9531  -18.6843  -51.3456 H         1 UNK         0.0600 
    237 H237       -5.7154  -17.9352  -52.0715 H         1 UNK         0.0600 
    238 H238       -6.3713  -16.7828  -50.9291 H         1 UNK         0.0600 
    239 H239       -5.1242  -17.9215  -50.4164 H         1 UNK         0.0600 
    240 H240       -6.3509  -17.1863  -48.8543 H         1 UNK         0.3000 
    241 H241       -8.4718  -17.6311  -46.9108 H         1 UNK         0.0600 
    242 H242       -5.3867  -19.9224  -45.7865 H         1 UNK         0.3800 
    243 H243       -5.6580  -19.4960  -47.4650 H         1 UNK         0.3800 
    244 H244       -8.0749  -15.4138  -46.8236 H         1 UNK         0.0800 
    245 H245       -6.9252  -15.8409  -45.6100 H         1 UNK         0.0800 
    246 H246       -3.7851  -14.8469  -46.4819 H         1 UNK         0.0800 
    247 H247       -4.4942  -16.4121  -46.1763 H         1 UNK         0.0800 
@<TRIPOS>BOND
     1    1    2 1    
     2    1  127 1    
     3    1  128 1    
     4    1  129 1    
     5    2    3 2    
     6    2    4 am   BACKBONE|DICT|INTERRES
     7    4    5 1    
     8    4  130 1    
     9    5    6 1    
    10    5   65 1    
    11    5  131 1    
    12    6    7 1    
    13    6  132 1    
    14    6  133 1    
    15    7    8 1    
    16    8    9 1    
    17    8  134 1    
    18    8  135 1    
    19    9   10 ar   
    20    9   14 ar   
    21   10   11 ar   
    22   10  136 1    
    23   11   12 ar   
    24   11  126 1    
    25   12   13 ar   
    26   12  137 1    
    27   13   14 ar   
    28   13   15 1    
    29   14  138 1    
    30   15   16 1    
    31   15  139 1    
    32   15  140 1    
    33   16   17 1    
    34   17   18 1    
    35   17  141 1    
    36   17  142 1    
    37   18   19 1    
    38   18   67 1    
    39   18  143 1    
    40   19   20 am   BACKBONE|DICT|INTERRES
    41   19  144 1    
    42   20   21 2    
    43   20   22 1    
    44   22   23 1    
    45   22   24 1    
    46   22  145 1    
    47   23  146 1    
    48   23  147 1    
    49   23  148 1    
    50   24   25 am   BACKBONE|DICT|INTERRES
    51   24  149 1    
    52   25   26 2    
    53   25   27 1    
    54   27   28 1    
    55   27   29 1    
    56   27  150 1    
    57   28  151 1    
    58   28  152 1    
    59   28  153 1    
    60   29   30 am   BACKBONE|DICT|INTERRES
    61   29  154 1    
    62   30   31 2    
    63   30   32 1    
    64   32   33 1    
    65   32   34 1    
    66   32  155 1    
    67   33  156 1    
    68   33  157 1    
    69   33  158 1    
    70   34   35 am   BACKBONE|DICT|INTERRES
    71   34  159 1    
    72   35   36 2    
    73   35   37 1    
    74   37   38 1    
    75   37   39 1    
    76   37  160 1    
    77   38  161 1    
    78   38  162 1    
    79   38  163 1    
    80   39   40 am   BACKBONE|DICT|INTERRES
    81   39  164 1    
    82   40   41 2    
    83   40   42 1    
    84   42   43 1    
    85   42   44 1    
    86   42  165 1    
    87   43  166 1    
    88   43  167 1    
    89   43  168 1    
    90   44   45 am   BACKBONE|DICT|INTERRES
    91   44  169 1    
    92   45   46 2    
    93   45   47 1    
    94   47   48 1    
    95   47   49 1    
    96   47  170 1    
    97   48  171 1    
    98   48  172 1    
    99   48  173 1    
   100   49   50 am   BACKBONE|DICT|INTERRES
   101   49  174 1    
   102   50   51 2    
   103   50   52 1    
   104   52   53 1    
   105   52   54 1    
   106   52  175 1    
   107   53  176 1    
   108   53  177 1    
   109   53  178 1    
   110   54   55 am   BACKBONE|DICT|INTERRES
   111   54  179 1    
   112   55   56 2    
   113   55   57 1    
   114   57   58 1    
   115   57   59 1    
   116   57  180 1    
   117   58  181 1    
   118   58  182 1    
   119   58  183 1    
   120   59   60 am   BACKBONE|DICT|INTERRES
   121   59  184 1    
   122   60   61 2    
   123   60   62 1    
   124   62   63 1    
   125   62   64 1    
   126   62  185 1    
   127   63  186 1    
   128   63  187 1    
   129   63  188 1    
   130   64   65 am   BACKBONE|DICT|INTERRES
   131   64  189 1    
   132   65   66 2    
   133   67   68 2    
   134   67   69 am   BACKBONE|DICT|INTERRES
   135   69   70 1    
   136   69  190 1    
   137   70   71 1    
   138   70   72 1    
   139   70  191 1    
   140   71  192 1    
   141   71  193 1    
   142   71  194 1    
   143   72   73 2    
   144   72   74 am   BACKBONE|DICT|INTERRES
   145   74   75 1    
   146   74  195 1    
   147   75   76 1    
   148   75   77 1    
   149   75  196 1    
   150   76  197 1    
   151   76  198 1    
   152   76  199 1    
   153   77   78 2    
   154   77   79 am   BACKBONE|DICT|INTERRES
   155   79   80 1    
   156   79  200 1    
   157   80   81 1    
   158   80   82 1    
   159   80  201 1    
   160   81  202 1    
   161   81  203 1    
   162   81  204 1    
   163   82   83 2    
   164   82   84 am   BACKBONE|DICT|INTERRES
   165   84   85 1    
   166   84  205 1    
   167   85   86 1    
   168   85   87 1    
   169   85  206 1    
   170   86  207 1    
   171   86  208 1    
   172   86  209 1    
   173   87   88 2    
   174   87   89 am   BACKBONE|DICT|INTERRES
   175   89   90 1    
   176   89  210 1    
   177   90   91 1    
   178   90   92 1    
   179   90  211 1    
   180   91  212 1    
   181   91  213 1    
   182   91  214 1    
   183   92   93 2    
   184   92   94 am   BACKBONE|DICT|INTERRES
   185   94   95 1    
   186   94  215 1    
   187   95   96 1    
   188   95   97 1    
   189   95  216 1    
   190   96  217 1    
   191   96  218 1    
   192   96  219 1    
   193   97   98 2    
   194   97   99 am   BACKBONE|DICT|INTERRES
   195   99  100 1    
   196   99  220 1    
   197  100  101 1    
   198  100  102 1    
   199  100  221 1    
   200  101  222 1    
   201  101  223 1    
   202  101  224 1    
   203  102  103 2    
   204  102  104 am   BACKBONE|DICT|INTERRES
   205  104  105 1    
   206  104  225 1    
   207  105  106 1    
   208  105  107 1    
   209  105  226 1    
   210  106  227 1    
   211  106  228 1    
   212  106  229 1    
   213  107  108 2    
   214  107  109 am   BACKBONE|DICT|INTERRES
   215  109  110 1    
   216  109  230 1    
   217  110  111 1    
   218  110  112 1    
   219  110  231 1    
   220  111  232 1    
   221  111  233 1    
   222  111  234 1    
   223  112  113 2    
   224  112  114 am   BACKBONE|DICT|INTERRES
   225  114  115 1    
   226  114  235 1    
   227  115  116 1    
   228  115  117 1    
   229  115  236 1    
   230  116  237 1    
   231  116  238 1    
   232  116  239 1    
   233  117  118 2    
   234  117  119 am   BACKBONE|DICT|INTERRES
   235  119  120 1    
   236  119  240 1    
   237  120  121 1    
   238  120  124 1    
   239  120  241 1    
   240  121  122 am   BACKBONE|DICT|INTERRES
   241  121  123 2    
   242  122  242 1    
   243  122  243 1    
   244  124  125 1    
   245  124  244 1    
   246  124  245 1    
   247  125  126 1    
   248  126  246 1    
   249  126  247 1    
@<TRIPOS>SUBSTRUCTURE
     1 UNK         1 GROUP             0       ****    0 ROOT    
