@<TRIPOS>MOLECULE
3R540
247   249    1
SMALL
USER_CHARGES


@<TRIPOS>ATOM
      1 CA         -2.1126  -14.1590  -51.6663 C.3       0 UNK        -0.1800 
      2 C          -1.1689  -13.3980  -50.7451 C.2       0 UNK         0.5000 
      3 O          -0.7023  -12.3156  -51.1013 O.2       0 UNK        -0.5000 
      4 N          -0.8826  -13.9644  -49.5676 N.am      1 UNK        -0.5000 
      5 CA         -0.0400  -13.3634  -48.5297 C.3       1 UNK         0.1400 
      6 C6          0.4803  -14.4289  -47.5327 C.3       23 UNK        -0.0398 
      7 S7          1.7681  -15.4788  -48.2877 S.3       23 UNK        -0.2404 
      8 C8          0.8182  -16.9555  -48.7623 C.3       23 UNK        -0.0205 
      9 C9          1.6887  -17.9484  -49.5173 C.ar      23 UNK        -0.0193 
     10 C10         1.7652  -17.9014  -50.9123 C.ar      23 UNK        -0.1150 
     11 C11         2.5435  -18.8287  -51.6125 C.ar      23 UNK        -0.0193 
     12 C12         3.2503  -19.8062  -50.9050 C.ar      23 UNK        -0.1150 
     13 C13         3.1999  -19.8510  -49.5088 C.ar      23 UNK        -0.0193 
     14 C14         2.4195  -18.9161  -48.8230 C.ar      23 UNK        -0.1150 
     15 C15         4.0190  -20.8845  -48.7462 C.3       23 UNK        -0.0205 
     16 S16         3.0702  -22.3963  -48.3831 S.3       23 UNK        -0.2404 
     17 C17         2.1788  -21.8908  -46.8749 C.3       23 UNK        -0.0398 
     18 CA          1.1132  -22.9115  -46.4134 C.3       11 UNK         0.1400 
     19 N           0.7104  -22.6708  -45.0274 N.am      11 UNK        -0.5000 
     20 C           0.1255  -23.5746  -44.2289 C.2       10 UNK         0.5000 
     21 O          -0.0595  -24.7493  -44.5458 O.2       10 UNK        -0.5000 
     22 CA         -0.3582  -23.0734  -42.8525 C.3       10 UNK         0.1400 
     23 CB          0.7422  -23.2535  -41.7967 C.3       10 UNK        -0.1800 
     24 N          -0.7807  -21.6706  -42.8706 N.am      10 UNK        -0.5000 
     25 C          -1.8495  -21.2133  -43.5412 C.2       9 UNK         0.5000 
     26 O          -2.6228  -21.9424  -44.1593 O.2       9 UNK        -0.5000 
     27 CA         -2.0616  -19.6864  -43.5844 C.3       9 UNK         0.1400 
     28 CB         -3.0143  -19.2522  -42.4616 C.3       9 UNK        -0.1800 
     29 N          -0.8139  -18.9195  -43.5092 N.am      9 UNK        -0.5000 
     30 C           0.2058  -19.0396  -44.3730 C.2       8 UNK         0.5000 
     31 O           0.1404  -19.7244  -45.3949 O.2       8 UNK        -0.5000 
     32 CA          1.5417  -18.3555  -44.0221 C.3       8 UNK         0.1400 
     33 CB          1.8805  -17.2396  -45.0198 C.3       8 UNK        -0.1800 
     34 N           1.6264  -17.8279  -42.6585 N.am      8 UNK        -0.5000 
     35 C           1.6804  -18.5701  -41.5423 C.2       7 UNK         0.5000 
     36 O           1.5411  -19.7942  -41.5356 O.2       7 UNK        -0.5000 
     37 CA          1.9104  -17.8222  -40.2183 C.3       7 UNK         0.1400 
     38 CB          3.4013  -17.4964  -40.0398 C.3       7 UNK        -0.1800 
     39 N           1.1405  -16.5791  -40.1780 N.am      7 UNK        -0.5000 
     40 C           0.1347  -16.3234  -39.3296 C.2       6 UNK         0.5000 
     41 O          -0.1952  -17.0735  -38.4101 O.2       6 UNK        -0.5000 
     42 CA         -0.6595  -15.0168  -39.5541 C.3       6 UNK         0.1400 
     43 CB         -0.0999  -13.8901  -38.6726 C.3       6 UNK        -0.1800 
     44 N          -0.6730  -14.5633  -40.9471 N.am      6 UNK        -0.5000 
     45 C          -1.1424  -15.2720  -41.9840 C.2       5 UNK         0.5000 
     46 O          -1.7076  -16.3569  -41.8632 O.2       5 UNK        -0.5000 
     47 CA         -0.8857  -14.7207  -43.3995 C.3       5 UNK         0.1400 
     48 CB         -2.1656  -14.0923  -43.9667 C.3       5 UNK        -0.1800 
     49 N           0.2259  -13.7644  -43.5040 N.am      5 UNK        -0.5000 
     50 C           1.4986  -13.9909  -43.1320 C.2       4 UNK         0.5000 
     51 O           1.8748  -15.0475  -42.6228 O.2       4 UNK        -0.5000 
     52 CA          2.5290  -12.8607  -43.3271 C.3       4 UNK         0.1400 
     53 CB          3.4294  -13.1655  -44.5340 C.3       4 UNK        -0.1800 
     54 N           1.9373  -11.5344  -43.4993 N.am      4 UNK        -0.5000 
     55 C           1.2359  -10.8666  -42.5725 C.2       3 UNK         0.5000 
     56 O           1.0622  -11.2742  -41.4232 O.2       3 UNK        -0.5000 
     57 CA          0.5818   -9.5422  -43.0215 C.3       3 UNK         0.1400 
     58 CB          1.4399   -8.3455  -42.5845 C.3       3 UNK        -0.1800 
     59 N           0.3318   -9.4480  -44.4673 N.am      3 UNK        -0.5000 
     60 C          -0.4434  -10.2811  -45.1779 C.2       2 UNK         0.5000 
     61 O          -1.0091  -11.2524  -44.6775 O.2       2 UNK        -0.5000 
     62 CA         -0.5870  -10.0211  -46.6917 C.3       2 UNK         0.1400 
     63 CB          0.1421   -8.7541  -47.1836 C.3       2 UNK        -0.1800 
     64 N          -0.0841  -11.1717  -47.4425 N.am      2 UNK        -0.5000 
     65 C          -0.8064  -12.2428  -47.7966 C.2       1 UNK         0.5000 
     66 O          -2.0107  -12.3744  -47.5638 O.2       1 UNK        -0.5000 
     67 C          -0.1236  -22.9040  -47.3324 C.2       11 UNK         0.5000 
     68 O          -0.2703  -23.8021  -48.1593 O.2       11 UNK        -0.5000 
     69 N          -1.0190  -21.9231  -47.1375 N.am      12 UNK        -0.5000 
     70 CA         -2.2796  -21.7978  -47.8744 C.3       12 UNK         0.1400 
     71 CB         -2.9843  -20.4932  -47.4776 C.3       12 UNK        -0.1800 
     72 C          -3.2130  -23.0094  -47.6826 C.2       12 UNK         0.5000 
     73 O          -3.8477  -23.4457  -48.6373 O.2       12 UNK        -0.5000 
     74 N          -3.2467  -23.5646  -46.4659 N.am      13 UNK        -0.5000 
     75 CA         -4.0203  -24.7554  -46.1143 C.3       13 UNK         0.1400 
     76 CB         -4.0907  -24.8549  -44.5818 C.3       13 UNK        -0.1800 
     77 C          -3.4807  -26.0739  -46.7111 C.2       13 UNK         0.5000 
     78 O          -4.1853  -27.0825  -46.6454 O.2       13 UNK        -0.5000 
     79 N          -2.2507  -26.0753  -47.2471 N.am      14 UNK        -0.5000 
     80 CA         -1.5628  -27.2821  -47.7128 C.3       14 UNK         0.1400 
     81 CB         -0.0587  -26.9975  -47.8440 C.3       14 UNK        -0.1800 
     82 C          -2.1134  -27.8614  -49.0302 C.2       14 UNK         0.5000 
     83 O          -1.9445  -29.0592  -49.2653 O.2       14 UNK        -0.5000 
     84 N          -2.7462  -27.0303  -49.8680 N.am      15 UNK        -0.5000 
     85 CA         -3.2925  -27.4218  -51.1652 C.3       15 UNK         0.1400 
     86 CB         -2.1607  -27.5103  -52.2069 C.3       15 UNK        -0.1800 
     87 C          -4.3433  -26.4022  -51.6143 C.2       15 UNK         0.5000 
     88 O          -4.2566  -25.2320  -51.2407 O.2       15 UNK        -0.5000 
     89 N          -5.2799  -26.8408  -52.4652 N.am      16 UNK        -0.5000 
     90 CA         -6.3211  -25.9948  -53.0589 C.3       16 UNK         0.1400 
     91 CB         -7.3033  -26.8726  -53.8485 C.3       16 UNK        -0.1800 
     92 C          -5.7551  -24.8752  -53.9542 C.2       16 UNK         0.5000 
     93 O          -6.2982  -23.7713  -53.9666 O.2       16 UNK        -0.5000 
     94 N          -4.6468  -25.1665  -54.6502 N.am      17 UNK        -0.5000 
     95 CA         -3.9022  -24.2033  -55.4626 C.3       17 UNK         0.1400 
     96 CB         -2.8625  -24.9521  -56.3097 C.3       17 UNK        -0.1800 
     97 C          -3.2245  -23.1106  -54.6151 C.2       17 UNK         0.5000 
     98 O          -3.1626  -21.9613  -55.0487 O.2       17 UNK        -0.5000 
     99 N          -2.7551  -23.4813  -53.4146 N.am      18 UNK        -0.5000 
    100 CA        -2.1907  -22.5565  -52.4331 C.3       18 UNK         0.1400 
    101 CB        -1.3816  -23.3346  -51.3840 C.3       18 UNK        -0.1800 
    102 C         -3.2903  -21.6953  -51.7866 C.2       18 UNK         0.5000 
    103 O         -3.1076  -20.4858  -51.6470 O.2       18 UNK        -0.5000 
    104 N         -4.4273  -22.3256  -51.4551 N.am      19 UNK        -0.5000 
    105 CA        -5.6134  -21.6886  -50.8788 C.3       19 UNK         0.1400 
    106 CB        -6.6510  -22.7603  -50.5108 C.3       19 UNK        -0.1800 
    107 C         -6.2411  -20.6330  -51.8054 C.2       19 UNK         0.5000 
    108 O         -6.6832  -19.5885  -51.3252 O.2       19 UNK        -0.5000 
    109 N         -6.2227  -20.8935  -53.1196 N.am      20 UNK        -0.5000 
    110 CA        -6.6582  -19.9918  -54.1890 C.3       20 UNK         0.1400 
    111 CB        -6.9375  -20.8296  -55.4496 C.3       20 UNK        -0.1800 
    112 C         -5.6521  -18.8462  -54.4509 C.2       20 UNK         0.5000 
    113 O         -5.2441  -18.6284  -55.5939 O.2       20 UNK        -0.5000 
    114 N         -5.2498  -18.1488  -53.3776 N.am      21 UNK        -0.5000 
    115 CA        -4.3191  -17.0131  -53.3270 C.3       21 UNK         0.1400 
    116 CB        -4.9902  -15.7564  -53.9176 C.3       21 UNK        -0.1800 
    117 C         -2.9397  -17.3001  -53.9620 C.2       21 UNK         0.5000 
    118 O         -2.2993  -16.3857  -54.4831 O.2       21 UNK        -0.5000 
    119 N         -2.5160  -18.5698  -53.9218 N.am      22 UNK        -0.5000 
    120 CA        -1.3215  -19.1001  -54.5955 C.3       22 UNK         0.1400 
    121 C         -1.3759  -19.0512  -56.1575 C.2       22 UNK         0.5000 
    122 N         -2.5418  -18.9061  -56.7782 N.am      22 UNK        -0.7600 
    123 O         -0.3530  -19.1639  -56.8276 O.2       22 UNK        -0.5000 
    124 C124       -0.0121  -18.5231  -53.9888 C.3       23 UNK        -0.0398 
    125 S125        1.3503  -19.7355  -53.9498 S.3       23 UNK        -0.2404 
    126 C126        2.6506  -18.7627  -53.1292 C.3       23 UNK        -0.0205 
    127 H127       -2.3819  -15.1328  -51.2570 H         1 UNK         0.0600 
    128 H128       -1.6419  -14.3189  -52.6364 H         1 UNK         0.0600 
    129 H129       -3.0284  -13.5886  -51.8208 H         1 UNK         0.0600 
    130 H130       -1.3398  -14.8265  -49.3130 H         1 UNK         0.3000 
    131 H131        0.8232  -12.9063  -49.0196 H         1 UNK         0.0600 
    132 H132       -0.3347  -15.0438  -47.1469 H         1 UNK         0.0800 
    133 H133        0.9323  -13.9539  -46.6608 H         1 UNK         0.0800 
    134 H134       -0.0281  -16.6641  -49.3850 H         1 UNK         0.0800 
    135 H135        0.3975  -17.4267  -47.8726 H         1 UNK         0.0800 
    136 H136        1.2227  -17.1374  -51.4507 H         1 UNK         0.1150 
    137 H137        3.8550  -20.5236  -51.4421 H         1 UNK         0.1150 
    138 H138        2.3866  -18.9368  -47.7457 H         1 UNK         0.1150 
    139 H139        4.8970  -21.1603  -49.3322 H         1 UNK         0.0800 
    140 H140        4.4022  -20.4543  -47.8195 H         1 UNK         0.0800 
    141 H141        1.7242  -20.9154  -47.0331 H         1 UNK         0.0800 
    142 H142        2.9246  -21.7549  -46.0902 H         1 UNK         0.0800 
    143 H143        1.5578  -23.9084  -46.4613 H         1 UNK         0.0600 
    144 H144        0.7632  -21.7127  -44.7101 H         1 UNK         0.3000 
    145 H145       -1.2165  -23.6826  -42.5609 H         1 UNK         0.0600 
    146 H146        0.3899  -22.9640  -40.8065 H         1 UNK         0.0600 
    147 H147        1.6230  -22.6526  -42.0272 H         1 UNK         0.0600 
    148 H148        1.0604  -24.2952  -41.7372 H         1 UNK         0.0600 
    149 H149       -0.1816  -21.0088  -42.3915 H         1 UNK         0.3000 
    150 H150       -2.5347  -19.4492  -44.5381 H         1 UNK         0.0600 
    151 H151       -3.9071  -19.8787  -42.4374 H         1 UNK         0.0600 
    152 H152       -3.3521  -18.2270  -42.6092 H         1 UNK         0.0600 
    153 H153       -2.5396  -19.3158  -41.4817 H         1 UNK         0.0600 
    154 H154       -0.7051  -18.3128  -42.7073 H         1 UNK         0.3000 
    155 H155        2.3132  -19.1222  -44.1175 H         1 UNK         0.0600 
    156 H156        1.9608  -17.6353  -46.0289 H         1 UNK         0.0600 
    157 H157        2.8368  -16.7723  -44.7841 H         1 UNK         0.0600 
    158 H158        1.1233  -16.4593  -45.0407 H         1 UNK         0.0600 
    159 H159        1.7552  -16.8209  -42.5877 H         1 UNK         0.3000 
    160 H160        1.6100  -18.4914  -39.4095 H         1 UNK         0.0600 
    161 H161        3.7642  -16.8240  -40.8185 H         1 UNK         0.0600 
    162 H162        4.0072  -18.4027  -40.0772 H         1 UNK         0.0600 
    163 H163        3.5856  -17.0214  -39.0762 H         1 UNK         0.0600 
    164 H164        1.3347  -15.9057  -40.9114 H         1 UNK         0.3000 
    165 H165       -1.6931  -15.2064  -39.2575 H         1 UNK         0.0600 
    166 H166       -0.7043  -12.9866  -38.7557 H         1 UNK         0.0600 
    167 H167       -0.0940  -14.1812  -37.6214 H         1 UNK         0.0600 
    168 H168        0.9238  -13.6349  -38.9497 H         1 UNK         0.0600 
    169 H169       -0.2175  -13.6821  -41.1400 H         1 UNK         0.3000 
    170 H170       -0.6408  -15.5784  -44.0249 H         1 UNK         0.0600 
    171 H171       -2.4606  -13.2064  -43.4032 H         1 UNK         0.0600 
    172 H172       -2.0340  -13.8006  -45.0089 H         1 UNK         0.0600 
    173 H173       -2.9982  -14.7962  -43.9319 H         1 UNK         0.0600 
    174 H174       -0.0159  -12.8550  -43.8848 H         1 UNK         0.3000 
    175 H175        3.1530  -12.8369  -42.4315 H         1 UNK         0.0600 
    176 H176        2.8692  -13.1597  -45.4691 H         1 UNK         0.0600 
    177 H177        4.2331  -12.4340  -44.6203 H         1 UNK         0.0600 
    178 H178        3.8958  -14.1471  -44.4379 H         1 UNK         0.0600 
    179 H179        2.0291  -11.1142  -44.4119 H         1 UNK         0.3000 
    180 H180       -0.3837   -9.4737  -42.5161 H         1 UNK         0.0600 
    181 H181        0.9439   -7.4008  -42.8082 H         1 UNK         0.0600 
    182 H182        2.4100   -8.3431  -43.0830 H         1 UNK         0.0600 
    183 H183        1.6232   -8.3671  -41.5093 H         1 UNK         0.0600 
    184 H184        0.7721   -8.6764  -44.9475 H         1 UNK         0.3000 
    185 H185       -1.6524   -9.8894  -46.8918 H         1 UNK         0.0600 
    186 H186        1.2204   -8.8132  -47.0302 H         1 UNK         0.0600 
    187 H187       -0.0283   -8.6004  -48.2495 H         1 UNK         0.0600 
    188 H188       -0.2248   -7.8620  -46.6742 H         1 UNK         0.0600 
    189 H189        0.8998  -11.1528  -47.6692 H         1 UNK         0.3000 
    190 H190       -0.8123  -21.2044  -46.4526 H         1 UNK         0.3000 
    191 H191       -2.0327  -21.7326  -48.9346 H         1 UNK         0.0600 
    192 H192       -2.3210  -19.6343  -47.5830 H         1 UNK         0.0600 
    193 H193       -3.3380  -20.5249  -46.4476 H         1 UNK         0.0600 
    194 H194       -3.8518  -20.3144  -48.1136 H         1 UNK         0.0600 
    195 H195       -2.7555  -23.1029  -45.7059 H         1 UNK         0.3000 
    196 H196       -5.0359  -24.6237  -46.4931 H         1 UNK         0.0600 
    197 H197       -4.5602  -23.9706  -44.1507 H         1 UNK         0.0600 
    198 H198       -3.0974  -24.9550  -44.1422 H         1 UNK         0.0600 
    199 H199       -4.6790  -25.7180  -44.2678 H         1 UNK         0.0600 
    200 H200       -1.7331  -25.2066  -47.3044 H         1 UNK         0.3000 
    201 H201       -1.6860  -28.0490  -46.9450 H         1 UNK         0.0600 
    202 H202        0.3453  -26.5576  -46.9317 H         1 UNK         0.0600 
    203 H203        0.1511  -26.3175  -48.6699 H         1 UNK         0.0600 
    204 H204        0.4945  -27.9177  -48.0351 H         1 UNK         0.0600 
    205 H205       -2.9023  -26.0635  -49.6072 H         1 UNK         0.3000 
    206 H206       -3.7808  -28.3940  -51.0699 H         1 UNK         0.0600 
    207 H207       -1.6314  -26.5615  -52.3045 H         1 UNK         0.0600 
    208 H208       -1.4295  -28.2722  -51.9367 H         1 UNK         0.0600 
    209 H209       -2.5486  -27.7745  -53.1914 H         1 UNK         0.0600 
    210 H210       -5.2821  -27.8138  -52.7364 H         1 UNK         0.3000 
    211 H211       -6.8697  -25.5204  -52.2432 H         1 UNK         0.0600 
    212 H212       -6.8075  -27.4002  -54.6643 H         1 UNK         0.0600 
    213 H213       -8.1013  -26.2698  -54.2842 H         1 UNK         0.0600 
    214 H214       -7.7742  -27.6154  -53.2043 H         1 UNK         0.0600 
    215 H215       -4.2726  -26.1016  -54.5907 H         1 UNK         0.3000 
    216 H216       -4.6054  -23.7114  -56.1382 H         1 UNK         0.0600 
    217 H217       -2.3026  -24.2601  -56.9404 H         1 UNK         0.0600 
    218 H218       -3.3394  -25.6776  -56.9689 H         1 UNK         0.0600 
    219 H219       -2.1425  -25.4850  -55.6872 H         1 UNK         0.0600 
    220 H220       -2.9001  -24.4316  -53.1085 H         1 UNK         0.3000 
    221 H221       -1.4953  -21.8931  -52.9480 H         1 UNK         0.0600 
    222 H222       -2.0158  -23.9469  -50.7431 H         1 UNK         0.0600 
    223 H223       -0.6489  -23.9904  -51.8540 H         1 UNK         0.0600 
    224 H224       -0.8295  -22.6506  -50.7392 H         1 UNK         0.0600 
    225 H225       -4.4510  -23.3395  -51.5221 H         1 UNK         0.3000 
    226 H226       -5.3009  -21.1866  -49.9615 H         1 UNK         0.0600 
    227 H227       -6.2264  -23.5190  -49.8535 H         1 UNK         0.0600 
    228 H228       -7.4995  -22.3161  -49.9893 H         1 UNK         0.0600 
    229 H229       -7.0392  -23.2647  -51.3949 H         1 UNK         0.0600 
    230 H230       -5.8806  -21.8009  -53.4165 H         1 UNK         0.3000 
    231 H231       -7.5977  -19.5260  -53.8855 H         1 UNK         0.0600 
    232 H232       -7.3157  -20.2075  -56.2617 H         1 UNK         0.0600 
    233 H233       -7.6870  -21.5969  -55.2546 H         1 UNK         0.0600 
    234 H234       -6.0349  -21.3280  -55.8061 H         1 UNK         0.0600 
    235 H235       -5.6394  -18.4368  -52.4844 H         1 UNK         0.3000 
    236 H236       -4.1295  -16.8227  -52.2700 H         1 UNK         0.0600 
    237 H237       -5.1699  -15.8626  -54.9880 H         1 UNK         0.0600 
    238 H238       -5.9469  -15.5566  -53.4351 H         1 UNK         0.0600 
    239 H239       -4.3675  -14.8725  -53.7757 H         1 UNK         0.0600 
    240 H240       -3.0819  -19.2518  -53.4315 H         1 UNK         0.3000 
    241 H241       -1.3441  -20.1628  -54.3671 H         1 UNK         0.0600 
    242 H242       -3.4099  -18.8279  -56.2564 H         1 UNK         0.3800 
    243 H243       -2.5652  -18.8844  -57.7847 H         1 UNK         0.3800 
    244 H244        0.3044  -17.6227  -54.5179 H         1 UNK         0.0800 
    245 H245       -0.1917  -18.2189  -52.9579 H         1 UNK         0.0800 
    246 H246        3.6218  -19.1467  -53.4450 H         1 UNK         0.0800 
    247 H247        2.6145  -17.7264  -53.4687 H         1 UNK         0.0800 
@<TRIPOS>BOND
     1    1    2 1    
     2    1  127 1    
     3    1  128 1    
     4    1  129 1    
     5    2    3 2    
     6    2    4 am   BACKBONE|DICT|INTERRES
     7    4    5 1    
     8    4  130 1    
     9    5    6 1    
    10    5   65 1    
    11    5  131 1    
    12    6    7 1    
    13    6  132 1    
    14    6  133 1    
    15    7    8 1    
    16    8    9 1    
    17    8  134 1    
    18    8  135 1    
    19    9   10 ar   
    20    9   14 ar   
    21   10   11 ar   
    22   10  136 1    
    23   11   12 ar   
    24   11  126 1    
    25   12   13 ar   
    26   12  137 1    
    27   13   14 ar   
    28   13   15 1    
    29   14  138 1    
    30   15   16 1    
    31   15  139 1    
    32   15  140 1    
    33   16   17 1    
    34   17   18 1    
    35   17  141 1    
    36   17  142 1    
    37   18   19 1    
    38   18   67 1    
    39   18  143 1    
    40   19   20 am   BACKBONE|DICT|INTERRES
    41   19  144 1    
    42   20   21 2    
    43   20   22 1    
    44   22   23 1    
    45   22   24 1    
    46   22  145 1    
    47   23  146 1    
    48   23  147 1    
    49   23  148 1    
    50   24   25 am   BACKBONE|DICT|INTERRES
    51   24  149 1    
    52   25   26 2    
    53   25   27 1    
    54   27   28 1    
    55   27   29 1    
    56   27  150 1    
    57   28  151 1    
    58   28  152 1    
    59   28  153 1    
    60   29   30 am   BACKBONE|DICT|INTERRES
    61   29  154 1    
    62   30   31 2    
    63   30   32 1    
    64   32   33 1    
    65   32   34 1    
    66   32  155 1    
    67   33  156 1    
    68   33  157 1    
    69   33  158 1    
    70   34   35 am   BACKBONE|DICT|INTERRES
    71   34  159 1    
    72   35   36 2    
    73   35   37 1    
    74   37   38 1    
    75   37   39 1    
    76   37  160 1    
    77   38  161 1    
    78   38  162 1    
    79   38  163 1    
    80   39   40 am   BACKBONE|DICT|INTERRES
    81   39  164 1    
    82   40   41 2    
    83   40   42 1    
    84   42   43 1    
    85   42   44 1    
    86   42  165 1    
    87   43  166 1    
    88   43  167 1    
    89   43  168 1    
    90   44   45 am   BACKBONE|DICT|INTERRES
    91   44  169 1    
    92   45   46 2    
    93   45   47 1    
    94   47   48 1    
    95   47   49 1    
    96   47  170 1    
    97   48  171 1    
    98   48  172 1    
    99   48  173 1    
   100   49   50 am   BACKBONE|DICT|INTERRES
   101   49  174 1    
   102   50   51 2    
   103   50   52 1    
   104   52   53 1    
   105   52   54 1    
   106   52  175 1    
   107   53  176 1    
   108   53  177 1    
   109   53  178 1    
   110   54   55 am   BACKBONE|DICT|INTERRES
   111   54  179 1    
   112   55   56 2    
   113   55   57 1    
   114   57   58 1    
   115   57   59 1    
   116   57  180 1    
   117   58  181 1    
   118   58  182 1    
   119   58  183 1    
   120   59   60 am   BACKBONE|DICT|INTERRES
   121   59  184 1    
   122   60   61 2    
   123   60   62 1    
   124   62   63 1    
   125   62   64 1    
   126   62  185 1    
   127   63  186 1    
   128   63  187 1    
   129   63  188 1    
   130   64   65 am   BACKBONE|DICT|INTERRES
   131   64  189 1    
   132   65   66 2    
   133   67   68 2    
   134   67   69 am   BACKBONE|DICT|INTERRES
   135   69   70 1    
   136   69  190 1    
   137   70   71 1    
   138   70   72 1    
   139   70  191 1    
   140   71  192 1    
   141   71  193 1    
   142   71  194 1    
   143   72   73 2    
   144   72   74 am   BACKBONE|DICT|INTERRES
   145   74   75 1    
   146   74  195 1    
   147   75   76 1    
   148   75   77 1    
   149   75  196 1    
   150   76  197 1    
   151   76  198 1    
   152   76  199 1    
   153   77   78 2    
   154   77   79 am   BACKBONE|DICT|INTERRES
   155   79   80 1    
   156   79  200 1    
   157   80   81 1    
   158   80   82 1    
   159   80  201 1    
   160   81  202 1    
   161   81  203 1    
   162   81  204 1    
   163   82   83 2    
   164   82   84 am   BACKBONE|DICT|INTERRES
   165   84   85 1    
   166   84  205 1    
   167   85   86 1    
   168   85   87 1    
   169   85  206 1    
   170   86  207 1    
   171   86  208 1    
   172   86  209 1    
   173   87   88 2    
   174   87   89 am   BACKBONE|DICT|INTERRES
   175   89   90 1    
   176   89  210 1    
   177   90   91 1    
   178   90   92 1    
   179   90  211 1    
   180   91  212 1    
   181   91  213 1    
   182   91  214 1    
   183   92   93 2    
   184   92   94 am   BACKBONE|DICT|INTERRES
   185   94   95 1    
   186   94  215 1    
   187   95   96 1    
   188   95   97 1    
   189   95  216 1    
   190   96  217 1    
   191   96  218 1    
   192   96  219 1    
   193   97   98 2    
   194   97   99 am   BACKBONE|DICT|INTERRES
   195   99  100 1    
   196   99  220 1    
   197  100  101 1    
   198  100  102 1    
   199  100  221 1    
   200  101  222 1    
   201  101  223 1    
   202  101  224 1    
   203  102  103 2    
   204  102  104 am   BACKBONE|DICT|INTERRES
   205  104  105 1    
   206  104  225 1    
   207  105  106 1    
   208  105  107 1    
   209  105  226 1    
   210  106  227 1    
   211  106  228 1    
   212  106  229 1    
   213  107  108 2    
   214  107  109 am   BACKBONE|DICT|INTERRES
   215  109  110 1    
   216  109  230 1    
   217  110  111 1    
   218  110  112 1    
   219  110  231 1    
   220  111  232 1    
   221  111  233 1    
   222  111  234 1    
   223  112  113 2    
   224  112  114 am   BACKBONE|DICT|INTERRES
   225  114  115 1    
   226  114  235 1    
   227  115  116 1    
   228  115  117 1    
   229  115  236 1    
   230  116  237 1    
   231  116  238 1    
   232  116  239 1    
   233  117  118 2    
   234  117  119 am   BACKBONE|DICT|INTERRES
   235  119  120 1    
   236  119  240 1    
   237  120  121 1    
   238  120  124 1    
   239  120  241 1    
   240  121  122 am   BACKBONE|DICT|INTERRES
   241  121  123 2    
   242  122  242 1    
   243  122  243 1    
   244  124  125 1    
   245  124  244 1    
   246  124  245 1    
   247  125  126 1    
   248  126  246 1    
   249  126  247 1    
@<TRIPOS>SUBSTRUCTURE
     1 UNK         1 GROUP             0       ****    0 ROOT    
