@<TRIPOS>MOLECULE
3R540
247   249    1
SMALL
USER_CHARGES


@<TRIPOS>ATOM
      1 CA          1.0607  -12.1496  -50.9702 C.3       0 UNK        -0.1800 
      2 C           0.9987  -12.4340  -49.4762 C.2       0 UNK         0.5000 
      3 O           0.7485  -11.5222  -48.6881 O.2       0 UNK        -0.5000 
      4 N           1.2272  -13.6943  -49.0870 N.am      1 UNK        -0.5000 
      5 CA          1.1688  -14.1769  -47.7009 C.3       1 UNK         0.1400 
      6 C6          1.8878  -15.5367  -47.5385 C.3       23 UNK        -0.0398 
      7 S7          1.2833  -16.8304  -48.6805 S.3       23 UNK        -0.2404 
      8 C8          2.8392  -17.3858  -49.4393 C.3       23 UNK        -0.0205 
      9 C9          2.6037  -18.4625  -50.4887 C.ar      23 UNK        -0.0193 
     10 C10         2.8157  -18.1955  -51.8448 C.ar      23 UNK        -0.1150 
     11 C11         2.6527  -19.1995  -52.8057 C.ar      23 UNK        -0.0193 
     12 C12         2.2619  -20.4795  -52.3922 C.ar      23 UNK        -0.1150 
     13 C13         2.0247  -20.7569  -51.0428 C.ar      23 UNK        -0.0193 
     14 C14         2.2055  -19.7424  -50.0974 C.ar      23 UNK        -0.1150 
     15 C15         1.5459  -22.1407  -50.6185 C.3       23 UNK        -0.0205 
     16 S16         2.5155  -22.8309  -49.2389 S.3       23 UNK        -0.2404 
     17 C17         1.4796  -24.2557  -48.7369 C.3       23 UNK        -0.0398 
     18 CA          0.7142  -24.0641  -47.3920 C.3       11 UNK         0.1400 
     19 N           1.5457  -23.5492  -46.2959 N.am      11 UNK        -0.5000 
     20 C           2.5705  -24.2384  -45.7694 C.2       10 UNK         0.5000 
     21 O           2.8311  -25.4020  -46.0798 O.2       10 UNK        -0.5000 
     22 CA          3.4875  -23.5330  -44.7490 C.3       10 UNK         0.1400 
     23 CB          4.7199  -22.9540  -45.4616 C.3       10 UNK        -0.1800 
     24 N           2.8402  -22.4614  -43.9999 N.am      10 UNK        -0.5000 
     25 C           1.9071  -22.6294  -43.0547 C.2       9 UNK         0.5000 
     26 O           1.5220  -23.7319  -42.6643 O.2       9 UNK        -0.5000 
     27 CA          1.2874  -21.3505  -42.4502 C.3       9 UNK         0.1400 
     28 CB          1.8947  -21.0565  -41.0703 C.3       9 UNK        -0.1800 
     29 N           1.4108  -20.1443  -43.2769 N.am      9 UNK        -0.5000 
     30 C           1.0029  -20.0055  -44.5452 C.2       8 UNK         0.5000 
     31 O           0.5006  -20.9182  -45.2002 O.2       8 UNK        -0.5000 
     32 CA          1.1875  -18.6294  -45.2002 C.3       8 UNK         0.1400 
     33 CB         -0.1499  -17.8739  -45.1926 C.3       8 UNK        -0.1800 
     34 N           2.2129  -17.8215  -44.5394 N.am      8 UNK        -0.5000 
     35 C           3.5199  -17.8654  -44.8356 C.2       7 UNK         0.5000 
     36 O           3.9980  -18.6105  -45.6907 O.2       7 UNK        -0.5000 
     37 CA          4.4516  -16.9068  -44.0665 C.3       7 UNK         0.1400 
     38 CB          4.7015  -15.6360  -44.8939 C.3       7 UNK        -0.1800 
     39 N           3.9261  -16.5193  -42.7564 N.am      7 UNK        -0.5000 
     40 C           3.9408  -17.3015  -41.6681 C.2       6 UNK         0.5000 
     41 O           4.4630  -18.4155  -41.6343 O.2       6 UNK        -0.5000 
     42 CA          3.2059  -16.7648  -40.4203 C.3       6 UNK         0.1400 
     43 CB          4.1705  -15.9692  -39.5282 C.3       6 UNK        -0.1800 
     44 N           2.0322  -15.9339  -40.7256 N.am      6 UNK        -0.5000 
     45 C           0.9801  -16.3446  -41.4460 C.2       5 UNK         0.5000 
     46 O           0.9156  -17.4675  -41.9524 O.2       5 UNK        -0.5000 
     47 CA         -0.1428  -15.3152  -41.7000 C.3       5 UNK         0.1400 
     48 CB          0.3570  -14.2062  -42.6393 C.3       5 UNK        -0.1800 
     49 N          -1.3132  -15.9457  -42.3139 N.am      5 UNK        -0.5000 
     50 C          -2.1164  -16.8181  -41.6918 C.2       4 UNK         0.5000 
     51 O          -2.1087  -16.9988  -40.4723 O.2       4 UNK        -0.5000 
     52 CA         -3.0370  -17.6628  -42.5982 C.3       4 UNK         0.1400 
     53 CB         -4.1610  -18.3792  -41.8206 C.3       4 UNK        -0.1800 
     54 N          -3.5877  -16.9501  -43.7566 N.am      4 UNK        -0.5000 
     55 C          -4.4065  -15.8915  -43.7288 C.2       3 UNK         0.5000 
     56 O          -4.6525  -15.2310  -42.7180 O.2       3 UNK        -0.5000 
     57 CA         -5.1009  -15.5537  -45.0600 C.3       3 UNK         0.1400 
     58 CB         -6.4265  -14.8000  -44.8515 C.3       3 UNK        -0.1800 
     59 N          -4.2624  -14.7732  -45.9640 N.am      3 UNK        -0.5000 
     60 C          -3.2592  -15.2409  -46.7172 C.2       2 UNK         0.5000 
     61 O          -2.8441  -16.3999  -46.6509 O.2       2 UNK        -0.5000 
     62 CA         -2.6985  -14.2733  -47.7862 C.3       2 UNK         0.1400 
     63 CB         -3.0640  -12.7897  -47.5466 C.3       2 UNK        -0.1800 
     64 N          -1.2592  -14.3971  -48.0195 N.am      2 UNK        -0.5000 
     65 C          -0.2712  -14.2037  -47.1341 C.2       1 UNK         0.5000 
     66 O          -0.4513  -14.0026  -45.9328 O.2       1 UNK        -0.5000 
     67 C          -0.5660  -23.2334  -47.5809 C.2       11 UNK         0.5000 
     68 O          -1.6644  -23.7893  -47.5459 O.2       11 UNK        -0.5000 
     69 N          -0.4118  -21.9192  -47.7840 N.am      12 UNK        -0.5000 
     70 CA         -1.4784  -20.9680  -48.1145 C.3       12 UNK         0.1400 
     71 CB         -0.8644  -19.5914  -48.3724 C.3       12 UNK        -0.1800 
     72 C          -2.6178  -20.8713  -47.0888 C.2       12 UNK         0.5000 
     73 O          -3.7523  -20.5993  -47.4816 O.2       12 UNK        -0.5000 
     74 N          -2.3075  -21.1348  -45.8136 N.am      13 UNK        -0.5000 
     75 CA         -3.2720  -21.2338  -44.7178 C.3       13 UNK         0.1400 
     76 CB         -2.5108  -21.4537  -43.4027 C.3       13 UNK        -0.1800 
     77 C          -4.3179  -22.3482  -44.9259 C.2       13 UNK         0.5000 
     78 O          -5.4595  -22.1911  -44.4924 O.2       13 UNK        -0.5000 
     79 N          -3.9162  -23.4351  -45.5995 N.am      14 UNK        -0.5000 
     80 CA         -4.7993  -24.5161  -46.0289 C.3       14 UNK         0.1400 
     81 CB         -4.0489  -25.8544  -45.9416 C.3       14 UNK        -0.1800 
     82 C          -5.3067  -24.2684  -47.4591 C.2       14 UNK         0.5000 
     83 O          -6.4980  -24.4399  -47.7198 O.2       14 UNK        -0.5000 
     84 N          -4.4055  -23.8502  -48.3596 N.am      15 UNK        -0.5000 
     85 CA         -4.6523  -23.6280  -49.7868 C.3       15 UNK         0.1400 
     86 CB         -3.3249  -23.7707  -50.5530 C.3       15 UNK        -0.1800 
     87 C          -5.3900  -22.3056  -50.0987 C.2       15 UNK         0.5000 
     88 O          -4.9682  -21.5553  -50.9824 O.2       15 UNK        -0.5000 
     89 N          -6.5064  -22.0756  -49.3949 N.am      16 UNK        -0.5000 
     90 CA         -7.5208  -21.0422  -49.6259 C.3       16 UNK         0.1400 
     91 CB         -8.3100  -21.3690  -50.9117 C.3       16 UNK        -0.1800 
     92 C          -6.9717  -19.6009  -49.6221 C.2       16 UNK         0.5000 
     93 O          -7.2872  -18.8232  -50.5223 O.2       16 UNK        -0.5000 
     94 N          -6.1424  -19.2696  -48.6218 N.am      17 UNK        -0.5000 
     95 CA         -5.4643  -17.9754  -48.4545 C.3       17 UNK         0.1400 
     96 CB         -6.4826  -16.8423  -48.1977 C.3       17 UNK        -0.1800 
     97 C          -4.5018  -17.6745  -49.6232 C.2       17 UNK         0.5000 
     98 O          -4.4581  -16.5511  -50.1256 O.2       17 UNK        -0.5000 
     99 N          -3.7849  -18.7242  -50.0466 N.am      18 UNK        -0.5000 
    100 CA        -2.8580  -18.8209  -51.1793 C.3       18 UNK         0.1400 
    101 CB        -1.8169  -17.6795  -51.1894 C.3       18 UNK        -0.1800 
    102 C         -3.5427  -18.9430  -52.5515 C.2       18 UNK         0.5000 
    103 O         -2.8446  -19.2378  -53.5211 O.2       18 UNK        -0.5000 
    104 N         -4.8667  -18.7469  -52.6397 N.am      19 UNK        -0.5000 
    105 CA        -5.6093  -18.7154  -53.9020 C.3       19 UNK         0.1400 
    106 CB        -7.0462  -18.2353  -53.6555 C.3       19 UNK        -0.1800 
    107 C         -5.6156  -20.0541  -54.6602 C.2       19 UNK         0.5000 
    108 O         -5.6107  -20.0403  -55.8914 O.2       19 UNK        -0.5000 
    109 N         -5.5968  -21.1803  -53.9337 N.am      20 UNK        -0.5000 
    110 CA        -5.5436  -22.5148  -54.5359 C.3       20 UNK         0.1400 
    111 CB        -6.1860  -23.5367  -53.5858 C.3       20 UNK        -0.1800 
    112 C         -4.1097  -22.9366  -54.9104 C.2       20 UNK         0.5000 
    113 O         -3.9475  -23.8250  -55.7479 O.2       20 UNK        -0.5000 
    114 N         -3.1020  -22.3089  -54.2889 N.am      21 UNK        -0.5000 
    115 CA        -1.6873  -22.5909  -54.5216 C.3       21 UNK         0.1400 
    116 CB        -0.9033  -22.3906  -53.2148 C.3       21 UNK        -0.1800 
    117 C         -1.1042  -21.7134  -55.6407 C.2       21 UNK         0.5000 
    118 O         -0.4773  -22.2407  -56.5606 O.2       21 UNK        -0.5000 
    119 N         -1.3094  -20.3968  -55.5280 N.am      22 UNK        -0.5000 
    120 CA        -0.6916  -19.3523  -56.3601 C.3       22 UNK         0.1400 
    121 C         -1.7173  -18.3135  -56.9012 C.2       22 UNK         0.5000 
    122 N         -3.0206  -18.5352  -56.7901 N.am      22 UNK        -0.7600 
    123 O         -1.3293  -17.2941  -57.4656 O.2       22 UNK        -0.5000 
    124 C124        0.4974  -18.6760  -55.6184 C.3       23 UNK        -0.0398 
    125 S125        1.9448  -19.7779  -55.4850 S.3       23 UNK        -0.2404 
    126 C126        2.9811  -18.8970  -54.2674 C.3       23 UNK        -0.0205 
    127 H127        1.2939  -13.0465  -51.5447 H         1 UNK         0.0600 
    128 H128        1.8274  -11.4035  -51.1787 H         1 UNK         0.0600 
    129 H129        0.1030  -11.7626  -51.3181 H         1 UNK         0.0600 
    130 H130        1.4268  -14.4020  -49.7799 H         1 UNK         0.3000 
    131 H131        1.7170  -13.4568  -47.0891 H         1 UNK         0.0600 
    132 H132        2.9566  -15.3909  -47.6996 H         1 UNK         0.0800 
    133 H133        1.8021  -15.8948  -46.5138 H         1 UNK         0.0800 
    134 H134        3.4965  -17.7794  -48.6619 H         1 UNK         0.0800 
    135 H135        3.3533  -16.5297  -49.8787 H         1 UNK         0.0800 
    136 H136        3.1358  -17.2093  -52.1505 H         1 UNK         0.1150 
    137 H137        2.1475  -21.2663  -53.1231 H         1 UNK         0.1150 
    138 H138        2.0378  -19.9460  -49.0496 H         1 UNK         0.1150 
    139 H139        0.4935  -22.0713  -50.3451 H         1 UNK         0.0800 
    140 H140        1.6032  -22.8403  -51.4532 H         1 UNK         0.0800 
    141 H141        2.1463  -25.1140  -48.6494 H         1 UNK         0.0800 
    142 H142        0.7927  -24.5197  -49.5433 H         1 UNK         0.0800 
    143 H143        0.3673  -25.0520  -47.0801 H         1 UNK         0.0600 
    144 H144        1.3284  -22.6204  -45.9490 H         1 UNK         0.3000 
    145 H145        3.8284  -24.2871  -44.0365 H         1 UNK         0.0600 
    146 H146        5.4223  -22.5214  -44.7489 H         1 UNK         0.0600 
    147 H147        5.2537  -23.7293  -46.0129 H         1 UNK         0.0600 
    148 H148        4.4426  -22.1766  -46.1752 H         1 UNK         0.0600 
    149 H149        3.0871  -21.5167  -44.2556 H         1 UNK         0.3000 
    150 H150        0.2235  -21.5469  -42.3154 H         1 UNK         0.0600 
    151 H151        1.7867  -21.9121  -40.4024 H         1 UNK         0.0600 
    152 H152        1.4009  -20.2086  -40.5946 H         1 UNK         0.0600 
    153 H153        2.9585  -20.8267  -41.1426 H         1 UNK         0.0600 
    154 H154        1.7455  -19.3145  -42.8037 H         1 UNK         0.3000 
    155 H155        1.4887  -18.7946  -46.2351 H         1 UNK         0.0600 
    156 H156       -0.9429  -18.4574  -45.6603 H         1 UNK         0.0600 
    157 H157       -0.0895  -16.9307  -45.7317 H         1 UNK         0.0600 
    158 H158       -0.4714  -17.6583  -44.1787 H         1 UNK         0.0600 
    159 H159        1.9031  -17.2605  -43.7563 H         1 UNK         0.3000 
    160 H160        5.4073  -17.4165  -43.9261 H         1 UNK         0.0600 
    161 H161        5.4311  -14.9878  -44.4081 H         1 UNK         0.0600 
    162 H162        5.0945  -15.8818  -45.8814 H         1 UNK         0.0600 
    163 H163        3.7861  -15.0609  -45.0378 H         1 UNK         0.0600 
    164 H164        3.4889  -15.6122  -42.6891 H         1 UNK         0.3000 
    165 H165        2.8551  -17.6311  -39.8554 H         1 UNK         0.0600 
    166 H166        3.6909  -15.6705  -38.5960 H         1 UNK         0.0600 
    167 H167        5.0435  -16.5682  -39.2649 H         1 UNK         0.0600 
    168 H168        4.5291  -15.0678  -40.0266 H         1 UNK         0.0600 
    169 H169        2.0340  -14.9974  -40.3474 H         1 UNK         0.3000 
    170 H170       -0.4380  -14.8745  -40.7458 H         1 UNK         0.0600 
    171 H171        1.1648  -13.6331  -42.1831 H         1 UNK         0.0600 
    172 H172        0.7345  -14.6152  -43.5775 H         1 UNK         0.0600 
    173 H173       -0.4399  -13.5021  -42.8802 H         1 UNK         0.0600 
    174 H174       -1.3998  -15.8495  -43.3149 H         1 UNK         0.3000 
    175 H175       -2.3944  -18.4385  -43.0119 H         1 UNK         0.0600 
    176 H176       -4.7623  -19.0041  -42.4810 H         1 UNK         0.0600 
    177 H177       -3.7503  -19.0311  -41.0486 H         1 UNK         0.0600 
    178 H178       -4.8280  -17.6699  -41.3296 H         1 UNK         0.0600 
    179 H179       -3.3721  -17.3416  -44.6657 H         1 UNK         0.3000 
    180 H180       -5.3432  -16.5013  -45.5447 H         1 UNK         0.0600 
    181 H181       -6.2675  -13.8138  -44.4134 H         1 UNK         0.0600 
    182 H182       -7.0896  -15.3529  -44.1849 H         1 UNK         0.0600 
    183 H183       -6.9566  -14.6655  -45.7946 H         1 UNK         0.0600 
    184 H184       -4.5109  -13.7997  -46.0609 H         1 UNK         0.3000 
    185 H185       -3.1702  -14.5728  -48.7225 H         1 UNK         0.0600 
    186 H186       -4.1422  -12.6300  -47.5838 H         1 UNK         0.0600 
    187 H187       -2.7027  -12.4333  -46.5810 H         1 UNK         0.0600 
    188 H188       -2.6269  -12.1522  -48.3155 H         1 UNK         0.0600 
    189 H189       -0.9905  -14.6027  -48.9704 H         1 UNK         0.3000 
    190 H190        0.5249  -21.5442  -47.7606 H         1 UNK         0.3000 
    191 H191       -1.9383  -21.2967  -49.0452 H         1 UNK         0.0600 
    192 H192       -0.0676  -19.3719  -47.6701 H         1 UNK         0.0600 
    193 H193       -1.5990  -18.7899  -48.2845 H         1 UNK         0.0600 
    194 H194       -0.4415  -19.5401  -49.3740 H         1 UNK         0.0600 
    195 H195       -1.3302  -21.2977  -45.5874 H         1 UNK         0.3000 
    196 H196       -3.8051  -20.2829  -44.6567 H         1 UNK         0.0600 
    197 H197       -3.1948  -21.4799  -42.5535 H         1 UNK         0.0600 
    198 H198       -1.7967  -20.6522  -43.2211 H         1 UNK         0.0600 
    199 H199       -1.9591  -22.3947  -43.4121 H         1 UNK         0.0600 
    200 H200       -2.9704  -23.4597  -45.9617 H         1 UNK         0.3000 
    201 H201       -5.6666  -24.5760  -45.3679 H         1 UNK         0.0600 
    202 H202       -3.7226  -26.0551  -44.9210 H         1 UNK         0.0600 
    203 H203       -3.1671  -25.8706  -46.5830 H         1 UNK         0.0600 
    204 H204       -4.6913  -26.6816  -46.2461 H         1 UNK         0.0600 
    205 H205       -3.4408  -23.7462  -48.0565 H         1 UNK         0.3000 
    206 H206       -5.3065  -24.4280  -50.1393 H         1 UNK         0.0600 
    207 H207       -2.8521  -24.7310  -50.3467 H         1 UNK         0.0600 
    208 H208       -3.4834  -23.7165  -51.6299 H         1 UNK         0.0600 
    209 H209       -2.6160  -22.9891  -50.2895 H         1 UNK         0.0600 
    210 H210       -6.7389  -22.7685  -48.6895 H         1 UNK         0.3000 
    211 H211       -8.2166  -21.1031  -48.7881 H         1 UNK         0.0600 
    212 H212       -7.6850  -21.2840  -51.8008 H         1 UNK         0.0600 
    213 H213       -9.1526  -20.6884  -51.0388 H         1 UNK         0.0600 
    214 H214       -8.7138  -22.3810  -50.8817 H         1 UNK         0.0600 
    215 H215       -5.8521  -19.9949  -47.9768 H         1 UNK         0.3000 
    216 H216       -4.8415  -18.0666  -47.5639 H         1 UNK         0.0600 
    217 H217       -5.9767  -15.9010  -47.9855 H         1 UNK         0.0600 
    218 H218       -7.1192  -17.0704  -47.3432 H         1 UNK         0.0600 
    219 H219       -7.1278  -16.6670  -49.0585 H         1 UNK         0.0600 
    220 H220       -3.9646  -19.6008  -49.5723 H         1 UNK         0.3000 
    221 H221       -2.3196  -19.7574  -51.0306 H         1 UNK         0.0600 
    222 H222       -2.2428  -16.7481  -51.5635 H         1 UNK         0.0600 
    223 H223       -1.4146  -17.4783  -50.1983 H         1 UNK         0.0600 
    224 H224       -0.9753  -17.9311  -51.8363 H         1 UNK         0.0600 
    225 H225       -5.3945  -18.5605  -51.7965 H         1 UNK         0.3000 
    226 H226       -5.1186  -17.9799  -54.5430 H         1 UNK         0.0600 
    227 H227       -7.5634  -18.0603  -54.5996 H         1 UNK         0.0600 
    228 H228       -7.6270  -18.9726  -53.1010 H         1 UNK         0.0600 
    229 H229       -7.0640  -17.3000  -53.0955 H         1 UNK         0.0600 
    230 H230       -5.5479  -21.1236  -52.9210 H         1 UNK         0.3000 
    231 H231       -6.1328  -22.5137  -55.4556 H         1 UNK         0.0600 
    232 H232       -7.2020  -23.2464  -53.3186 H         1 UNK         0.0600 
    233 H233       -5.6146  -23.6510  -52.6676 H         1 UNK         0.0600 
    234 H234       -6.2428  -24.5194  -54.0554 H         1 UNK         0.0600 
    235 H235       -3.3216  -21.5556  -53.6528 H         1 UNK         0.3000 
    236 H236       -1.5656  -23.6350  -54.8183 H         1 UNK         0.0600 
    237 H237        0.1586  -22.5724  -53.3787 H         1 UNK         0.0600 
    238 H238       -1.0074  -21.3782  -52.8225 H         1 UNK         0.0600 
    239 H239       -1.2323  -23.0869  -52.4450 H         1 UNK         0.0600 
    240 H240       -1.8645  -20.0430  -54.7498 H         1 UNK         0.3000 
    241 H241       -0.2963  -19.8121  -57.2674 H         1 UNK         0.0600 
    242 H242       -3.3750  -19.3768  -56.3624 H         1 UNK         0.3800 
    243 H243       -3.6665  -17.8596  -57.1656 H         1 UNK         0.3800 
    244 H244        0.8334  -17.7791  -56.1412 H         1 UNK         0.0800 
    245 H245        0.1904  -18.3546  -54.6214 H         1 UNK         0.0800 
    246 H246        4.0202  -19.1796  -54.4395 H         1 UNK         0.0800 
    247 H247        2.9206  -17.8250  -54.4616 H         1 UNK         0.0800 
@<TRIPOS>BOND
     1    1    2 1    
     2    1  127 1    
     3    1  128 1    
     4    1  129 1    
     5    2    3 2    
     6    2    4 am   BACKBONE|DICT|INTERRES
     7    4    5 1    
     8    4  130 1    
     9    5    6 1    
    10    5   65 1    
    11    5  131 1    
    12    6    7 1    
    13    6  132 1    
    14    6  133 1    
    15    7    8 1    
    16    8    9 1    
    17    8  134 1    
    18    8  135 1    
    19    9   10 ar   
    20    9   14 ar   
    21   10   11 ar   
    22   10  136 1    
    23   11   12 ar   
    24   11  126 1    
    25   12   13 ar   
    26   12  137 1    
    27   13   14 ar   
    28   13   15 1    
    29   14  138 1    
    30   15   16 1    
    31   15  139 1    
    32   15  140 1    
    33   16   17 1    
    34   17   18 1    
    35   17  141 1    
    36   17  142 1    
    37   18   19 1    
    38   18   67 1    
    39   18  143 1    
    40   19   20 am   BACKBONE|DICT|INTERRES
    41   19  144 1    
    42   20   21 2    
    43   20   22 1    
    44   22   23 1    
    45   22   24 1    
    46   22  145 1    
    47   23  146 1    
    48   23  147 1    
    49   23  148 1    
    50   24   25 am   BACKBONE|DICT|INTERRES
    51   24  149 1    
    52   25   26 2    
    53   25   27 1    
    54   27   28 1    
    55   27   29 1    
    56   27  150 1    
    57   28  151 1    
    58   28  152 1    
    59   28  153 1    
    60   29   30 am   BACKBONE|DICT|INTERRES
    61   29  154 1    
    62   30   31 2    
    63   30   32 1    
    64   32   33 1    
    65   32   34 1    
    66   32  155 1    
    67   33  156 1    
    68   33  157 1    
    69   33  158 1    
    70   34   35 am   BACKBONE|DICT|INTERRES
    71   34  159 1    
    72   35   36 2    
    73   35   37 1    
    74   37   38 1    
    75   37   39 1    
    76   37  160 1    
    77   38  161 1    
    78   38  162 1    
    79   38  163 1    
    80   39   40 am   BACKBONE|DICT|INTERRES
    81   39  164 1    
    82   40   41 2    
    83   40   42 1    
    84   42   43 1    
    85   42   44 1    
    86   42  165 1    
    87   43  166 1    
    88   43  167 1    
    89   43  168 1    
    90   44   45 am   BACKBONE|DICT|INTERRES
    91   44  169 1    
    92   45   46 2    
    93   45   47 1    
    94   47   48 1    
    95   47   49 1    
    96   47  170 1    
    97   48  171 1    
    98   48  172 1    
    99   48  173 1    
   100   49   50 am   BACKBONE|DICT|INTERRES
   101   49  174 1    
   102   50   51 2    
   103   50   52 1    
   104   52   53 1    
   105   52   54 1    
   106   52  175 1    
   107   53  176 1    
   108   53  177 1    
   109   53  178 1    
   110   54   55 am   BACKBONE|DICT|INTERRES
   111   54  179 1    
   112   55   56 2    
   113   55   57 1    
   114   57   58 1    
   115   57   59 1    
   116   57  180 1    
   117   58  181 1    
   118   58  182 1    
   119   58  183 1    
   120   59   60 am   BACKBONE|DICT|INTERRES
   121   59  184 1    
   122   60   61 2    
   123   60   62 1    
   124   62   63 1    
   125   62   64 1    
   126   62  185 1    
   127   63  186 1    
   128   63  187 1    
   129   63  188 1    
   130   64   65 am   BACKBONE|DICT|INTERRES
   131   64  189 1    
   132   65   66 2    
   133   67   68 2    
   134   67   69 am   BACKBONE|DICT|INTERRES
   135   69   70 1    
   136   69  190 1    
   137   70   71 1    
   138   70   72 1    
   139   70  191 1    
   140   71  192 1    
   141   71  193 1    
   142   71  194 1    
   143   72   73 2    
   144   72   74 am   BACKBONE|DICT|INTERRES
   145   74   75 1    
   146   74  195 1    
   147   75   76 1    
   148   75   77 1    
   149   75  196 1    
   150   76  197 1    
   151   76  198 1    
   152   76  199 1    
   153   77   78 2    
   154   77   79 am   BACKBONE|DICT|INTERRES
   155   79   80 1    
   156   79  200 1    
   157   80   81 1    
   158   80   82 1    
   159   80  201 1    
   160   81  202 1    
   161   81  203 1    
   162   81  204 1    
   163   82   83 2    
   164   82   84 am   BACKBONE|DICT|INTERRES
   165   84   85 1    
   166   84  205 1    
   167   85   86 1    
   168   85   87 1    
   169   85  206 1    
   170   86  207 1    
   171   86  208 1    
   172   86  209 1    
   173   87   88 2    
   174   87   89 am   BACKBONE|DICT|INTERRES
   175   89   90 1    
   176   89  210 1    
   177   90   91 1    
   178   90   92 1    
   179   90  211 1    
   180   91  212 1    
   181   91  213 1    
   182   91  214 1    
   183   92   93 2    
   184   92   94 am   BACKBONE|DICT|INTERRES
   185   94   95 1    
   186   94  215 1    
   187   95   96 1    
   188   95   97 1    
   189   95  216 1    
   190   96  217 1    
   191   96  218 1    
   192   96  219 1    
   193   97   98 2    
   194   97   99 am   BACKBONE|DICT|INTERRES
   195   99  100 1    
   196   99  220 1    
   197  100  101 1    
   198  100  102 1    
   199  100  221 1    
   200  101  222 1    
   201  101  223 1    
   202  101  224 1    
   203  102  103 2    
   204  102  104 am   BACKBONE|DICT|INTERRES
   205  104  105 1    
   206  104  225 1    
   207  105  106 1    
   208  105  107 1    
   209  105  226 1    
   210  106  227 1    
   211  106  228 1    
   212  106  229 1    
   213  107  108 2    
   214  107  109 am   BACKBONE|DICT|INTERRES
   215  109  110 1    
   216  109  230 1    
   217  110  111 1    
   218  110  112 1    
   219  110  231 1    
   220  111  232 1    
   221  111  233 1    
   222  111  234 1    
   223  112  113 2    
   224  112  114 am   BACKBONE|DICT|INTERRES
   225  114  115 1    
   226  114  235 1    
   227  115  116 1    
   228  115  117 1    
   229  115  236 1    
   230  116  237 1    
   231  116  238 1    
   232  116  239 1    
   233  117  118 2    
   234  117  119 am   BACKBONE|DICT|INTERRES
   235  119  120 1    
   236  119  240 1    
   237  120  121 1    
   238  120  124 1    
   239  120  241 1    
   240  121  122 am   BACKBONE|DICT|INTERRES
   241  121  123 2    
   242  122  242 1    
   243  122  243 1    
   244  124  125 1    
   245  124  244 1    
   246  124  245 1    
   247  125  126 1    
   248  126  246 1    
   249  126  247 1    
@<TRIPOS>SUBSTRUCTURE
     1 UNK         1 GROUP             0       ****    0 ROOT    
