@<TRIPOS>MOLECULE
3R540
247   249    1
SMALL
USER_CHARGES


@<TRIPOS>ATOM
      1 CA          0.9305   -9.2476  -50.0886 C.3       0 UNK        -0.1800 
      2 C           1.7680  -10.5014  -49.8823 C.2       0 UNK         0.5000 
      3 O           2.9974  -10.4253  -49.8728 O.2       0 UNK        -0.5000 
      4 N           1.1124  -11.6545  -49.7051 N.am      1 UNK        -0.5000 
      5 CA          1.7234  -12.9758  -49.5035 C.3       1 UNK         0.1400 
      6 C6          0.7696  -14.1158  -49.9431 C.3       23 UNK        -0.0398 
      7 S7          0.3472  -14.0163  -51.7176 S.3       23 UNK        -0.2404 
      8 C8          1.2773  -15.4241  -52.4030 C.3       23 UNK        -0.0205 
      9 C9          0.6411  -16.7537  -52.0272 C.ar      23 UNK        -0.0193 
     10 C10        -0.5441  -17.1590  -52.6460 C.ar      23 UNK        -0.1150 
     11 C11        -1.1497  -18.3675  -52.2937 C.ar      23 UNK        -0.0193 
     12 C12        -0.5559  -19.1823  -51.3267 C.ar      23 UNK        -0.1150 
     13 C13         0.6325  -18.7904  -50.7057 C.ar      23 UNK        -0.0193 
     14 C14         1.2296  -17.5778  -51.0634 C.ar      23 UNK        -0.1150 
     15 C15         1.2783  -19.6756  -49.6529 C.3       23 UNK        -0.0205 
     16 S16         0.9727  -19.0564  -47.9695 S.3       23 UNK        -0.2404 
     17 C17        -0.7457  -19.5936  -47.6640 C.3       23 UNK        -0.0398 
     18 CA         -0.8122  -21.0185  -47.0670 C.3       11 UNK         0.1400 
     19 N          -0.1120  -21.1312  -45.7809 N.am      11 UNK        -0.5000 
     20 C           0.2085  -22.2961  -45.2014 C.2       10 UNK         0.5000 
     21 O          -0.0326  -23.3919  -45.7056 O.2       10 UNK        -0.5000 
     22 CA          0.8562  -22.2361  -43.8060 C.3       10 UNK         0.1400 
     23 CB          2.3622  -21.9520  -43.9057 C.3       10 UNK        -0.1800 
     24 N           0.2128  -21.2566  -42.9286 N.am      10 UNK        -0.5000 
     25 C          -1.0546  -21.3520  -42.5016 C.2       9 UNK         0.5000 
     26 O          -1.7902  -22.2999  -42.7701 O.2       9 UNK        -0.5000 
     27 CA         -1.6171  -20.1838  -41.6731 C.3       9 UNK         0.1400 
     28 CB         -1.2379  -20.3368  -40.1931 C.3       9 UNK        -0.1800 
     29 N          -1.1875  -18.8750  -42.1637 N.am      9 UNK        -0.5000 
     30 C          -1.4805  -18.3758  -43.3734 C.2       8 UNK         0.5000 
     31 O          -2.1871  -18.9534  -44.2003 O.2       8 UNK        -0.5000 
     32 CA         -0.8171  -17.0354  -43.7453 C.3       8 UNK         0.1400 
     33 CB         -1.5535  -15.8528  -43.0990 C.3       8 UNK        -0.1800 
     34 N           0.6003  -16.9921  -43.3805 N.am      8 UNK        -0.5000 
     35 C           1.5258  -17.8358  -43.8605 C.2       7 UNK         0.5000 
     36 O           1.2866  -18.7150  -44.6865 O.2       7 UNK        -0.5000 
     37 CA          2.9375  -17.7261  -43.2633 C.3       7 UNK         0.1400 
     38 CB          3.7128  -16.5531  -43.8797 C.3       7 UNK        -0.1800 
     39 N           2.8926  -17.5881  -41.8078 N.am      7 UNK        -0.5000 
     40 C           2.5274  -18.5721  -40.9730 C.2       6 UNK         0.5000 
     41 O           2.2398  -19.7099  -41.3430 O.2       6 UNK        -0.5000 
     42 CA          2.4295  -18.2145  -39.4787 C.3       6 UNK         0.1400 
     43 CB          3.8030  -18.3371  -38.8024 C.3       6 UNK        -0.1800 
     44 N           1.8968  -16.8703  -39.2529 N.am      6 UNK        -0.5000 
     45 C           0.6498  -16.4836  -39.5589 C.2       5 UNK         0.5000 
     46 O          -0.2015  -17.2343  -40.0315 O.2       5 UNK        -0.5000 
     47 CA          0.3138  -14.9964  -39.3467 C.3       5 UNK         0.1400 
     48 CB         -0.2142  -14.7592  -37.9243 C.3       5 UNK        -0.1800 
     49 N           1.4580  -14.1162  -39.5953 N.am      5 UNK        -0.5000 
     50 C           2.0444  -13.9572  -40.7886 C.2       4 UNK         0.5000 
     51 O           1.6780  -14.5338  -41.8159 O.2       4 UNK        -0.5000 
     52 CA          3.2919  -13.0588  -40.8179 C.3       4 UNK         0.1400 
     53 CB          4.5642  -13.9130  -40.9351 C.3       4 UNK        -0.1800 
     54 N           3.2546  -12.1035  -41.9218 N.am      4 UNK        -0.5000 
     55 C           2.4345  -11.0458  -41.9929 C.2       3 UNK         0.5000 
     56 O           1.6060  -10.7675  -41.1247 O.2       3 UNK        -0.5000 
     57 CA          2.5832  -10.1193  -43.2158 C.3       3 UNK         0.1400 
     58 CB          3.3045   -8.8219  -42.8163 C.3       3 UNK        -0.1800 
     59 N           3.3227  -10.7454  -44.3155 N.am      3 UNK        -0.5000 
     60 C           2.7598  -11.4818  -45.2807 C.2       2 UNK         0.5000 
     61 O           1.5463  -11.6835  -45.3583 O.2       2 UNK        -0.5000 
     62 CA          3.7373  -12.0763  -46.3150 C.3       2 UNK         0.1400 
     63 CB          4.3864  -13.3733  -45.7928 C.3       2 UNK        -0.1800 
     64 N           3.1397  -12.2634  -47.6416 N.am      2 UNK        -0.5000 
     65 C           2.2129  -13.1446  -48.0456 C.2       1 UNK         0.5000 
     66 O           1.7463  -14.0388  -47.3379 O.2       1 UNK        -0.5000 
     67 C          -2.2698  -21.5243  -46.9825 C.2       11 UNK         0.5000 
     68 O          -2.7574  -22.1321  -47.9388 O.2       11 UNK        -0.5000 
     69 N          -2.9262  -21.3075  -45.8330 N.am      12 UNK        -0.5000 
     70 CA         -4.2481  -21.8515  -45.5209 C.3       12 UNK         0.1400 
     71 CB         -4.8188  -21.1601  -44.2741 C.3       12 UNK        -0.1800 
     72 C          -4.2218  -23.3815  -45.3455 C.2       12 UNK         0.5000 
     73 O          -5.0868  -24.0643  -45.8930 O.2       12 UNK        -0.5000 
     74 N          -3.2093  -23.9021  -44.6361 N.am      13 UNK        -0.5000 
     75 CA         -2.9609  -25.3367  -44.4524 C.3       13 UNK         0.1400 
     76 CB         -1.8440  -25.5405  -43.4182 C.3       13 UNK        -0.1800 
     77 C          -2.6242  -26.0635  -45.7692 C.2       13 UNK         0.5000 
     78 O          -3.0151  -27.2175  -45.9452 O.2       13 UNK        -0.5000 
     79 N          -1.9608  -25.3541  -46.6924 N.am      14 UNK        -0.5000 
     80 CA         -1.7099  -25.7706  -48.0741 C.3       14 UNK         0.1400 
     81 CB         -0.5530  -24.9335  -48.6451 C.3       14 UNK        -0.1800 
     82 C          -2.9538  -25.6769  -48.9860 C.2       14 UNK         0.5000 
     83 O          -2.8386  -25.9596  -50.1792 O.2       14 UNK        -0.5000 
     84 N          -4.1070  -25.2693  -48.4334 N.am      15 UNK        -0.5000 
     85 CA         -5.4140  -25.1440  -49.0808 C.3       15 UNK         0.1400 
     86 CB         -5.9551  -26.5324  -49.4833 C.3       15 UNK        -0.1800 
     87 C          -5.3936  -24.1420  -50.2478 C.2       15 UNK         0.5000 
     88 O          -5.8767  -24.4585  -51.3349 O.2       15 UNK        -0.5000 
     89 N          -4.7959  -22.9633  -50.0101 N.am      16 UNK        -0.5000 
     90 CA         -4.5910  -21.8877  -50.9880 C.3       16 UNK         0.1400 
     91 CB         -5.9436  -21.2985  -51.4454 C.3       16 UNK        -0.1800 
     92 C          -3.6921  -22.3493  -52.1544 C.2       16 UNK         0.5000 
     93 O          -4.0041  -22.1106  -53.3223 O.2       16 UNK        -0.5000 
     94 N          -2.6061  -23.0526  -51.7942 N.am      17 UNK        -0.5000 
     95 CA         -1.6482  -23.7193  -52.6828 C.3       17 UNK         0.1400 
     96 CB         -0.8088  -22.6763  -53.4511 C.3       17 UNK        -0.1800 
     97 C          -2.3428  -24.7425  -53.6068 C.2       17 UNK         0.5000 
     98 O          -2.1826  -24.6859  -54.8258 O.2       17 UNK        -0.5000 
     99 N          -3.1493  -25.6263  -52.9997 N.am      18 UNK        -0.5000 
    100 CA        -4.0353  -26.6052  -53.6428 C.3       18 UNK         0.1400 
    101 CB        -3.2119  -27.7222  -54.3165 C.3       18 UNK        -0.1800 
    102 C         -5.0633  -25.9501  -54.5944 C.2       18 UNK         0.5000 
    103 O         -5.3357  -26.4751  -55.6757 O.2       18 UNK        -0.5000 
    104 N         -5.5982  -24.7985  -54.1646 N.am      19 UNK        -0.5000 
    105 CA        -6.5545  -23.9243  -54.8494 C.3       19 UNK         0.1400 
    106 CB        -7.9337  -24.6088  -54.9400 C.3       19 UNK        -0.1800 
    107 C         -6.0630  -23.3822  -56.2105 C.2       19 UNK         0.5000 
    108 O         -6.8845  -23.0837  -57.0799 O.2       19 UNK        -0.5000 
    109 N         -4.7393  -23.2602  -56.3850 N.am      20 UNK        -0.5000 
    110 CA        -4.1138  -22.7858  -57.6218 C.3       20 UNK         0.1400 
    111 CB        -2.6323  -23.1896  -57.6297 C.3       20 UNK        -0.1800 
    112 C         -4.2507  -21.2670  -57.8359 C.2       20 UNK         0.5000 
    113 O         -4.2139  -20.8150  -58.9814 O.2       20 UNK        -0.5000 
    114 N         -4.3961  -20.5091  -56.7442 N.am      21 UNK        -0.5000 
    115 CA        -4.5133  -19.0543  -56.7176 C.3       21 UNK         0.1400 
    116 CB        -3.1384  -18.4101  -57.0088 C.3       21 UNK        -0.1800 
    117 C         -5.1020  -18.6284  -55.3600 C.2       21 UNK         0.5000 
    118 O         -5.6018  -19.4834  -54.6264 O.2       21 UNK        -0.5000 
    119 N         -5.0148  -17.3248  -55.0578 N.am      22 UNK        -0.5000 
    120 CA        -5.4144  -16.6588  -53.8038 C.3       22 UNK         0.1400 
    121 C         -6.8572  -16.9909  -53.3058 C.2       22 UNK         0.5000 
    122 N         -7.0920  -17.1372  -52.0081 N.am      22 UNK        -0.7600 
    123 O         -7.7943  -17.0443  -54.0997 O.2       22 UNK        -0.5000 
    124 C124       -4.2857  -16.6609  -52.7254 C.3       23 UNK        -0.0398 
    125 S125       -3.8922  -18.2834  -51.9826 S.3       23 UNK        -0.2404 
    126 C126       -2.4440  -18.7991  -52.9552 C.3       23 UNK        -0.0205 
    127 H127        1.1719   -8.7892  -51.0476 H         1 UNK         0.0600 
    128 H128        1.1391   -8.5236  -49.3009 H         1 UNK         0.0600 
    129 H129       -0.1374   -9.4666  -50.0756 H         1 UNK         0.0600 
    130 H130        0.1025  -11.6467  -49.7071 H         1 UNK         0.3000 
    131 H131        2.6128  -13.0422  -50.1343 H         1 UNK         0.0600 
    132 H132       -0.1576  -14.0834  -49.3687 H         1 UNK         0.0800 
    133 H133        1.2167  -15.0880  -49.7333 H         1 UNK         0.0800 
    134 H134        1.3026  -15.3341  -53.4899 H         1 UNK         0.0800 
    135 H135        2.3149  -15.3766  -52.0687 H         1 UNK         0.0800 
    136 H136       -0.9992  -16.5243  -53.3930 H         1 UNK         0.1150 
    137 H137       -1.0244  -20.1179  -51.0550 H         1 UNK         0.1150 
    138 H138        2.1476  -17.2734  -50.5804 H         1 UNK         0.1150 
    139 H139        0.9285  -20.7054  -49.7394 H         1 UNK         0.0800 
    140 H140        2.3554  -19.7067  -49.8233 H         1 UNK         0.0800 
    141 H141       -1.3099  -19.5324  -48.5955 H         1 UNK         0.0800 
    142 H142       -1.2072  -18.8770  -46.9822 H         1 UNK         0.0800 
    143 H143       -0.3010  -21.6836  -47.7656 H         1 UNK         0.0600 
    144 H144        0.1701  -20.2635  -45.3334 H         1 UNK         0.3000 
    145 H145        0.7352  -23.2186  -43.3456 H         1 UNK         0.0600 
    146 H146        2.8589  -22.7029  -44.5213 H         1 UNK         0.0600 
    147 H147        2.5649  -20.9790  -44.3517 H         1 UNK         0.0600 
    148 H148        2.8332  -21.9744  -42.9229 H         1 UNK         0.0600 
    149 H149        0.7769  -20.4686  -42.6307 H         1 UNK         0.3000 
    150 H150       -2.7056  -20.2208  -41.7470 H         1 UNK         0.0600 
    151 H151       -1.5663  -21.3011  -39.8032 H         1 UNK         0.0600 
    152 H152       -1.7066  -19.5637  -39.5843 H         1 UNK         0.0600 
    153 H153       -0.1599  -20.2722  -40.0450 H         1 UNK         0.0600 
    154 H154       -0.6427  -18.3082  -41.5189 H         1 UNK         0.3000 
    155 H155       -0.8809  -16.9238  -44.8297 H         1 UNK         0.0600 
    156 H156       -1.1097  -14.9022  -43.3961 H         1 UNK         0.0600 
    157 H157       -1.5298  -15.9070  -42.0109 H         1 UNK         0.0600 
    158 H158       -2.6006  -15.8339  -43.4034 H         1 UNK         0.0600 
    159 H159        0.8856  -16.2782  -42.7193 H         1 UNK         0.3000 
    160 H160        3.4747  -18.6464  -43.5031 H         1 UNK         0.0600 
    161 H161        3.2298  -15.5977  -43.6768 H         1 UNK         0.0600 
    162 H162        3.7805  -16.6608  -44.9630 H         1 UNK         0.0600 
    163 H163        4.7310  -16.5053  -43.4936 H         1 UNK         0.0600 
    164 H164        3.0623  -16.6677  -41.4317 H         1 UNK         0.3000 
    165 H165        1.7518  -18.9303  -39.0088 H         1 UNK         0.0600 
    166 H166        3.7309  -18.1618  -37.7289 H         1 UNK         0.0600 
    167 H167        4.2173  -19.3368  -38.9401 H         1 UNK         0.0600 
    168 H168        4.5205  -17.6249  -39.2122 H         1 UNK         0.0600 
    169 H169        2.5286  -16.1885  -38.8606 H         1 UNK         0.3000 
    170 H170       -0.4754  -14.7307  -40.0530 H         1 UNK         0.0600 
    171 H171       -1.0812  -15.3892  -37.7205 H         1 UNK         0.0600 
    172 H172        0.5405  -14.9853  -37.1700 H         1 UNK         0.0600 
    173 H173       -0.5274  -13.7240  -37.7874 H         1 UNK         0.0600 
    174 H174        1.8164  -13.6084  -38.7992 H         1 UNK         0.3000 
    175 H175        3.3455  -12.4950  -39.8840 H         1 UNK         0.0600 
    176 H176        5.4597  -13.2936  -40.8808 H         1 UNK         0.0600 
    177 H177        4.6255  -14.6408  -40.1249 H         1 UNK         0.0600 
    178 H178        4.5965  -14.4636  -41.8754 H         1 UNK         0.0600 
    179 H179        3.8767  -12.2798  -42.6949 H         1 UNK         0.3000 
    180 H180        1.5781   -9.8548  -43.5515 H         1 UNK         0.0600 
    181 H181        4.3167   -9.0161  -42.4594 H         1 UNK         0.0600 
    182 H182        2.7688   -8.3058  -42.0184 H         1 UNK         0.0600 
    183 H183        3.3712   -8.1327  -43.6583 H         1 UNK         0.0600 
    184 H184        4.3229  -10.6029  -44.3217 H         1 UNK         0.3000 
    185 H185        4.5340  -11.3455  -46.4633 H         1 UNK         0.0600 
    186 H186        4.9531  -13.1891  -44.8796 H         1 UNK         0.0600 
    187 H187        3.6411  -14.1331  -45.5612 H         1 UNK         0.0600 
    188 H188        5.0773  -13.7926  -46.5241 H         1 UNK         0.0600 
    189 H189        3.3878  -11.5513  -48.3231 H         1 UNK         0.3000 
    190 H190       -2.4850  -20.7397  -45.1166 H         1 UNK         0.3000 
    191 H191       -4.9094  -21.6253  -46.3600 H         1 UNK         0.0600 
    192 H192       -4.8789  -20.0808  -44.4151 H         1 UNK         0.0600 
    193 H193       -5.8264  -21.5173  -44.0582 H         1 UNK         0.0600 
    194 H194       -4.2095  -21.3476  -43.3908 H         1 UNK         0.0600 
    195 H195       -2.5724  -23.2700  -44.1564 H         1 UNK         0.3000 
    196 H196       -3.8753  -25.7825  -44.0558 H         1 UNK         0.0600 
    197 H197       -1.6628  -26.6016  -43.2425 H         1 UNK         0.0600 
    198 H198       -2.1077  -25.0928  -42.4599 H         1 UNK         0.0600 
    199 H199       -0.9045  -25.0972  -43.7476 H         1 UNK         0.0600 
    200 H200       -1.5973  -24.4452  -46.4244 H         1 UNK         0.3000 
    201 H201       -1.3980  -26.8167  -48.0655 H         1 UNK         0.0600 
    202 H202        0.3359  -25.0094  -48.0186 H         1 UNK         0.0600 
    203 H203       -0.8188  -23.8798  -48.7226 H         1 UNK         0.0600 
    204 H204       -0.2738  -25.2755  -49.6424 H         1 UNK         0.0600 
    205 H205       -4.1000  -25.0150  -47.4527 H         1 UNK         0.3000 
    206 H206       -6.0940  -24.7300  -48.3355 H         1 UNK         0.0600 
    207 H207       -5.9765  -27.2084  -48.6285 H         1 UNK         0.0600 
    208 H208       -6.9745  -26.4585  -49.8637 H         1 UNK         0.0600 
    209 H209       -5.3491  -26.9962  -50.2621 H         1 UNK         0.0600 
    210 H210       -4.3569  -22.8157  -49.1069 H         1 UNK         0.3000 
    211 H211       -4.0428  -21.0972  -50.4734 H         1 UNK         0.0600 
    212 H212       -6.5527  -22.0267  -51.9796 H         1 UNK         0.0600 
    213 H213       -5.7985  -20.4549  -52.1186 H         1 UNK         0.0600 
    214 H214       -6.5218  -20.9367  -50.5956 H         1 UNK         0.0600 
    215 H215       -2.4774  -23.2280  -50.8081 H         1 UNK         0.3000 
    216 H216       -0.9706  -24.2879  -52.0444 H         1 UNK         0.0600 
    217 H217       -0.0320  -23.1616  -54.0427 H         1 UNK         0.0600 
    218 H218       -0.3130  -21.9876  -52.7673 H         1 UNK         0.0600 
    219 H219       -1.4189  -22.0867  -54.1361 H         1 UNK         0.0600 
    220 H220       -3.1816  -25.6171  -51.9821 H         1 UNK         0.3000 
    221 H221       -4.6151  -27.0612  -52.8390 H         1 UNK         0.0600 
    222 H222       -2.6407  -27.3480  -55.1666 H         1 UNK         0.0600 
    223 H223       -2.5114  -28.1731  -53.6136 H         1 UNK         0.0600 
    224 H224       -3.8602  -28.5187  -54.6832 H         1 UNK         0.0600 
    225 H225       -5.3493  -24.4946  -53.2277 H         1 UNK         0.3000 
    226 H226       -6.6649  -23.0487  -54.2087 H         1 UNK         0.0600 
    227 H227       -8.2649  -24.9556  -53.9610 H         1 UNK         0.0600 
    228 H228       -8.6922  -23.9185  -55.3105 H         1 UNK         0.0600 
    229 H229       -7.9146  -25.4672  -55.6122 H         1 UNK         0.0600 
    230 H230       -4.1204  -23.5215  -55.6269 H         1 UNK         0.3000 
    231 H231       -4.6008  -23.2815  -58.4642 H         1 UNK         0.0600 
    232 H232       -2.0888  -22.7363  -56.7996 H         1 UNK         0.0600 
    233 H233       -2.1445  -22.8749  -58.5531 H         1 UNK         0.0600 
    234 H234       -2.5187  -24.2713  -57.5555 H         1 UNK         0.0600 
    235 H235       -4.4903  -20.9530  -55.8371 H         1 UNK         0.3000 
    236 H236       -5.2247  -18.7455  -57.4859 H         1 UNK         0.0600 
    237 H237       -2.7647  -18.7009  -57.9904 H         1 UNK         0.0600 
    238 H238       -3.1893  -17.3213  -57.0084 H         1 UNK         0.0600 
    239 H239       -2.3914  -18.7098  -56.2740 H         1 UNK         0.0600 
    240 H240       -4.6227  -16.7094  -55.7551 H         1 UNK         0.3000 
    241 H241       -5.5098  -15.6133  -54.0993 H         1 UNK         0.0600 
    242 H242       -8.0322  -17.3251  -51.6977 H         1 UNK         0.3800 
    243 H243       -6.3384  -17.1275  -51.3391 H         1 UNK         0.3800 
    244 H244       -3.3769  -16.2399  -53.1552 H         1 UNK         0.0800 
    245 H245       -4.5469  -15.9789  -51.9152 H         1 UNK         0.0800 
    246 H246       -2.5043  -18.3940  -53.9640 H         1 UNK         0.0800 
    247 H247       -2.4546  -19.8825  -53.0680 H         1 UNK         0.0800 
@<TRIPOS>BOND
     1    1    2 1    
     2    1  127 1    
     3    1  128 1    
     4    1  129 1    
     5    2    3 2    
     6    2    4 am   BACKBONE|DICT|INTERRES
     7    4    5 1    
     8    4  130 1    
     9    5    6 1    
    10    5   65 1    
    11    5  131 1    
    12    6    7 1    
    13    6  132 1    
    14    6  133 1    
    15    7    8 1    
    16    8    9 1    
    17    8  134 1    
    18    8  135 1    
    19    9   10 ar   
    20    9   14 ar   
    21   10   11 ar   
    22   10  136 1    
    23   11   12 ar   
    24   11  126 1    
    25   12   13 ar   
    26   12  137 1    
    27   13   14 ar   
    28   13   15 1    
    29   14  138 1    
    30   15   16 1    
    31   15  139 1    
    32   15  140 1    
    33   16   17 1    
    34   17   18 1    
    35   17  141 1    
    36   17  142 1    
    37   18   19 1    
    38   18   67 1    
    39   18  143 1    
    40   19   20 am   BACKBONE|DICT|INTERRES
    41   19  144 1    
    42   20   21 2    
    43   20   22 1    
    44   22   23 1    
    45   22   24 1    
    46   22  145 1    
    47   23  146 1    
    48   23  147 1    
    49   23  148 1    
    50   24   25 am   BACKBONE|DICT|INTERRES
    51   24  149 1    
    52   25   26 2    
    53   25   27 1    
    54   27   28 1    
    55   27   29 1    
    56   27  150 1    
    57   28  151 1    
    58   28  152 1    
    59   28  153 1    
    60   29   30 am   BACKBONE|DICT|INTERRES
    61   29  154 1    
    62   30   31 2    
    63   30   32 1    
    64   32   33 1    
    65   32   34 1    
    66   32  155 1    
    67   33  156 1    
    68   33  157 1    
    69   33  158 1    
    70   34   35 am   BACKBONE|DICT|INTERRES
    71   34  159 1    
    72   35   36 2    
    73   35   37 1    
    74   37   38 1    
    75   37   39 1    
    76   37  160 1    
    77   38  161 1    
    78   38  162 1    
    79   38  163 1    
    80   39   40 am   BACKBONE|DICT|INTERRES
    81   39  164 1    
    82   40   41 2    
    83   40   42 1    
    84   42   43 1    
    85   42   44 1    
    86   42  165 1    
    87   43  166 1    
    88   43  167 1    
    89   43  168 1    
    90   44   45 am   BACKBONE|DICT|INTERRES
    91   44  169 1    
    92   45   46 2    
    93   45   47 1    
    94   47   48 1    
    95   47   49 1    
    96   47  170 1    
    97   48  171 1    
    98   48  172 1    
    99   48  173 1    
   100   49   50 am   BACKBONE|DICT|INTERRES
   101   49  174 1    
   102   50   51 2    
   103   50   52 1    
   104   52   53 1    
   105   52   54 1    
   106   52  175 1    
   107   53  176 1    
   108   53  177 1    
   109   53  178 1    
   110   54   55 am   BACKBONE|DICT|INTERRES
   111   54  179 1    
   112   55   56 2    
   113   55   57 1    
   114   57   58 1    
   115   57   59 1    
   116   57  180 1    
   117   58  181 1    
   118   58  182 1    
   119   58  183 1    
   120   59   60 am   BACKBONE|DICT|INTERRES
   121   59  184 1    
   122   60   61 2    
   123   60   62 1    
   124   62   63 1    
   125   62   64 1    
   126   62  185 1    
   127   63  186 1    
   128   63  187 1    
   129   63  188 1    
   130   64   65 am   BACKBONE|DICT|INTERRES
   131   64  189 1    
   132   65   66 2    
   133   67   68 2    
   134   67   69 am   BACKBONE|DICT|INTERRES
   135   69   70 1    
   136   69  190 1    
   137   70   71 1    
   138   70   72 1    
   139   70  191 1    
   140   71  192 1    
   141   71  193 1    
   142   71  194 1    
   143   72   73 2    
   144   72   74 am   BACKBONE|DICT|INTERRES
   145   74   75 1    
   146   74  195 1    
   147   75   76 1    
   148   75   77 1    
   149   75  196 1    
   150   76  197 1    
   151   76  198 1    
   152   76  199 1    
   153   77   78 2    
   154   77   79 am   BACKBONE|DICT|INTERRES
   155   79   80 1    
   156   79  200 1    
   157   80   81 1    
   158   80   82 1    
   159   80  201 1    
   160   81  202 1    
   161   81  203 1    
   162   81  204 1    
   163   82   83 2    
   164   82   84 am   BACKBONE|DICT|INTERRES
   165   84   85 1    
   166   84  205 1    
   167   85   86 1    
   168   85   87 1    
   169   85  206 1    
   170   86  207 1    
   171   86  208 1    
   172   86  209 1    
   173   87   88 2    
   174   87   89 am   BACKBONE|DICT|INTERRES
   175   89   90 1    
   176   89  210 1    
   177   90   91 1    
   178   90   92 1    
   179   90  211 1    
   180   91  212 1    
   181   91  213 1    
   182   91  214 1    
   183   92   93 2    
   184   92   94 am   BACKBONE|DICT|INTERRES
   185   94   95 1    
   186   94  215 1    
   187   95   96 1    
   188   95   97 1    
   189   95  216 1    
   190   96  217 1    
   191   96  218 1    
   192   96  219 1    
   193   97   98 2    
   194   97   99 am   BACKBONE|DICT|INTERRES
   195   99  100 1    
   196   99  220 1    
   197  100  101 1    
   198  100  102 1    
   199  100  221 1    
   200  101  222 1    
   201  101  223 1    
   202  101  224 1    
   203  102  103 2    
   204  102  104 am   BACKBONE|DICT|INTERRES
   205  104  105 1    
   206  104  225 1    
   207  105  106 1    
   208  105  107 1    
   209  105  226 1    
   210  106  227 1    
   211  106  228 1    
   212  106  229 1    
   213  107  108 2    
   214  107  109 am   BACKBONE|DICT|INTERRES
   215  109  110 1    
   216  109  230 1    
   217  110  111 1    
   218  110  112 1    
   219  110  231 1    
   220  111  232 1    
   221  111  233 1    
   222  111  234 1    
   223  112  113 2    
   224  112  114 am   BACKBONE|DICT|INTERRES
   225  114  115 1    
   226  114  235 1    
   227  115  116 1    
   228  115  117 1    
   229  115  236 1    
   230  116  237 1    
   231  116  238 1    
   232  116  239 1    
   233  117  118 2    
   234  117  119 am   BACKBONE|DICT|INTERRES
   235  119  120 1    
   236  119  240 1    
   237  120  121 1    
   238  120  124 1    
   239  120  241 1    
   240  121  122 am   BACKBONE|DICT|INTERRES
   241  121  123 2    
   242  122  242 1    
   243  122  243 1    
   244  124  125 1    
   245  124  244 1    
   246  124  245 1    
   247  125  126 1    
   248  126  246 1    
   249  126  247 1    
@<TRIPOS>SUBSTRUCTURE
     1 UNK         1 GROUP             0       ****    0 ROOT    
