@<TRIPOS>MOLECULE
3R540
247   249    1
SMALL
USER_CHARGES


@<TRIPOS>ATOM
      1 CA          0.0957  -11.4377  -45.1598 C.3       0 UNK        -0.1800 
      2 C           1.3578  -11.9646  -45.8300 C.2       0 UNK         0.5000 
      3 O           2.4280  -11.3812  -45.6621 O.2       0 UNK        -0.5000 
      4 N           1.2245  -13.0540  -46.5960 N.am      1 UNK        -0.5000 
      5 CA          2.3016  -13.7721  -47.2865 C.3       1 UNK         0.1400 
      6 C6          1.7476  -14.9217  -48.1669 C.3       23 UNK        -0.0398 
      7 S7          0.5151  -14.3415  -49.3824 S.3       23 UNK        -0.2404 
      8 C8          0.9190  -15.3485  -50.8425 C.3       23 UNK        -0.0205 
      9 C9          0.4684  -16.7938  -50.6859 C.ar      23 UNK        -0.0193 
     10 C10        -0.8807  -17.1267  -50.8438 C.ar      23 UNK        -0.1150 
     11 C11        -1.3026  -18.4601  -50.7698 C.ar      23 UNK        -0.0193 
     12 C12        -0.3590  -19.4542  -50.4974 C.ar      23 UNK        -0.1150 
     13 C13         0.9892  -19.1349  -50.3162 C.ar      23 UNK        -0.0193 
     14 C14         1.3991  -17.8025  -50.4210 C.ar      23 UNK        -0.1150 
     15 C15         1.9987  -20.2414  -50.0391 C.3       23 UNK        -0.0205 
     16 S16         2.8922  -20.0412  -48.4615 S.3       23 UNK        -0.2404 
     17 C17         1.5580  -19.8491  -47.2319 C.3       23 UNK        -0.0398 
     18 CA          0.9604  -21.1957  -46.7407 C.3       11 UNK         0.1400 
     19 N           0.6742  -21.1820  -45.3027 N.am      11 UNK        -0.5000 
     20 C           0.2496  -22.2289  -44.5809 C.2       10 UNK         0.5000 
     21 O           0.0954  -23.3602  -45.0390 O.2       10 UNK        -0.5000 
     22 CA         -0.1171  -21.9541  -43.1109 C.3       10 UNK         0.1400 
     23 CB          1.1330  -21.9309  -42.2186 C.3       10 UNK        -0.1800 
     24 N          -0.8652  -20.7065  -42.9510 N.am      10 UNK        -0.5000 
     25 C          -2.1025  -20.5059  -43.4273 C.2       9 UNK         0.5000 
     26 O          -2.7583  -21.3680  -44.0119 O.2       9 UNK        -0.5000 
     27 CA         -2.6877  -19.0917  -43.2652 C.3       9 UNK         0.1400 
     28 CB         -3.2438  -18.8917  -41.8477 C.3       9 UNK        -0.1800 
     29 N          -1.7141  -18.0408  -43.5579 N.am      9 UNK        -0.5000 
     30 C          -1.1176  -17.8596  -44.7449 C.2       8 UNK         0.5000 
     31 O          -1.3532  -18.5351  -45.7451 O.2       8 UNK        -0.5000 
     32 CA         -0.0317  -16.7745  -44.8089 C.3       8 UNK         0.1400 
     33 CB         -0.6735  -15.3864  -44.9376 C.3       8 UNK        -0.1800 
     34 N           0.8638  -16.8055  -43.6517 N.am      8 UNK        -0.5000 
     35 C           1.6233  -17.8539  -43.3031 C.2       7 UNK         0.5000 
     36 O           1.6465  -18.9169  -43.9199 O.2       7 UNK        -0.5000 
     37 CA          2.4646  -17.7180  -42.0272 C.3       7 UNK         0.1400 
     38 CB          3.8031  -17.0395  -42.3307 C.3       7 UNK        -0.1800 
     39 N           1.7519  -16.9752  -40.9914 N.am      7 UNK        -0.5000 
     40 C           0.7475  -17.4895  -40.2683 C.2       6 UNK         0.5000 
     41 O           0.3673  -18.6580  -40.3579 O.2       6 UNK        -0.5000 
     42 CA          0.0209  -16.5230  -39.3155 C.3       6 UNK         0.1400 
     43 CB          0.8164  -16.3401  -38.0141 C.3       6 UNK        -0.1800 
     44 N          -0.2232  -15.2138  -39.9221 N.am      6 UNK        -0.5000 
     45 C          -1.0166  -15.0040  -40.9816 C.2       5 UNK         0.5000 
     46 O          -1.6628  -15.8917  -41.5387 O.2       5 UNK        -0.5000 
     47 CA         -1.0760  -13.5669  -41.5343 C.3       5 UNK         0.1400 
     48 CB         -2.2262  -12.7888  -40.8790 C.3       5 UNK        -0.1800 
     49 N           0.1656  -12.8001  -41.3889 N.am      5 UNK        -0.5000 
     50 C           1.3647  -13.1482  -41.8775 C.2       4 UNK         0.5000 
     51 O           1.5734  -14.2193  -42.4490 O.2       4 UNK        -0.5000 
     52 CA          2.4892  -12.0997  -41.7295 C.3       4 UNK         0.1400 
     53 CB          2.4750  -11.3961  -40.3537 C.3       4 UNK        -0.1800 
     54 N           3.8275  -12.6197  -42.0240 N.am      4 UNK        -0.5000 
     55 C           4.5123  -13.5599  -41.3604 C.2       3 UNK         0.5000 
     56 O           4.0746  -14.1732  -40.3842 O.2       3 UNK        -0.5000 
     57 CA          5.9366  -13.8453  -41.8882 C.3       3 UNK         0.1400 
     58 CB          6.7449  -14.7802  -40.9701 C.3       3 UNK        -0.1800 
     59 N           5.9314  -14.3982  -43.2451 N.am      3 UNK        -0.5000 
     60 C           5.7345  -13.6969  -44.3691 C.2       2 UNK         0.5000 
     61 O           5.5493  -12.4777  -44.3755 O.2       2 UNK        -0.5000 
     62 CA          5.7723  -14.4558  -45.7152 C.3       2 UNK         0.1400 
     63 CB          5.9248  -15.9898  -45.5898 C.3       2 UNK        -0.1800 
     64 N           4.6266  -14.1050  -46.5619 N.am      2 UNK        -0.5000 
     65 C           3.3342  -14.3271  -46.2825 C.2       1 UNK         0.5000 
     66 O           2.9404  -14.9586  -45.3022 O.2       1 UNK        -0.5000 
     67 C          -0.2898  -21.5807  -47.5561 C.2       11 UNK         0.5000 
     68 O          -0.2210  -22.4786  -48.3958 O.2       11 UNK        -0.5000 
     69 N          -1.4196  -20.9218  -47.2606 N.am      12 UNK        -0.5000 
     70 CA         -2.7220  -21.1759  -47.8711 C.3       12 UNK         0.1400 
     71 CB         -3.7397  -20.1373  -47.3786 C.3       12 UNK        -0.1800 
     72 C          -3.2303  -22.6023  -47.6167 C.2       12 UNK         0.5000 
     73 O          -3.7168  -23.2347  -48.5525 O.2       12 UNK        -0.5000 
     74 N          -3.0729  -23.0952  -46.3800 N.am      13 UNK        -0.5000 
     75 CA         -3.4097  -24.4628  -45.9854 C.3       13 UNK         0.1400 
     76 CB         -3.3051  -24.6051  -44.4596 C.3       13 UNK        -0.1800 
     77 C          -2.5426  -25.5179  -46.6955 C.2       13 UNK         0.5000 
     78 O          -3.0823  -26.5154  -47.1739 O.2       13 UNK        -0.5000 
     79 N          -1.2283  -25.2665  -46.7843 N.am      14 UNK        -0.5000 
     80 CA         -0.2603  -26.1220  -47.4752 C.3       14 UNK         0.1400 
     81 CB          1.1655  -25.6368  -47.1715 C.3       14 UNK        -0.1800 
     82 C          -0.5000  -26.1911  -48.9945 C.2       14 UNK         0.5000 
     83 O          -0.4095  -27.2724  -49.5769 O.2       14 UNK        -0.5000 
     84 N          -0.8293  -25.0434  -49.6015 N.am      15 UNK        -0.5000 
     85 CA         -1.1862  -24.9222  -51.0159 C.3       15 UNK         0.1400 
     86 CB         -1.0598  -23.4459  -51.4297 C.3       15 UNK        -0.1800 
     87 C          -2.6052  -25.4320  -51.3365 C.2       15 UNK         0.5000 
     88 O          -2.9223  -25.6152  -52.5119 O.2       15 UNK        -0.5000 
     89 N          -3.4531  -25.5773  -50.3061 N.am      16 UNK        -0.5000 
     90 CA         -4.9016  -25.8201  -50.3640 C.3       16 UNK         0.1400 
     91 CB         -5.1957  -27.2402  -50.8884 C.3       16 UNK        -0.1800 
     92 C          -5.6482  -24.7167  -51.1501 C.2       16 UNK         0.5000 
     93 O          -6.6259  -24.9979  -51.8436 O.2       16 UNK        -0.5000 
     94 N          -5.1198  -23.4856  -51.0601 N.am      17 UNK        -0.5000 
     95 CA         -5.4546  -22.2833  -51.8322 C.3       17 UNK         0.1400 
     96 CB         -6.8736  -21.7907  -51.4884 C.3       17 UNK        -0.1800 
     97 C          -5.2377  -22.4164  -53.3584 C.2       17 UNK         0.5000 
     98 O          -5.7115  -21.5590  -54.1079 O.2       17 UNK        -0.5000 
     99 N          -4.5226  -23.4617  -53.8039 N.am      18 UNK        -0.5000 
    100 CA        -4.2967  -23.8551  -55.1970 C.3       18 UNK         0.1400 
    101 CB        -3.3586  -22.8483  -55.8960 C.3       18 UNK        -0.1800 
    102 C         -5.6358  -24.0921  -55.9288 C.2       18 UNK         0.5000 
    103 O         -6.4008  -24.9643  -55.5165 O.2       18 UNK        -0.5000 
    104 N         -5.9230  -23.2922  -56.9630 N.am      19 UNK        -0.5000 
    105 CA        -7.1843  -23.2776  -57.7096 C.3       19 UNK         0.1400 
    106 CB        -6.8748  -22.9280  -59.1768 C.3       19 UNK        -0.1800 
    107 C         -8.2189  -22.3121  -57.0849 C.2       19 UNK         0.5000 
    108 O         -9.0014  -21.7012  -57.8145 O.2       19 UNK        -0.5000 
    109 N         -8.1821  -22.1681  -55.7509 N.am      20 UNK        -0.5000 
    110 CA        -8.9359  -21.2154  -54.9258 C.3       20 UNK         0.1400 
    111 CB       -10.4514  -21.4995  -54.9833 C.3       20 UNK        -0.1800 
    112 C         -8.5714  -19.7499  -55.2482 C.2       20 UNK         0.5000 
    113 O         -9.4443  -18.8797  -55.2718 O.2       20 UNK        -0.5000 
    114 N         -7.2796  -19.5150  -55.5092 N.am      21 UNK        -0.5000 
    115 CA        -6.7239  -18.2334  -55.9479 C.3       21 UNK         0.1400 
    116 CB        -7.0048  -18.0443  -57.4525 C.3       21 UNK        -0.1800 
    117 C         -5.2193  -18.0866  -55.6420 C.2       21 UNK         0.5000 
    118 O         -4.6376  -17.0669  -56.0141 O.2       21 UNK        -0.5000 
    119 N         -4.6036  -19.0920  -55.0015 N.am      22 UNK        -0.5000 
    120 CA        -3.1682  -19.1708  -54.6597 C.3       22 UNK         0.1400 
    121 C         -2.2006  -19.3456  -55.8726 C.2       22 UNK         0.5000 
    122 N         -2.6818  -19.5136  -57.0983 N.am      22 UNK        -0.7600 
    123 O         -0.9857  -19.3676  -55.6966 O.2       22 UNK        -0.5000 
    124 C124       -2.6834  -18.0414  -53.7076 C.3       23 UNK        -0.0398 
    125 S125       -3.6885  -17.8615  -52.1919 S.3       23 UNK        -0.2404 
    126 C126       -2.7625  -18.8636  -50.9778 C.3       23 UNK        -0.0205 
    127 H127       -0.7512  -12.1092  -45.3038 H         1 UNK         0.0600 
    128 H128       -0.1678  -10.4636  -45.5715 H         1 UNK         0.0600 
    129 H129        0.2554  -11.3221  -44.0885 H         1 UNK         0.0600 
    130 H130        0.3096  -13.4644  -46.7052 H         1 UNK         0.3000 
    131 H131        2.8019  -13.0521  -47.9374 H         1 UNK         0.0600 
    132 H132        2.5663  -15.4134  -48.6951 H         1 UNK         0.0800 
    133 H133        1.2771  -15.6917  -47.5544 H         1 UNK         0.0800 
    134 H134        0.4232  -14.9145  -51.7121 H         1 UNK         0.0800 
    135 H135        1.9891  -15.2918  -51.0482 H         1 UNK         0.0800 
    136 H136       -1.5971  -16.3431  -51.0450 H         1 UNK         0.1150 
    137 H137       -0.6737  -20.4861  -50.4330 H         1 UNK         0.1150 
    138 H138        2.4444  -17.5550  -50.2996 H         1 UNK         0.1150 
    139 H139        1.5168  -21.2198  -50.0479 H         1 UNK         0.0800 
    140 H140        2.7271  -20.2597  -50.8507 H         1 UNK         0.0800 
    141 H141        0.7956  -19.1563  -47.5930 H         1 UNK         0.0800 
    142 H142        2.0280  -19.3274  -46.3994 H         1 UNK         0.0800 
    143 H143        1.7011  -21.9841  -46.8900 H         1 UNK         0.0600 
    144 H144        0.8251  -20.2984  -44.8209 H         1 UNK         0.3000 
    145 H145       -0.7559  -22.7719  -42.7707 H         1 UNK         0.0600 
    146 H146        0.8674  -21.7780  -41.1724 H         1 UNK         0.0600 
    147 H147        1.6729  -22.8764  -42.2831 H         1 UNK         0.0600 
    148 H148        1.8251  -21.1398  -42.5057 H         1 UNK         0.0600 
    149 H149       -0.3872  -19.9402  -42.4970 H         1 UNK         0.3000 
    150 H150       -3.5116  -18.9896  -43.9743 H         1 UNK         0.0600 
    151 H151       -3.9764  -19.6614  -41.6019 H         1 UNK         0.0600 
    152 H152       -3.7414  -17.9263  -41.7535 H         1 UNK         0.0600 
    153 H153       -2.4544  -18.9341  -41.0960 H         1 UNK         0.0600 
    154 H154       -1.4918  -17.4022  -42.7995 H         1 UNK         0.3000 
    155 H155        0.5833  -16.9576  -45.6913 H         1 UNK         0.0600 
    156 H156       -1.0797  -15.2409  -45.9390 H         1 UNK         0.0600 
    157 H157       -1.4938  -15.2523  -44.2332 H         1 UNK         0.0600 
    158 H158        0.0532  -14.5980  -44.7514 H         1 UNK         0.0600 
    159 H159        0.9796  -15.9370  -43.1369 H         1 UNK         0.3000 
    160 H160        2.6754  -18.7222  -41.6528 H         1 UNK         0.0600 
    161 H161        3.6571  -16.0501  -42.7646 H         1 UNK         0.0600 
    162 H162        4.3854  -17.6297  -43.0388 H         1 UNK         0.0600 
    163 H163        4.3971  -16.9330  -41.4246 H         1 UNK         0.0600 
    164 H164        1.9706  -15.9906  -40.9084 H         1 UNK         0.3000 
    165 H165       -0.9462  -16.9653  -39.0668 H         1 UNK         0.0600 
    166 H166        0.2702  -15.7217  -37.3017 H         1 UNK         0.0600 
    167 H167        1.0032  -17.3011  -37.5331 H         1 UNK         0.0600 
    168 H168        1.7839  -15.8696  -38.1953 H         1 UNK         0.0600 
    169 H169        0.2809  -14.4288  -39.5373 H         1 UNK         0.3000 
    170 H170       -1.2853  -13.6350  -42.6021 H         1 UNK         0.0600 
    171 H171       -2.0568  -12.6433  -39.8114 H         1 UNK         0.0600 
    172 H172       -2.3513  -11.8075  -41.3371 H         1 UNK         0.0600 
    173 H173       -3.1721  -13.3205  -40.9920 H         1 UNK         0.0600 
    174 H174        0.0795  -11.9070  -40.9261 H         1 UNK         0.3000 
    175 H175        2.2980  -11.3433  -42.4917 H         1 UNK         0.0600 
    176 H176        3.3186  -10.7129  -40.2538 H         1 UNK         0.0600 
    177 H177        2.5278  -12.1109  -39.5317 H         1 UNK         0.0600 
    178 H178        1.5717  -10.8016  -40.2158 H         1 UNK         0.0600 
    179 H179        4.2610  -12.2571  -42.8678 H         1 UNK         0.3000 
    180 H180        6.4616  -12.8879  -41.9072 H         1 UNK         0.0600 
    181 H181        6.3135  -15.7790  -40.9195 H         1 UNK         0.0600 
    182 H182        6.7858  -14.3887  -39.9529 H         1 UNK         0.0600 
    183 H183        7.7732  -14.8789  -41.3183 H         1 UNK         0.0600 
    184 H184        6.0473  -15.3977  -43.3196 H         1 UNK         0.3000 
    185 H185        6.6565  -14.0862  -46.2364 H         1 UNK         0.0600 
    186 H186        6.8471  -16.2555  -45.0720 H         1 UNK         0.0600 
    187 H187        5.0952  -16.4460  -45.0502 H         1 UNK         0.0600 
    188 H188        5.9691  -16.4560  -46.5741 H         1 UNK         0.0600 
    189 H189        4.8521  -13.5498  -47.3753 H         1 UNK         0.3000 
    190 H190       -1.3835  -20.1661  -46.5788 H         1 UNK         0.3000 
    191 H191       -2.6077  -21.0572  -48.9494 H         1 UNK         0.0600 
    192 H192       -3.4085  -19.1229  -47.6011 H         1 UNK         0.0600 
    193 H193       -4.7074  -20.2788  -47.8614 H         1 UNK         0.0600 
    194 H194       -3.8949  -20.2055  -46.3015 H         1 UNK         0.0600 
    195 H195       -2.7083  -22.4886  -45.6516 H         1 UNK         0.3000 
    196 H196       -4.4485  -24.6431  -46.2698 H         1 UNK         0.0600 
    197 H197       -3.5644  -25.6158  -44.1422 H         1 UNK         0.0600 
    198 H198       -3.9859  -23.9207  -43.9533 H         1 UNK         0.0600 
    199 H199       -2.2962  -24.3967  -44.1029 H         1 UNK         0.0600 
    200 H200       -0.8538  -24.4405  -46.3247 H         1 UNK         0.3000 
    201 H201       -0.3655  -27.1333  -47.0771 H         1 UNK         0.0600 
    202 H202        1.3734  -25.6720  -46.1020 H         1 UNK         0.0600 
    203 H203        1.3228  -24.6115  -47.5081 H         1 UNK         0.0600 
    204 H204        1.9069  -26.2640  -47.6680 H         1 UNK         0.0600 
    205 H205       -0.8107  -24.1816  -49.0612 H         1 UNK         0.3000 
    206 H206       -0.4810  -25.5084  -51.6085 H         1 UNK         0.0600 
    207 H207       -0.0478  -23.0756  -51.2648 H         1 UNK         0.0600 
    208 H208       -1.2863  -23.3114  -52.4883 H         1 UNK         0.0600 
    209 H209       -1.7436  -22.8116  -50.8640 H         1 UNK         0.0600 
    210 H210       -3.0963  -25.3611  -49.3844 H         1 UNK         0.3000 
    211 H211       -5.2623  -25.7618  -49.3361 H         1 UNK         0.0600 
    212 H212       -4.9172  -27.3516  -51.9367 H         1 UNK         0.0600 
    213 H213       -6.2574  -27.4752  -50.8056 H         1 UNK         0.0600 
    214 H214       -4.6521  -27.9909  -50.3147 H         1 UNK         0.0600 
    215 H215       -4.3772  -23.3715  -50.3754 H         1 UNK         0.3000 
    216 H216       -4.7547  -21.5149  -51.5023 H         1 UNK         0.0600 
    217 H217       -7.0720  -20.8180  -51.9400 H         1 UNK         0.0600 
    218 H218       -6.9993  -21.6763  -50.4117 H         1 UNK         0.0600 
    219 H219       -7.6388  -22.4811  -51.8438 H         1 UNK         0.0600 
    220 H220       -4.1799  -24.1316  -53.1241 H         1 UNK         0.3000 
    221 H221       -3.7867  -24.8190  -55.1672 H         1 UNK         0.0600 
    222 H222       -3.8116  -21.8625  -55.9855 H         1 UNK         0.0600 
    223 H223       -2.4271  -22.7337  -55.3415 H         1 UNK         0.0600 
    224 H224       -3.0945  -23.1863  -56.8988 H         1 UNK         0.0600 
    225 H225       -5.2482  -22.5863  -57.2183 H         1 UNK         0.3000 
    226 H226       -7.6290  -24.2747  -57.6926 H         1 UNK         0.0600 
    227 H227       -6.1473  -23.6198  -59.6017 H         1 UNK         0.0600 
    228 H228       -7.7720  -22.9875  -59.7942 H         1 UNK         0.0600 
    229 H229       -6.4743  -21.9181  -59.2733 H         1 UNK         0.0600 
    230 H230       -7.4795  -22.6984  -55.2534 H         1 UNK         0.3000 
    231 H231       -8.6142  -21.3850  -53.8983 H         1 UNK         0.0600 
    232 H232      -10.8705  -21.2824  -55.9660 H         1 UNK         0.0600 
    233 H233      -10.9895  -20.8880  -54.2582 H         1 UNK         0.0600 
    234 H234      -10.6657  -22.5422  -54.7493 H         1 UNK         0.0600 
    235 H235       -6.6367  -20.2912  -55.4104 H         1 UNK         0.3000 
    236 H236       -7.2213  -17.4322  -55.3977 H         1 UNK         0.0600 
    237 H237       -6.6158  -17.0915  -57.8135 H         1 UNK         0.0600 
    238 H238       -6.5450  -18.8354  -58.0459 H         1 UNK         0.0600 
    239 H239       -8.0745  -18.0510  -57.6617 H         1 UNK         0.0600 
    240 H240       -5.1457  -19.8915  -54.6907 H         1 UNK         0.3000 
    241 H241       -3.0703  -20.1058  -54.1072 H         1 UNK         0.0600 
    242 H242       -3.6720  -19.4724  -57.2707 H         1 UNK         0.3800 
    243 H243       -2.0419  -19.6356  -57.8671 H         1 UNK         0.3800 
    244 H244       -1.6433  -18.2071  -53.4255 H         1 UNK         0.0800 
    245 H245       -2.6913  -17.0819  -54.2259 H         1 UNK         0.0800 
    246 H246       -3.2773  -18.7973  -50.0197 H         1 UNK         0.0800 
    247 H247       -2.8207  -19.9069  -51.2910 H         1 UNK         0.0800 
@<TRIPOS>BOND
     1    1    2 1    
     2    1  127 1    
     3    1  128 1    
     4    1  129 1    
     5    2    3 2    
     6    2    4 am   BACKBONE|DICT|INTERRES
     7    4    5 1    
     8    4  130 1    
     9    5    6 1    
    10    5   65 1    
    11    5  131 1    
    12    6    7 1    
    13    6  132 1    
    14    6  133 1    
    15    7    8 1    
    16    8    9 1    
    17    8  134 1    
    18    8  135 1    
    19    9   10 ar   
    20    9   14 ar   
    21   10   11 ar   
    22   10  136 1    
    23   11   12 ar   
    24   11  126 1    
    25   12   13 ar   
    26   12  137 1    
    27   13   14 ar   
    28   13   15 1    
    29   14  138 1    
    30   15   16 1    
    31   15  139 1    
    32   15  140 1    
    33   16   17 1    
    34   17   18 1    
    35   17  141 1    
    36   17  142 1    
    37   18   19 1    
    38   18   67 1    
    39   18  143 1    
    40   19   20 am   BACKBONE|DICT|INTERRES
    41   19  144 1    
    42   20   21 2    
    43   20   22 1    
    44   22   23 1    
    45   22   24 1    
    46   22  145 1    
    47   23  146 1    
    48   23  147 1    
    49   23  148 1    
    50   24   25 am   BACKBONE|DICT|INTERRES
    51   24  149 1    
    52   25   26 2    
    53   25   27 1    
    54   27   28 1    
    55   27   29 1    
    56   27  150 1    
    57   28  151 1    
    58   28  152 1    
    59   28  153 1    
    60   29   30 am   BACKBONE|DICT|INTERRES
    61   29  154 1    
    62   30   31 2    
    63   30   32 1    
    64   32   33 1    
    65   32   34 1    
    66   32  155 1    
    67   33  156 1    
    68   33  157 1    
    69   33  158 1    
    70   34   35 am   BACKBONE|DICT|INTERRES
    71   34  159 1    
    72   35   36 2    
    73   35   37 1    
    74   37   38 1    
    75   37   39 1    
    76   37  160 1    
    77   38  161 1    
    78   38  162 1    
    79   38  163 1    
    80   39   40 am   BACKBONE|DICT|INTERRES
    81   39  164 1    
    82   40   41 2    
    83   40   42 1    
    84   42   43 1    
    85   42   44 1    
    86   42  165 1    
    87   43  166 1    
    88   43  167 1    
    89   43  168 1    
    90   44   45 am   BACKBONE|DICT|INTERRES
    91   44  169 1    
    92   45   46 2    
    93   45   47 1    
    94   47   48 1    
    95   47   49 1    
    96   47  170 1    
    97   48  171 1    
    98   48  172 1    
    99   48  173 1    
   100   49   50 am   BACKBONE|DICT|INTERRES
   101   49  174 1    
   102   50   51 2    
   103   50   52 1    
   104   52   53 1    
   105   52   54 1    
   106   52  175 1    
   107   53  176 1    
   108   53  177 1    
   109   53  178 1    
   110   54   55 am   BACKBONE|DICT|INTERRES
   111   54  179 1    
   112   55   56 2    
   113   55   57 1    
   114   57   58 1    
   115   57   59 1    
   116   57  180 1    
   117   58  181 1    
   118   58  182 1    
   119   58  183 1    
   120   59   60 am   BACKBONE|DICT|INTERRES
   121   59  184 1    
   122   60   61 2    
   123   60   62 1    
   124   62   63 1    
   125   62   64 1    
   126   62  185 1    
   127   63  186 1    
   128   63  187 1    
   129   63  188 1    
   130   64   65 am   BACKBONE|DICT|INTERRES
   131   64  189 1    
   132   65   66 2    
   133   67   68 2    
   134   67   69 am   BACKBONE|DICT|INTERRES
   135   69   70 1    
   136   69  190 1    
   137   70   71 1    
   138   70   72 1    
   139   70  191 1    
   140   71  192 1    
   141   71  193 1    
   142   71  194 1    
   143   72   73 2    
   144   72   74 am   BACKBONE|DICT|INTERRES
   145   74   75 1    
   146   74  195 1    
   147   75   76 1    
   148   75   77 1    
   149   75  196 1    
   150   76  197 1    
   151   76  198 1    
   152   76  199 1    
   153   77   78 2    
   154   77   79 am   BACKBONE|DICT|INTERRES
   155   79   80 1    
   156   79  200 1    
   157   80   81 1    
   158   80   82 1    
   159   80  201 1    
   160   81  202 1    
   161   81  203 1    
   162   81  204 1    
   163   82   83 2    
   164   82   84 am   BACKBONE|DICT|INTERRES
   165   84   85 1    
   166   84  205 1    
   167   85   86 1    
   168   85   87 1    
   169   85  206 1    
   170   86  207 1    
   171   86  208 1    
   172   86  209 1    
   173   87   88 2    
   174   87   89 am   BACKBONE|DICT|INTERRES
   175   89   90 1    
   176   89  210 1    
   177   90   91 1    
   178   90   92 1    
   179   90  211 1    
   180   91  212 1    
   181   91  213 1    
   182   91  214 1    
   183   92   93 2    
   184   92   94 am   BACKBONE|DICT|INTERRES
   185   94   95 1    
   186   94  215 1    
   187   95   96 1    
   188   95   97 1    
   189   95  216 1    
   190   96  217 1    
   191   96  218 1    
   192   96  219 1    
   193   97   98 2    
   194   97   99 am   BACKBONE|DICT|INTERRES
   195   99  100 1    
   196   99  220 1    
   197  100  101 1    
   198  100  102 1    
   199  100  221 1    
   200  101  222 1    
   201  101  223 1    
   202  101  224 1    
   203  102  103 2    
   204  102  104 am   BACKBONE|DICT|INTERRES
   205  104  105 1    
   206  104  225 1    
   207  105  106 1    
   208  105  107 1    
   209  105  226 1    
   210  106  227 1    
   211  106  228 1    
   212  106  229 1    
   213  107  108 2    
   214  107  109 am   BACKBONE|DICT|INTERRES
   215  109  110 1    
   216  109  230 1    
   217  110  111 1    
   218  110  112 1    
   219  110  231 1    
   220  111  232 1    
   221  111  233 1    
   222  111  234 1    
   223  112  113 2    
   224  112  114 am   BACKBONE|DICT|INTERRES
   225  114  115 1    
   226  114  235 1    
   227  115  116 1    
   228  115  117 1    
   229  115  236 1    
   230  116  237 1    
   231  116  238 1    
   232  116  239 1    
   233  117  118 2    
   234  117  119 am   BACKBONE|DICT|INTERRES
   235  119  120 1    
   236  119  240 1    
   237  120  121 1    
   238  120  124 1    
   239  120  241 1    
   240  121  122 am   BACKBONE|DICT|INTERRES
   241  121  123 2    
   242  122  242 1    
   243  122  243 1    
   244  124  125 1    
   245  124  244 1    
   246  124  245 1    
   247  125  126 1    
   248  126  246 1    
   249  126  247 1    
@<TRIPOS>SUBSTRUCTURE
     1 UNK         1 GROUP             0       ****    0 ROOT    
