@<TRIPOS>MOLECULE
3R540
247   249    1
SMALL
USER_CHARGES


@<TRIPOS>ATOM
      1 CA          1.7868  -15.3201  -54.2110 C.3       0 UNK        -0.1800 
      2 C           1.3495  -15.8080  -52.8375 C.2       0 UNK         0.5000 
      3 O           1.0182  -16.9826  -52.6843 O.2       0 UNK        -0.5000 
      4 N           1.3362  -14.9123  -51.8434 N.am      1 UNK        -0.5000 
      5 CA          0.9766  -15.2239  -50.4584 C.3       1 UNK         0.1400 
      6 C6          0.4983  -13.9791  -49.6662 C.3       23 UNK        -0.0398 
      7 S7         -0.9186  -13.1311  -50.4492 S.3       23 UNK        -0.2404 
      8 C8         -2.3174  -13.6199  -49.3763 C.3       23 UNK        -0.0205 
      9 C9         -2.6157  -15.1183  -49.3563 C.ar      23 UNK        -0.0193 
     10 C10        -2.4361  -15.9153  -50.4918 C.ar      23 UNK        -0.1150 
     11 C11        -2.6689  -17.2907  -50.4448 C.ar      23 UNK        -0.0193 
     12 C12        -3.1391  -17.8692  -49.2645 C.ar      23 UNK        -0.1150 
     13 C13        -3.3677  -17.0805  -48.1336 C.ar      23 UNK        -0.0193 
     14 C14        -3.0972  -15.7093  -48.1835 C.ar      23 UNK        -0.1150 
     15 C15        -3.9168  -17.7124  -46.8634 C.3       23 UNK        -0.0205 
     16 S16        -2.7179  -17.7159  -45.4910 S.3       23 UNK        -0.2404 
     17 C17        -1.2795  -18.6084  -46.1861 C.3       23 UNK        -0.0398 
     18 CA         -1.2473  -20.1234  -45.8783 C.3       11 UNK         0.1400 
     19 N          -1.4764  -20.4193  -44.4577 N.am      11 UNK        -0.5000 
     20 C          -1.3375  -21.6238  -43.8875 C.2       10 UNK         0.5000 
     21 O          -1.0270  -22.6277  -44.5282 O.2       10 UNK        -0.5000 
     22 CA         -1.5803  -21.7406  -42.3714 C.3       10 UNK         0.1400 
     23 CB         -0.3771  -22.3931  -41.6705 C.3       10 UNK        -0.1800 
     24 N          -1.8362  -20.4466  -41.7387 N.am      10 UNK        -0.5000 
     25 C          -3.0424  -19.9542  -41.4293 C.2       9 UNK         0.5000 
     26 O          -4.0975  -20.5138  -41.7309 O.2       9 UNK        -0.5000 
     27 CA         -3.0688  -18.6083  -40.6670 C.3       9 UNK         0.1400 
     28 CB         -4.3407  -18.4281  -39.8132 C.3       9 UNK        -0.1800 
     29 N          -1.8618  -18.3616  -39.8660 N.am      9 UNK        -0.5000 
     30 C          -1.3878  -19.0920  -38.8421 C.2       8 UNK         0.5000 
     31 O          -1.9819  -20.0590  -38.3637 O.2       8 UNK        -0.5000 
     32 CA         -0.0057  -18.7048  -38.2721 C.3       8 UNK         0.1400 
     33 CB          0.9348  -19.9227  -38.2508 C.3       8 UNK        -0.1800 
     34 N           0.6345  -17.6513  -39.0612 N.am      8 UNK        -0.5000 
     35 C           0.8088  -16.3791  -38.6785 C.2       7 UNK         0.5000 
     36 O           0.5034  -15.9521  -37.5646 O.2       7 UNK        -0.5000 
     37 CA          1.4040  -15.4071  -39.7224 C.3       7 UNK         0.1400 
     38 CB          2.9156  -15.2439  -39.5035 C.3       7 UNK        -0.1800 
     39 N           1.1728  -15.8110  -41.1118 N.am      7 UNK        -0.5000 
     40 C          -0.0281  -15.9672  -41.6855 C.2       6 UNK         0.5000 
     41 O          -1.0934  -15.7232  -41.1202 O.2       6 UNK        -0.5000 
     42 CA         -0.0489  -16.5819  -43.0950 C.3       6 UNK         0.1400 
     43 CB         -0.0344  -15.4738  -44.1587 C.3       6 UNK        -0.1800 
     44 N           1.0514  -17.5188  -43.3414 N.am      6 UNK        -0.5000 
     45 C           1.3062  -18.6369  -42.6461 C.2       5 UNK         0.5000 
     46 O           0.6182  -19.0170  -41.6995 O.2       5 UNK        -0.5000 
     47 CA          2.5540  -19.4410  -43.0462 C.3       5 UNK         0.1400 
     48 CB          2.2448  -20.4052  -44.2003 C.3       5 UNK        -0.1800 
     49 N           3.6455  -18.5544  -43.4423 N.am      5 UNK        -0.5000 
     50 C           4.5064  -17.9824  -42.5903 C.2       4 UNK         0.5000 
     51 O           4.5065  -18.1889  -41.3767 O.2       4 UNK        -0.5000 
     52 CA          5.5337  -17.0041  -43.1930 C.3       4 UNK         0.1400 
     53 CB          6.8258  -17.7451  -43.5683 C.3       4 UNK        -0.1800 
     54 N           5.0292  -16.2939  -44.3704 N.am      4 UNK        -0.5000 
     55 C           4.0650  -15.3642  -44.3366 C.2       3 UNK         0.5000 
     56 O           3.5140  -14.9886  -43.3011 O.2       3 UNK        -0.5000 
     57 CA          3.6115  -14.7886  -45.6934 C.3       3 UNK         0.1400 
     58 CB          4.4976  -13.6013  -46.0976 C.3       3 UNK        -0.1800 
     59 N           3.5721  -15.7564  -46.7973 N.am      3 UNK        -0.5000 
     60 C           2.8986  -16.9143  -46.7987 C.2       2 UNK         0.5000 
     61 O           2.3100  -17.3577  -45.8141 O.2       2 UNK        -0.5000 
     62 CA          2.8197  -17.6706  -48.1369 C.3       2 UNK         0.1400 
     63 CB          2.3577  -19.1281  -47.9507 C.3       2 UNK        -0.1800 
     64 N           1.8794  -16.9883  -49.0231 N.am      2 UNK        -0.5000 
     65 C           2.1604  -15.8943  -49.7409 C.2       1 UNK         0.5000 
     66 O           3.2843  -15.3895  -49.8084 O.2       1 UNK        -0.5000 
     67 C          -2.1449  -20.9275  -46.8440 C.2       11 UNK         0.5000 
     68 O          -1.7093  -21.2428  -47.9520 O.2       11 UNK        -0.5000 
     69 N          -3.3528  -21.2927  -46.3937 N.am      12 UNK        -0.5000 
     70 CA         -4.2783  -22.1591  -47.1247 C.3       12 UNK         0.1400 
     71 CB         -5.6723  -22.0501  -46.4906 C.3       12 UNK        -0.1800 
     72 C          -3.8164  -23.6298  -47.1762 C.2       12 UNK         0.5000 
     73 O          -4.1682  -24.3351  -48.1208 O.2       12 UNK        -0.5000 
     74 N          -3.0331  -24.0650  -46.1784 N.am      13 UNK        -0.5000 
     75 CA         -2.4031  -25.3852  -46.1460 C.3       13 UNK         0.1400 
     76 CB         -2.1727  -25.8173  -44.6890 C.3       13 UNK        -0.1800 
     77 C          -1.0850  -25.3916  -46.9396 C.2       13 UNK         0.5000 
     78 O          -0.7746  -26.3954  -47.5818 O.2       13 UNK        -0.5000 
     79 N          -0.3469  -24.2702  -46.9005 N.am      14 UNK        -0.5000 
     80 CA          0.8650  -24.0397  -47.6915 C.3       14 UNK         0.1400 
     81 CB          1.5455  -22.7393  -47.2359 C.3       14 UNK        -0.1800 
     82 C           0.5725  -24.0064  -49.2039 C.2       14 UNK         0.5000 
     83 O           1.3028  -24.6314  -49.9736 O.2       14 UNK        -0.5000 
     84 N          -0.5154  -23.3140  -49.5806 N.am      15 UNK        -0.5000 
     85 CA         -1.1255  -23.2722  -50.9132 C.3       15 UNK         0.1400 
     86 CB         -1.7616  -24.6377  -51.2464 C.3       15 UNK        -0.1800 
     87 C          -0.1677  -22.7721  -52.0147 C.2       15 UNK         0.5000 
     88 O          -0.1243  -23.3435  -53.1062 O.2       15 UNK        -0.5000 
     89 N           0.5747  -21.6966  -51.7115 N.am      16 UNK        -0.5000 
     90 CA          1.6036  -21.1015  -52.5761 C.3       16 UNK         0.1400 
     91 CB          2.3288  -19.9883  -51.8061 C.3       16 UNK        -0.1800 
     92 C           1.0983  -20.5930  -53.9435 C.2       16 UNK         0.5000 
     93 O           1.8825  -20.5394  -54.8920 O.2       16 UNK        -0.5000 
     94 N          -0.1995  -20.2805  -54.0321 N.am      17 UNK        -0.5000 
     95 CA         -0.9134  -19.9907  -55.2736 C.3       17 UNK         0.1400 
     96 CB         -1.1321  -18.4752  -55.4167 C.3       17 UNK        -0.1800 
     97 C          -2.2080  -20.8223  -55.3238 C.2       17 UNK         0.5000 
     98 O          -3.2844  -20.2928  -55.5971 O.2       17 UNK        -0.5000 
     99 N          -2.0712  -22.1238  -55.0274 N.am      18 UNK        -0.5000 
    100 CA        -3.0749  -23.1937  -55.1210 C.3       18 UNK         0.1400 
    101 CB        -3.6251  -23.3095  -56.5582 C.3       18 UNK        -0.1800 
    102 C         -4.2139  -23.1382  -54.0822 C.2       18 UNK         0.5000 
    103 O         -5.0940  -23.9991  -54.1243 O.2       18 UNK        -0.5000 
    104 N         -4.1868  -22.1543  -53.1711 N.am      19 UNK        -0.5000 
    105 CA        -5.1464  -21.8658  -52.0938 C.3       19 UNK         0.1400 
    106 CB        -5.2768  -23.0391  -51.1048 C.3       19 UNK        -0.1800 
    107 C         -6.5266  -21.3996  -52.5957 C.2       19 UNK         0.5000 
    108 O         -7.0065  -20.3503  -52.1686 O.2       19 UNK        -0.5000 
    109 N         -7.1363  -22.1717  -53.5012 N.am      20 UNK        -0.5000 
    110 CA        -8.4596  -21.9245  -54.0723 C.3       20 UNK         0.1400 
    111 CB        -8.9027  -23.1670  -54.8595 C.3       20 UNK        -0.1800 
    112 C         -8.5218  -20.6703  -54.9632 C.2       20 UNK         0.5000 
    113 O         -9.5635  -20.0145  -55.0063 O.2       20 UNK        -0.5000 
    114 N         -7.4178  -20.3620  -55.6578 N.am      21 UNK        -0.5000 
    115 CA        -7.3078  -19.1951  -56.5323 C.3       21 UNK         0.1400 
    116 CB        -6.2165  -19.4396  -57.5855 C.3       21 UNK        -0.1800 
    117 C         -7.0362  -17.9032  -55.7421 C.2       21 UNK         0.5000 
    118 O         -7.6475  -16.8752  -56.0377 O.2       21 UNK        -0.5000 
    119 N         -6.1270  -17.9748  -54.7617 N.am      22 UNK        -0.5000 
    120 CA        -5.7464  -16.8448  -53.8992 C.3       22 UNK         0.1400 
    121 C         -6.7375  -16.5489  -52.7377 C.2       22 UNK         0.5000 
    122 N         -7.4922  -17.5191  -52.2383 N.am      22 UNK        -0.7600 
    123 O         -6.8411  -15.4071  -52.2977 O.2       22 UNK        -0.5000 
    124 C124       -4.2830  -16.9571  -53.4032 C.3       23 UNK        -0.0398 
    125 S125       -3.8966  -18.5462  -52.5880 S.3       23 UNK        -0.2404 
    126 C126       -2.3841  -18.1541  -51.6609 C.3       23 UNK        -0.0205 
    127 H127        2.6576  -15.8823  -54.5480 H         1 UNK         0.0600 
    128 H128        0.9839  -15.4683  -54.9332 H         1 UNK         0.0600 
    129 H129        2.0463  -14.2613  -54.2020 H         1 UNK         0.0600 
    130 H130        1.6351  -13.9637  -52.0171 H         1 UNK         0.3000 
    131 H131        0.1615  -15.9455  -50.4772 H         1 UNK         0.0600 
    132 H132        1.3080  -13.2530  -49.5730 H         1 UNK         0.0800 
    133 H133        0.2251  -14.2574  -48.6465 H         1 UNK         0.0800 
    134 H134       -3.2127  -13.0986  -49.7171 H         1 UNK         0.0800 
    135 H135       -2.1180  -13.2606  -48.3655 H         1 UNK         0.0800 
    136 H136       -2.0815  -15.4725  -51.4116 H         1 UNK         0.1150 
    137 H137       -3.3298  -18.9330  -49.2309 H         1 UNK         0.1150 
    138 H138       -3.2622  -15.1041  -47.3030 H         1 UNK         0.1150 
    139 H139       -4.8016  -17.1574  -46.5490 H         1 UNK         0.0800 
    140 H140       -4.2564  -18.7307  -47.0532 H         1 UNK         0.0800 
    141 H141       -0.3893  -18.1549  -45.7513 H         1 UNK         0.0800 
    142 H142       -1.1872  -18.4200  -47.2561 H         1 UNK         0.0800 
    143 H143       -0.2319  -20.4593  -46.0880 H         1 UNK         0.0600 
    144 H144       -1.7588  -19.6430  -43.8783 H         1 UNK         0.3000 
    145 H145       -2.4415  -22.3981  -42.2378 H         1 UNK         0.0600 
    146 H146       -0.5703  -22.5255  -40.6057 H         1 UNK         0.0600 
    147 H147       -0.1640  -23.3793  -42.0851 H         1 UNK         0.0600 
    148 H148        0.5263  -21.7914  -41.7701 H         1 UNK         0.0600 
    149 H149       -1.0102  -19.9029  -41.4989 H         1 UNK         0.3000 
    150 H150       -3.0802  -17.8339  -41.4352 H         1 UNK         0.0600 
    151 H151       -5.2366  -18.4542  -40.4345 H         1 UNK         0.0600 
    152 H152       -4.3350  -17.4685  -39.2963 H         1 UNK         0.0600 
    153 H153       -4.4411  -19.2132  -39.0635 H         1 UNK         0.0600 
    154 H154       -1.3198  -17.5563  -40.1557 H         1 UNK         0.3000 
    155 H155       -0.1625  -18.3738  -37.2438 H         1 UNK         0.0600 
    156 H156        1.0858  -20.3312  -39.2510 H         1 UNK         0.0600 
    157 H157        0.5326  -20.7216  -37.6268 H         1 UNK         0.0600 
    158 H158        1.9120  -19.6583  -37.8464 H         1 UNK         0.0600 
    159 H159        0.8950  -17.9188  -40.0041 H         1 UNK         0.3000 
    160 H160        0.9272  -14.4359  -39.5758 H         1 UNK         0.0600 
    161 H161        3.3377  -14.5112  -40.1919 H         1 UNK         0.0600 
    162 H162        3.4457  -16.1857  -39.6508 H         1 UNK         0.0600 
    163 H163        3.1300  -14.9004  -38.4907 H         1 UNK         0.0600 
    164 H164        1.9938  -16.0058  -41.6699 H         1 UNK         0.3000 
    165 H165       -0.9790  -17.1433  -43.1904 H         1 UNK         0.0600 
    166 H166       -0.0318  -15.8811  -45.1691 H         1 UNK         0.0600 
    167 H167       -0.9173  -14.8400  -44.0685 H         1 UNK         0.0600 
    168 H168        0.8394  -14.8318  -44.0532 H         1 UNK         0.0600 
    169 H169        1.6350  -17.3207  -44.1514 H         1 UNK         0.3000 
    170 H170        2.8642  -20.0352  -42.1840 H         1 UNK         0.0600 
    171 H171        1.5143  -21.1544  -43.8997 H         1 UNK         0.0600 
    172 H172        1.8445  -19.8832  -45.0680 H         1 UNK         0.0600 
    173 H173        3.1395  -20.9411  -44.5173 H         1 UNK         0.0600 
    174 H174        3.6647  -18.2744  -44.4140 H         1 UNK         0.3000 
    175 H175        5.7745  -16.2648  -42.4259 H         1 UNK         0.0600 
    176 H176        7.5880  -17.0527  -43.9261 H         1 UNK         0.0600 
    177 H177        7.2416  -18.2664  -42.7049 H         1 UNK         0.0600 
    178 H178        6.6526  -18.4879  -44.3481 H         1 UNK         0.0600 
    179 H179        5.4256  -16.5453  -45.2641 H         1 UNK         0.3000 
    180 H180        2.5947  -14.4156  -45.5627 H         1 UNK         0.0600 
    181 H181        5.5239  -13.9139  -46.2940 H         1 UNK         0.0600 
    182 H182        4.5281  -12.8487  -45.3084 H         1 UNK         0.0600 
    183 H183        4.1176  -13.1131  -46.9954 H         1 UNK         0.0600 
    184 H184        3.9810  -15.4541  -47.6730 H         1 UNK         0.3000 
    185 H185        3.8145  -17.6826  -48.5871 H         1 UNK         0.0600 
    186 H186        1.3575  -19.1862  -47.5225 H         1 UNK         0.0600 
    187 H187        2.3400  -19.6629  -48.8976 H         1 UNK         0.0600 
    188 H188        3.0330  -19.6703  -47.2878 H         1 UNK         0.0600 
    189 H189        0.9292  -17.3273  -49.0041 H         1 UNK         0.3000 
    190 H190       -3.6359  -20.9941  -45.4715 H         1 UNK         0.3000 
    191 H191       -4.3442  -21.7993  -48.1541 H         1 UNK         0.0600 
    192 H192       -6.0375  -21.0232  -46.5156 H         1 UNK         0.0600 
    193 H193       -5.6693  -22.3814  -45.4514 H         1 UNK         0.0600 
    194 H194       -6.3951  -22.6641  -47.0296 H         1 UNK         0.0600 
    195 H195       -2.7369  -23.4133  -45.4637 H         1 UNK         0.3000 
    196 H196       -3.0746  -26.1142  -46.6051 H         1 UNK         0.0600 
    197 H197       -1.7689  -26.8295  -44.6459 H         1 UNK         0.0600 
    198 H198       -3.1055  -25.8156  -44.1251 H         1 UNK         0.0600 
    199 H199       -1.4677  -25.1654  -44.1734 H         1 UNK         0.0600 
    200 H200       -0.6374  -23.5280  -46.2738 H         1 UNK         0.3000 
    201 H201        1.5498  -24.8678  -47.4972 H         1 UNK         0.0600 
    202 H202        0.9479  -21.8633  -47.4832 H         1 UNK         0.0600 
    203 H203        2.5134  -22.6175  -47.7234 H         1 UNK         0.0600 
    204 H204        1.7196  -22.7374  -46.1597 H         1 UNK         0.0600 
    205 H205       -0.9995  -22.7708  -48.8704 H         1 UNK         0.3000 
    206 H206       -1.9309  -22.5388  -50.8554 H         1 UNK         0.0600 
    207 H207       -2.4420  -24.9579  -50.4569 H         1 UNK         0.0600 
    208 H208       -2.3377  -24.5898  -52.1703 H         1 UNK         0.0600 
    209 H209       -1.0071  -25.4152  -51.3704 H         1 UNK         0.0600 
    210 H210        0.4795  -21.3000  -50.7881 H         1 UNK         0.3000 
    211 H211        2.3332  -21.8848  -52.7919 H         1 UNK         0.0600 
    212 H212        1.6291  -19.2655  -51.3855 H         1 UNK         0.0600 
    213 H213        3.0159  -19.4400  -52.4523 H         1 UNK         0.0600 
    214 H214        2.9212  -20.4045  -50.9922 H         1 UNK         0.0600 
    215 H215       -0.7622  -20.3518  -53.1983 H         1 UNK         0.3000 
    216 H216       -0.3230  -20.3200  -56.1311 H         1 UNK         0.0600 
    217 H217       -1.6683  -18.2381  -56.3362 H         1 UNK         0.0600 
    218 H218       -0.1806  -17.9441  -55.4464 H         1 UNK         0.0600 
    219 H219       -1.7065  -18.0752  -54.5861 H         1 UNK         0.0600 
    220 H220       -1.1560  -22.4417  -54.7252 H         1 UNK         0.3000 
    221 H221       -2.5324  -24.1156  -54.9068 H         1 UNK         0.0600 
    222 H222       -4.2448  -22.4538  -56.8279 H         1 UNK         0.0600 
    223 H223       -2.8168  -23.3818  -57.2858 H         1 UNK         0.0600 
    224 H224       -4.2407  -24.2026  -56.6720 H         1 UNK         0.0600 
    225 H225       -3.4669  -21.4575  -53.2932 H         1 UNK         0.3000 
    226 H226       -4.7223  -21.0375  -51.5270 H         1 UNK         0.0600 
    227 H227       -4.3089  -23.3080  -50.6856 H         1 UNK         0.0600 
    228 H228       -5.9245  -22.7715  -50.2690 H         1 UNK         0.0600 
    229 H229       -5.7002  -23.9299  -51.5685 H         1 UNK         0.0600 
    230 H230       -6.6417  -23.0054  -53.8091 H         1 UNK         0.3000 
    231 H231       -9.1582  -21.7762  -53.2462 H         1 UNK         0.0600 
    232 H232       -8.9462  -24.0461  -54.2164 H         1 UNK         0.0600 
    233 H233       -8.2199  -23.3865  -55.6815 H         1 UNK         0.0600 
    234 H234       -9.8971  -23.0268  -55.2855 H         1 UNK         0.0600 
    235 H235       -6.6016  -20.9477  -55.5618 H         1 UNK         0.3000 
    236 H236       -8.2528  -19.0660  -57.0649 H         1 UNK         0.0600 
    237 H237       -6.1442  -18.5961  -58.2732 H         1 UNK         0.0600 
    238 H238       -5.2361  -19.5737  -57.1305 H         1 UNK         0.0600 
    239 H239       -6.4338  -20.3266  -58.1807 H         1 UNK         0.0600 
    240 H240       -5.6615  -18.8508  -54.5747 H         1 UNK         0.3000 
    241 H241       -5.7727  -15.9487  -54.5230 H         1 UNK         0.0600 
    242 H242       -8.1356  -17.3037  -51.4946 H         1 UNK         0.3800 
    243 H243       -7.3429  -18.4901  -52.4963 H         1 UNK         0.3800 
    244 H244       -3.6122  -16.8442  -54.2545 H         1 UNK         0.0800 
    245 H245       -4.0487  -16.1293  -52.7339 H         1 UNK         0.0800 
    246 H246       -1.6610  -17.6655  -52.3149 H         1 UNK         0.0800 
    247 H247       -1.9183  -19.0859  -51.3376 H         1 UNK         0.0800 
@<TRIPOS>BOND
     1    1    2 1    
     2    1  127 1    
     3    1  128 1    
     4    1  129 1    
     5    2    3 2    
     6    2    4 am   BACKBONE|DICT|INTERRES
     7    4    5 1    
     8    4  130 1    
     9    5    6 1    
    10    5   65 1    
    11    5  131 1    
    12    6    7 1    
    13    6  132 1    
    14    6  133 1    
    15    7    8 1    
    16    8    9 1    
    17    8  134 1    
    18    8  135 1    
    19    9   10 ar   
    20    9   14 ar   
    21   10   11 ar   
    22   10  136 1    
    23   11   12 ar   
    24   11  126 1    
    25   12   13 ar   
    26   12  137 1    
    27   13   14 ar   
    28   13   15 1    
    29   14  138 1    
    30   15   16 1    
    31   15  139 1    
    32   15  140 1    
    33   16   17 1    
    34   17   18 1    
    35   17  141 1    
    36   17  142 1    
    37   18   19 1    
    38   18   67 1    
    39   18  143 1    
    40   19   20 am   BACKBONE|DICT|INTERRES
    41   19  144 1    
    42   20   21 2    
    43   20   22 1    
    44   22   23 1    
    45   22   24 1    
    46   22  145 1    
    47   23  146 1    
    48   23  147 1    
    49   23  148 1    
    50   24   25 am   BACKBONE|DICT|INTERRES
    51   24  149 1    
    52   25   26 2    
    53   25   27 1    
    54   27   28 1    
    55   27   29 1    
    56   27  150 1    
    57   28  151 1    
    58   28  152 1    
    59   28  153 1    
    60   29   30 am   BACKBONE|DICT|INTERRES
    61   29  154 1    
    62   30   31 2    
    63   30   32 1    
    64   32   33 1    
    65   32   34 1    
    66   32  155 1    
    67   33  156 1    
    68   33  157 1    
    69   33  158 1    
    70   34   35 am   BACKBONE|DICT|INTERRES
    71   34  159 1    
    72   35   36 2    
    73   35   37 1    
    74   37   38 1    
    75   37   39 1    
    76   37  160 1    
    77   38  161 1    
    78   38  162 1    
    79   38  163 1    
    80   39   40 am   BACKBONE|DICT|INTERRES
    81   39  164 1    
    82   40   41 2    
    83   40   42 1    
    84   42   43 1    
    85   42   44 1    
    86   42  165 1    
    87   43  166 1    
    88   43  167 1    
    89   43  168 1    
    90   44   45 am   BACKBONE|DICT|INTERRES
    91   44  169 1    
    92   45   46 2    
    93   45   47 1    
    94   47   48 1    
    95   47   49 1    
    96   47  170 1    
    97   48  171 1    
    98   48  172 1    
    99   48  173 1    
   100   49   50 am   BACKBONE|DICT|INTERRES
   101   49  174 1    
   102   50   51 2    
   103   50   52 1    
   104   52   53 1    
   105   52   54 1    
   106   52  175 1    
   107   53  176 1    
   108   53  177 1    
   109   53  178 1    
   110   54   55 am   BACKBONE|DICT|INTERRES
   111   54  179 1    
   112   55   56 2    
   113   55   57 1    
   114   57   58 1    
   115   57   59 1    
   116   57  180 1    
   117   58  181 1    
   118   58  182 1    
   119   58  183 1    
   120   59   60 am   BACKBONE|DICT|INTERRES
   121   59  184 1    
   122   60   61 2    
   123   60   62 1    
   124   62   63 1    
   125   62   64 1    
   126   62  185 1    
   127   63  186 1    
   128   63  187 1    
   129   63  188 1    
   130   64   65 am   BACKBONE|DICT|INTERRES
   131   64  189 1    
   132   65   66 2    
   133   67   68 2    
   134   67   69 am   BACKBONE|DICT|INTERRES
   135   69   70 1    
   136   69  190 1    
   137   70   71 1    
   138   70   72 1    
   139   70  191 1    
   140   71  192 1    
   141   71  193 1    
   142   71  194 1    
   143   72   73 2    
   144   72   74 am   BACKBONE|DICT|INTERRES
   145   74   75 1    
   146   74  195 1    
   147   75   76 1    
   148   75   77 1    
   149   75  196 1    
   150   76  197 1    
   151   76  198 1    
   152   76  199 1    
   153   77   78 2    
   154   77   79 am   BACKBONE|DICT|INTERRES
   155   79   80 1    
   156   79  200 1    
   157   80   81 1    
   158   80   82 1    
   159   80  201 1    
   160   81  202 1    
   161   81  203 1    
   162   81  204 1    
   163   82   83 2    
   164   82   84 am   BACKBONE|DICT|INTERRES
   165   84   85 1    
   166   84  205 1    
   167   85   86 1    
   168   85   87 1    
   169   85  206 1    
   170   86  207 1    
   171   86  208 1    
   172   86  209 1    
   173   87   88 2    
   174   87   89 am   BACKBONE|DICT|INTERRES
   175   89   90 1    
   176   89  210 1    
   177   90   91 1    
   178   90   92 1    
   179   90  211 1    
   180   91  212 1    
   181   91  213 1    
   182   91  214 1    
   183   92   93 2    
   184   92   94 am   BACKBONE|DICT|INTERRES
   185   94   95 1    
   186   94  215 1    
   187   95   96 1    
   188   95   97 1    
   189   95  216 1    
   190   96  217 1    
   191   96  218 1    
   192   96  219 1    
   193   97   98 2    
   194   97   99 am   BACKBONE|DICT|INTERRES
   195   99  100 1    
   196   99  220 1    
   197  100  101 1    
   198  100  102 1    
   199  100  221 1    
   200  101  222 1    
   201  101  223 1    
   202  101  224 1    
   203  102  103 2    
   204  102  104 am   BACKBONE|DICT|INTERRES
   205  104  105 1    
   206  104  225 1    
   207  105  106 1    
   208  105  107 1    
   209  105  226 1    
   210  106  227 1    
   211  106  228 1    
   212  106  229 1    
   213  107  108 2    
   214  107  109 am   BACKBONE|DICT|INTERRES
   215  109  110 1    
   216  109  230 1    
   217  110  111 1    
   218  110  112 1    
   219  110  231 1    
   220  111  232 1    
   221  111  233 1    
   222  111  234 1    
   223  112  113 2    
   224  112  114 am   BACKBONE|DICT|INTERRES
   225  114  115 1    
   226  114  235 1    
   227  115  116 1    
   228  115  117 1    
   229  115  236 1    
   230  116  237 1    
   231  116  238 1    
   232  116  239 1    
   233  117  118 2    
   234  117  119 am   BACKBONE|DICT|INTERRES
   235  119  120 1    
   236  119  240 1    
   237  120  121 1    
   238  120  124 1    
   239  120  241 1    
   240  121  122 am   BACKBONE|DICT|INTERRES
   241  121  123 2    
   242  122  242 1    
   243  122  243 1    
   244  124  125 1    
   245  124  244 1    
   246  124  245 1    
   247  125  126 1    
   248  126  246 1    
   249  126  247 1    
@<TRIPOS>SUBSTRUCTURE
     1 UNK         1 GROUP             0       ****    0 ROOT    
