@<TRIPOS>MOLECULE
3R540
247   249    1
SMALL
USER_CHARGES


@<TRIPOS>ATOM
      1 CA          4.4041  -17.7698  -45.7490 C.3       0 UNK        -0.1800 
      2 C           3.7309  -16.4065  -45.7786 C.2       0 UNK         0.5000 
      3 O           3.7093  -15.7130  -44.7645 O.2       0 UNK        -0.5000 
      4 N           3.2036  -16.0086  -46.9428 N.am      1 UNK        -0.5000 
      5 CA          2.4236  -14.7844  -47.1915 C.3       1 UNK         0.1400 
      6 C6          1.9029  -14.7345  -48.6493 C.3       23 UNK        -0.0398 
      7 S7          3.2284  -14.9441  -49.8931 S.3       23 UNK        -0.2404 
      8 C8          2.3087  -15.5679  -51.3354 C.3       23 UNK        -0.0205 
      9 C9          1.5980  -16.8884  -51.0683 C.ar      23 UNK        -0.0193 
     10 C10         0.2034  -16.9539  -51.1314 C.ar      23 UNK        -0.1150 
     11 C11        -0.4631  -18.1679  -50.9422 C.ar      23 UNK        -0.0193 
     12 C12         0.2772  -19.3163  -50.6500 C.ar      23 UNK        -0.1150 
     13 C13         1.6717  -19.2623  -50.5632 C.ar      23 UNK        -0.0193 
     14 C14         2.3278  -18.0476  -50.7860 C.ar      23 UNK        -0.1150 
     15 C15         2.4659  -20.5232  -50.2498 C.3       23 UNK        -0.0205 
     16 S16         3.2309  -20.4963  -48.5928 S.3       23 UNK        -0.2404 
     17 C17         1.8063  -20.2460  -47.4800 C.3       23 UNK        -0.0398 
     18 CA          1.2076  -21.5571  -46.9129 C.3       11 UNK         0.1400 
     19 N           0.4734  -21.3138  -45.6686 N.am      11 UNK        -0.5000 
     20 C          -0.0832  -22.2522  -44.8898 C.2       10 UNK         0.5000 
     21 O           0.0354  -23.4625  -45.0829 O.2       10 UNK        -0.5000 
     22 CA         -0.9724  -21.7457  -43.7375 C.3       10 UNK         0.1400 
     23 CB         -0.1275  -21.3381  -42.5214 C.3       10 UNK        -0.1800 
     24 N          -1.8242  -20.6268  -44.1527 N.am      10 UNK        -0.5000 
     25 C          -2.8339  -20.7428  -45.0277 C.2       9 UNK         0.5000 
     26 O          -3.1907  -21.8175  -45.5084 O.2       9 UNK        -0.5000 
     27 CA         -3.5345  -19.4471  -45.4802 C.3       9 UNK         0.1400 
     28 CB         -4.6569  -19.0584  -44.5079 C.3       9 UNK        -0.1800 
     29 N          -2.6112  -18.3239  -45.6374 N.am      9 UNK        -0.5000 
     30 C          -1.6390  -18.2651  -46.5585 C.2       8 UNK         0.5000 
     31 O          -1.4584  -19.1284  -47.4131 O.2       8 UNK        -0.5000 
     32 CA         -0.6698  -17.0726  -46.4736 C.3       8 UNK         0.1400 
     33 CB         -1.2818  -15.8446  -47.1657 C.3       8 UNK        -0.1800 
     34 N          -0.3091  -16.7594  -45.0869 N.am      8 UNK        -0.5000 
     35 C           0.3316  -17.6063  -44.2656 C.2       7 UNK         0.5000 
     36 O           0.7781  -18.6911  -44.6336 O.2       7 UNK        -0.5000 
     37 CA          0.4357  -17.2280  -42.7783 C.3       7 UNK         0.1400 
     38 CB          1.7331  -16.4814  -42.4774 C.3       7 UNK        -0.1800 
     39 N          -0.6927  -16.4144  -42.3419 N.am      7 UNK        -0.5000 
     40 C          -1.8838  -16.9143  -41.9930 C.2       6 UNK         0.5000 
     41 O          -2.1401  -18.1185  -41.9698 O.2       6 UNK        -0.5000 
     42 CA         -2.9799  -15.8874  -41.6543 C.3       6 UNK         0.1400 
     43 CB         -2.8624  -15.4289  -40.1931 C.3       6 UNK        -0.1800 
     44 N          -2.9417  -14.7173  -42.5349 N.am      6 UNK        -0.5000 
     45 C          -3.1873  -14.7633  -43.8509 C.2       5 UNK         0.5000 
     46 O          -3.4984  -15.7931  -44.4490 O.2       5 UNK        -0.5000 
     47 CA         -3.0307  -13.4517  -44.6405 C.3       5 UNK         0.1400 
     48 CB         -4.3585  -12.6800  -44.6584 C.3       5 UNK        -0.1800 
     49 N          -1.9657  -12.5629  -44.1656 N.am      5 UNK        -0.5000 
     50 C          -0.6617  -12.8622  -44.0728 C.2       4 UNK         0.5000 
     51 O          -0.2063  -13.9916  -44.2651 O.2       4 UNK        -0.5000 
     52 CA          0.2737  -11.6733  -43.7690 C.3       4 UNK         0.1400 
     53 CB         -0.2472  -10.7764  -42.6232 C.3       4 UNK        -0.1800 
     54 N           1.6737  -12.0527  -43.5510 N.am      4 UNK        -0.5000 
     55 C           2.2138  -12.6761  -42.4933 C.2       3 UNK         0.5000 
     56 O           1.5603  -13.0826  -41.5311 O.2       3 UNK        -0.5000 
     57 CA          3.7521  -12.8342  -42.5034 C.3       3 UNK         0.1400 
     58 CB          4.2540  -14.0064  -41.6417 C.3       3 UNK        -0.1800 
     59 N           4.2758  -12.9863  -43.8616 N.am      3 UNK        -0.5000 
     60 C           4.8364  -12.0153  -44.5972 C.2       2 UNK         0.5000 
     61 O           5.0281  -10.8717  -44.1832 O.2       2 UNK        -0.5000 
     62 CA          5.2170  -12.3614  -46.0539 C.3       2 UNK         0.1400 
     63 CB          6.7086  -12.7152  -46.1498 C.3       2 UNK        -0.1800 
     64 N           4.4326  -13.4622  -46.6172 N.am      2 UNK        -0.5000 
     65 C           3.1040  -13.4531  -46.7947 C.2       1 UNK         0.5000 
     66 O           2.4075  -12.4523  -46.6162 O.2       1 UNK        -0.5000 
     67 C           0.3214  -22.2763  -47.9506 C.2       11 UNK         0.5000 
     68 O           0.7495  -23.2733  -48.5306 O.2       11 UNK        -0.5000 
     69 N          -0.9161  -21.7897  -48.1245 N.am      12 UNK        -0.5000 
     70 CA         -1.9368  -22.3833  -48.9839 C.3       12 UNK         0.1400 
     71 CB         -3.1897  -21.5001  -49.0015 C.3       12 UNK        -0.1800 
     72 C          -2.3020  -23.8146  -48.5653 C.2       12 UNK         0.5000 
     73 O          -2.3435  -24.6929  -49.4226 O.2       12 UNK        -0.5000 
     74 N          -2.5127  -24.0375  -47.2606 N.am      13 UNK        -0.5000 
     75 CA         -2.7995  -25.3517  -46.6838 C.3       13 UNK         0.1400 
     76 CB         -3.1184  -25.2046  -45.1886 C.3       13 UNK        -0.1800 
     77 C          -1.6629  -26.3666  -46.9093 C.2       13 UNK         0.5000 
     78 O          -1.9405  -27.5170  -47.2495 O.2       13 UNK        -0.5000 
     79 N          -0.4090  -25.9137  -46.7668 N.am      14 UNK        -0.5000 
     80 CA          0.7933  -26.6977  -47.0573 C.3       14 UNK         0.1400 
     81 CB          2.0275  -25.9577  -46.5192 C.3       14 UNK        -0.1800 
     82 C           0.9533  -27.0171  -48.5577 C.2       14 UNK         0.5000 
     83 O           1.3606  -28.1268  -48.9029 O.2       14 UNK        -0.5000 
     84 N           0.6100  -26.0508  -49.4197 N.am      15 UNK        -0.5000 
     85 CA          0.6349  -26.1712  -50.8799 C.3       15 UNK         0.1400 
     86 CB          0.6566  -24.7585  -51.4873 C.3       15 UNK        -0.1800 
     87 C          -0.5407  -26.9842  -51.4638 C.2       15 UNK         0.5000 
     88 O          -0.4928  -27.3338  -52.6439 O.2       15 UNK        -0.5000 
     89 N          -1.5721  -27.2465  -50.6471 N.am      16 UNK        -0.5000 
     90 CA         -2.8681  -27.8398  -50.9977 C.3       16 UNK         0.1400 
     91 CB         -2.7084  -29.2921  -51.4943 C.3       16 UNK        -0.1800 
     92 C          -3.6805  -26.9428  -51.9592 C.2       16 UNK         0.5000 
     93 O          -4.3105  -27.4353  -52.8973 O.2       16 UNK        -0.5000 
     94 N          -3.6397  -25.6337  -51.6953 N.am      17 UNK        -0.5000 
     95 CA         -4.3399  -24.5686  -52.4055 C.3       17 UNK         0.1400 
     96 CB         -3.2814  -23.5908  -52.9428 C.3       17 UNK        -0.1800 
     97 C          -5.3182  -23.8594  -51.4483 C.2       17 UNK         0.5000 
     98 O          -5.4511  -24.2597  -50.2885 O.2       17 UNK        -0.5000 
     99 N          -5.9836  -22.8091  -51.9418 N.am      18 UNK        -0.5000 
    100 CA        -6.8354  -21.9238  -51.1474 C.3       18 UNK         0.1400 
    101 CB        -8.1447  -21.6799  -51.9119 C.3       18 UNK        -0.1800 
    102 C         -6.1071  -20.5927  -50.9100 C.2       18 UNK         0.5000 
    103 O         -5.2394  -20.2192  -51.6987 O.2       18 UNK        -0.5000 
    104 N         -6.4914  -19.8667  -49.8534 N.am      19 UNK        -0.5000 
    105 CA        -5.9207  -18.5557  -49.5174 C.3       19 UNK         0.1400 
    106 CB        -6.3814  -18.1551  -48.1075 C.3       19 UNK        -0.1800 
    107 C         -6.2707  -17.4514  -50.5393 C.2       19 UNK         0.5000 
    108 O         -5.5438  -16.4631  -50.6358 O.2       19 UNK        -0.5000 
    109 N         -7.3727  -17.6435  -51.2773 N.am      20 UNK        -0.5000 
    110 CA        -7.8617  -16.7472  -52.3266 C.3       20 UNK         0.1400 
    111 CB        -9.3847  -16.6063  -52.1642 C.3       20 UNK        -0.1800 
    112 C         -7.5153  -17.2400  -53.7479 C.2       20 UNK         0.5000 
    113 O         -7.8293  -16.5418  -54.7131 O.2       20 UNK        -0.5000 
    114 N         -6.8984  -18.4221  -53.8708 N.am      21 UNK        -0.5000 
    115 CA        -6.5352  -19.0553  -55.1361 C.3       21 UNK         0.1400 
    116 CB        -7.7390  -19.8127  -55.7298 C.3       21 UNK        -0.1800 
    117 C         -5.3219  -19.9526  -54.8696 C.2       21 UNK         0.5000 
    118 O         -5.4637  -21.1672  -54.7111 O.2       21 UNK        -0.5000 
    119 N         -4.1613  -19.3013  -54.7451 N.am      22 UNK        -0.5000 
    120 CA        -2.8870  -19.8852  -54.2949 C.3       22 UNK         0.1400 
    121 C         -2.2030  -20.8633  -55.2969 C.2       22 UNK         0.5000 
    122 N         -2.6821  -21.0083  -56.5259 N.am      22 UNK        -0.7600 
    123 O         -1.2158  -21.5053  -54.9507 O.2       22 UNK        -0.5000 
    124 C124       -1.8898  -18.7848  -53.8460 C.3       23 UNK        -0.0398 
    125 S125       -2.5990  -17.5971  -52.6491 S.3       23 UNK        -0.2404 
    126 C126       -1.9800  -18.2458  -51.0635 C.3       23 UNK        -0.0205 
    127 H127        5.4244  -17.6771  -45.3772 H         1 UNK         0.0600 
    128 H128        4.4425  -18.2245  -46.7390 H         1 UNK         0.0600 
    129 H129        3.8569  -18.4396  -45.0854 H         1 UNK         0.0600 
    130 H130        3.3098  -16.6051  -47.7512 H         1 UNK         0.3000 
    131 H131        1.5559  -14.8555  -46.5342 H         1 UNK         0.0600 
    132 H132        1.3646  -13.8064  -48.8505 H         1 UNK         0.0800 
    133 H133        1.1702  -15.5297  -48.7797 H         1 UNK         0.0800 
    134 H134        1.6004  -14.8032  -51.6580 H         1 UNK         0.0800 
    135 H135        3.0058  -15.7050  -52.1630 H         1 UNK         0.0800 
    136 H136       -0.3681  -16.0640  -51.3550 H         1 UNK         0.1150 
    137 H137       -0.2332  -20.2556  -50.4933 H         1 UNK         0.1150 
    138 H138        3.4067  -18.0033  -50.7344 H         1 UNK         0.1150 
    139 H139        1.8376  -21.4099  -50.3432 H         1 UNK         0.0800 
    140 H140        3.2546  -20.6379  -50.9945 H         1 UNK         0.0800 
    141 H141        1.0474  -19.6271  -47.9564 H         1 UNK         0.0800 
    142 H142        2.1866  -19.6415  -46.6568 H         1 UNK         0.0800 
    143 H143        2.0298  -22.2296  -46.6594 H         1 UNK         0.0600 
    144 H144        0.3773  -20.3410  -45.3881 H         1 UNK         0.3000 
    145 H145       -1.6233  -22.5678  -43.4326 H         1 UNK         0.0600 
    146 H146        0.4376  -22.1899  -42.1413 H         1 UNK         0.0600 
    147 H147        0.5906  -20.5565  -42.7667 H         1 UNK         0.0600 
    148 H148       -0.7553  -20.9739  -41.7078 H         1 UNK         0.0600 
    149 H149       -1.6024  -19.7134  -43.7816 H         1 UNK         0.3000 
    150 H150       -3.9847  -19.6429  -46.4549 H         1 UNK         0.0600 
    151 H151       -5.3777  -19.8696  -44.3992 H         1 UNK         0.0600 
    152 H152       -5.2015  -18.1842  -44.8656 H         1 UNK         0.0600 
    153 H153       -4.2691  -18.8266  -43.5158 H         1 UNK         0.0600 
    154 H154       -2.7417  -17.5327  -45.0141 H         1 UNK         0.3000 
    155 H155        0.2492  -17.3399  -46.9992 H         1 UNK         0.0600 
    156 H156       -2.3037  -15.6628  -46.8357 H         1 UNK         0.0600 
    157 H157       -0.7070  -14.9385  -46.9802 H         1 UNK         0.0600 
    158 H158       -1.3194  -15.9950  -48.2454 H         1 UNK         0.0600 
    159 H159       -0.5691  -15.8445  -44.7316 H         1 UNK         0.3000 
    160 H160        0.4490  -18.1543  -42.2006 H         1 UNK         0.0600 
    161 H161        1.7839  -15.5472  -43.0355 H         1 UNK         0.0600 
    162 H162        2.6012  -17.0837  -42.7471 H         1 UNK         0.0600 
    163 H163        1.8172  -16.2430  -41.4170 H         1 UNK         0.0600 
    164 H164       -0.5736  -15.4115  -42.3941 H         1 UNK         0.3000 
    165 H165       -3.9468  -16.3788  -41.7831 H         1 UNK         0.0600 
    166 H166       -3.6797  -14.7599  -39.9229 H         1 UNK         0.0600 
    167 H167       -2.9024  -16.2808  -39.5129 H         1 UNK         0.0600 
    168 H168       -1.9237  -14.9048  -40.0086 H         1 UNK         0.0600 
    169 H169       -2.6846  -13.8337  -42.1202 H         1 UNK         0.3000 
    170 H170       -2.7870  -13.7177  -45.6695 H         1 UNK         0.0600 
    171 H171       -5.1700  -13.3064  -45.0318 H         1 UNK         0.0600 
    172 H172       -4.6394  -12.3388  -43.6612 H         1 UNK         0.0600 
    173 H173       -4.3000  -11.8071  -45.3088 H         1 UNK         0.0600 
    174 H174       -2.2447  -11.6100  -43.9827 H         1 UNK         0.3000 
    175 H175        0.2849  -11.0686  -44.6769 H         1 UNK         0.0600 
    176 H176       -0.4344  -11.3464  -41.7126 H         1 UNK         0.0600 
    177 H177        0.4683   -9.9898  -42.3828 H         1 UNK         0.0600 
    178 H178       -1.1796  -10.2812  -42.8950 H         1 UNK         0.0600 
    179 H179        2.2909  -11.8399  -44.3232 H         1 UNK         0.3000 
    180 H180        4.1458  -11.9202  -42.0550 H         1 UNK         0.0600 
    181 H181        3.9715  -14.9687  -42.0647 H         1 UNK         0.0600 
    182 H182        3.8590  -13.9578  -40.6264 H         1 UNK         0.0600 
    183 H183        5.3411  -13.9910  -41.5637 H         1 UNK         0.0600 
    184 H184        4.1280  -13.9001  -44.2852 H         1 UNK         0.3000 
    185 H185        5.0330  -11.4736  -46.6622 H         1 UNK         0.0600 
    186 H186        7.3282  -11.9045  -45.7641 H         1 UNK         0.0600 
    187 H187        6.9463  -13.6119  -45.5760 H         1 UNK         0.0600 
    188 H188        7.0080  -12.8877  -47.1838 H         1 UNK         0.0600 
    189 H189        4.9210  -14.3311  -46.7770 H         1 UNK         0.3000 
    190 H190       -1.1698  -20.9219  -47.6574 H         1 UNK         0.3000 
    191 H191       -1.5291  -22.4178  -49.9958 H         1 UNK         0.0600 
    192 H192       -3.7316  -21.5327  -48.0575 H         1 UNK         0.0600 
    193 H193       -3.8708  -21.8431  -49.7769 H         1 UNK         0.0600 
    194 H194       -2.9518  -20.4595  -49.2075 H         1 UNK         0.0600 
    195 H195       -2.5115  -23.2477  -46.6213 H         1 UNK         0.3000 
    196 H196       -3.6903  -25.7390  -47.1827 H         1 UNK         0.0600 
    197 H197       -3.3678  -26.1697  -44.7461 H         1 UNK         0.0600 
    198 H198       -3.9712  -24.5441  -45.0311 H         1 UNK         0.0600 
    199 H199       -2.2737  -24.7973  -44.6333 H         1 UNK         0.0600 
    200 H200       -0.2684  -24.9609  -46.4453 H         1 UNK         0.3000 
    201 H201        0.7106  -27.6471  -46.5242 H         1 UNK         0.0600 
    202 H202        1.9475  -25.7882  -45.4453 H         1 UNK         0.0600 
    203 H203        2.1595  -24.9883  -47.0001 H         1 UNK         0.0600 
    204 H204        2.9357  -26.5364  -46.6916 H         1 UNK         0.0600 
    205 H205        0.3494  -25.1416  -49.0487 H         1 UNK         0.3000 
    206 H206        1.5573  -26.6792  -51.1683 H         1 UNK         0.0600 
    207 H207        1.5136  -24.1873  -51.1299 H         1 UNK         0.0600 
    208 H208        0.7238  -24.7984  -52.5752 H         1 UNK         0.0600 
    209 H209       -0.2458  -24.2005  -51.2360 H         1 UNK         0.0600 
    210 H210       -1.5172  -26.8584  -49.7142 H         1 UNK         0.3000 
    211 H211       -3.4383  -27.8756  -50.0682 H         1 UNK         0.0600 
    212 H212       -2.2099  -29.3407  -52.4626 H         1 UNK         0.0600 
    213 H213       -3.6806  -29.7734  -51.6054 H         1 UNK         0.0600 
    214 H214       -2.1304  -29.8881  -50.7881 H         1 UNK         0.0600 
    215 H215       -3.1492  -25.3314  -50.8533 H         1 UNK         0.3000 
    216 H216       -4.9144  -24.9736  -53.2406 H         1 UNK         0.0600 
    217 H217       -3.7350  -22.8399  -53.5872 H         1 UNK         0.0600 
    218 H218       -2.5296  -24.1089  -53.5388 H         1 UNK         0.0600 
    219 H219       -2.7648  -23.0687  -52.1365 H         1 UNK         0.0600 
    220 H220       -5.7637  -22.4735  -52.8733 H         1 UNK         0.3000 
    221 H221       -7.0736  -22.3701  -50.1797 H         1 UNK         0.0600 
    222 H222       -7.9637  -21.1887  -52.8668 H         1 UNK         0.0600 
    223 H223       -8.6637  -22.6175  -52.1117 H         1 UNK         0.0600 
    224 H224       -8.8250  -21.0482  -51.3398 H         1 UNK         0.0600 
    225 H225       -7.2133  -20.2187  -49.2408 H         1 UNK         0.3000 
    226 H226       -4.8329  -18.6544  -49.5031 H         1 UNK         0.0600 
    227 H227       -6.1170  -18.9153  -47.3731 H         1 UNK         0.0600 
    228 H228       -5.9096  -17.2231  -47.7931 H         1 UNK         0.0600 
    229 H229       -7.4613  -18.0086  -48.0637 H         1 UNK         0.0600 
    230 H230       -7.9160  -18.4775  -51.1115 H         1 UNK         0.3000 
    231 H231       -7.4165  -15.7568  -52.2121 H         1 UNK         0.0600 
    232 H232       -9.7961  -15.9102  -52.8963 H         1 UNK         0.0600 
    233 H233       -9.6414  -16.2232  -51.1764 H         1 UNK         0.0600 
    234 H234       -9.8941  -17.5616  -52.2970 H         1 UNK         0.0600 
    235 H235       -6.5788  -18.9024  -53.0385 H         1 UNK         0.3000 
    236 H236       -6.2274  -18.2911  -55.8533 H         1 UNK         0.0600 
    237 H237       -8.5617  -19.1333  -55.9527 H         1 UNK         0.0600 
    238 H238       -7.4637  -20.3051  -56.6630 H         1 UNK         0.0600 
    239 H239       -8.1152  -20.5802  -55.0549 H         1 UNK         0.0600 
    240 H240       -4.1582  -18.2979  -54.8537 H         1 UNK         0.3000 
    241 H241       -3.1153  -20.4848  -53.4122 H         1 UNK         0.0600 
    242 H242       -3.4991  -20.4985  -56.8204 H         1 UNK         0.3800 
    243 H243       -2.2314  -21.6468  -57.1622 H         1 UNK         0.3800 
    244 H244       -0.9925  -19.2353  -53.4192 H         1 UNK         0.0800 
    245 H245       -1.5509  -18.2131  -54.7114 H         1 UNK         0.0800 
    246 H246       -2.4330  -17.6872  -50.2434 H         1 UNK         0.0800 
    247 H247       -2.3243  -19.2751  -50.9717 H         1 UNK         0.0800 
@<TRIPOS>BOND
     1    1    2 1    
     2    1  127 1    
     3    1  128 1    
     4    1  129 1    
     5    2    3 2    
     6    2    4 am   BACKBONE|DICT|INTERRES
     7    4    5 1    
     8    4  130 1    
     9    5    6 1    
    10    5   65 1    
    11    5  131 1    
    12    6    7 1    
    13    6  132 1    
    14    6  133 1    
    15    7    8 1    
    16    8    9 1    
    17    8  134 1    
    18    8  135 1    
    19    9   10 ar   
    20    9   14 ar   
    21   10   11 ar   
    22   10  136 1    
    23   11   12 ar   
    24   11  126 1    
    25   12   13 ar   
    26   12  137 1    
    27   13   14 ar   
    28   13   15 1    
    29   14  138 1    
    30   15   16 1    
    31   15  139 1    
    32   15  140 1    
    33   16   17 1    
    34   17   18 1    
    35   17  141 1    
    36   17  142 1    
    37   18   19 1    
    38   18   67 1    
    39   18  143 1    
    40   19   20 am   BACKBONE|DICT|INTERRES
    41   19  144 1    
    42   20   21 2    
    43   20   22 1    
    44   22   23 1    
    45   22   24 1    
    46   22  145 1    
    47   23  146 1    
    48   23  147 1    
    49   23  148 1    
    50   24   25 am   BACKBONE|DICT|INTERRES
    51   24  149 1    
    52   25   26 2    
    53   25   27 1    
    54   27   28 1    
    55   27   29 1    
    56   27  150 1    
    57   28  151 1    
    58   28  152 1    
    59   28  153 1    
    60   29   30 am   BACKBONE|DICT|INTERRES
    61   29  154 1    
    62   30   31 2    
    63   30   32 1    
    64   32   33 1    
    65   32   34 1    
    66   32  155 1    
    67   33  156 1    
    68   33  157 1    
    69   33  158 1    
    70   34   35 am   BACKBONE|DICT|INTERRES
    71   34  159 1    
    72   35   36 2    
    73   35   37 1    
    74   37   38 1    
    75   37   39 1    
    76   37  160 1    
    77   38  161 1    
    78   38  162 1    
    79   38  163 1    
    80   39   40 am   BACKBONE|DICT|INTERRES
    81   39  164 1    
    82   40   41 2    
    83   40   42 1    
    84   42   43 1    
    85   42   44 1    
    86   42  165 1    
    87   43  166 1    
    88   43  167 1    
    89   43  168 1    
    90   44   45 am   BACKBONE|DICT|INTERRES
    91   44  169 1    
    92   45   46 2    
    93   45   47 1    
    94   47   48 1    
    95   47   49 1    
    96   47  170 1    
    97   48  171 1    
    98   48  172 1    
    99   48  173 1    
   100   49   50 am   BACKBONE|DICT|INTERRES
   101   49  174 1    
   102   50   51 2    
   103   50   52 1    
   104   52   53 1    
   105   52   54 1    
   106   52  175 1    
   107   53  176 1    
   108   53  177 1    
   109   53  178 1    
   110   54   55 am   BACKBONE|DICT|INTERRES
   111   54  179 1    
   112   55   56 2    
   113   55   57 1    
   114   57   58 1    
   115   57   59 1    
   116   57  180 1    
   117   58  181 1    
   118   58  182 1    
   119   58  183 1    
   120   59   60 am   BACKBONE|DICT|INTERRES
   121   59  184 1    
   122   60   61 2    
   123   60   62 1    
   124   62   63 1    
   125   62   64 1    
   126   62  185 1    
   127   63  186 1    
   128   63  187 1    
   129   63  188 1    
   130   64   65 am   BACKBONE|DICT|INTERRES
   131   64  189 1    
   132   65   66 2    
   133   67   68 2    
   134   67   69 am   BACKBONE|DICT|INTERRES
   135   69   70 1    
   136   69  190 1    
   137   70   71 1    
   138   70   72 1    
   139   70  191 1    
   140   71  192 1    
   141   71  193 1    
   142   71  194 1    
   143   72   73 2    
   144   72   74 am   BACKBONE|DICT|INTERRES
   145   74   75 1    
   146   74  195 1    
   147   75   76 1    
   148   75   77 1    
   149   75  196 1    
   150   76  197 1    
   151   76  198 1    
   152   76  199 1    
   153   77   78 2    
   154   77   79 am   BACKBONE|DICT|INTERRES
   155   79   80 1    
   156   79  200 1    
   157   80   81 1    
   158   80   82 1    
   159   80  201 1    
   160   81  202 1    
   161   81  203 1    
   162   81  204 1    
   163   82   83 2    
   164   82   84 am   BACKBONE|DICT|INTERRES
   165   84   85 1    
   166   84  205 1    
   167   85   86 1    
   168   85   87 1    
   169   85  206 1    
   170   86  207 1    
   171   86  208 1    
   172   86  209 1    
   173   87   88 2    
   174   87   89 am   BACKBONE|DICT|INTERRES
   175   89   90 1    
   176   89  210 1    
   177   90   91 1    
   178   90   92 1    
   179   90  211 1    
   180   91  212 1    
   181   91  213 1    
   182   91  214 1    
   183   92   93 2    
   184   92   94 am   BACKBONE|DICT|INTERRES
   185   94   95 1    
   186   94  215 1    
   187   95   96 1    
   188   95   97 1    
   189   95  216 1    
   190   96  217 1    
   191   96  218 1    
   192   96  219 1    
   193   97   98 2    
   194   97   99 am   BACKBONE|DICT|INTERRES
   195   99  100 1    
   196   99  220 1    
   197  100  101 1    
   198  100  102 1    
   199  100  221 1    
   200  101  222 1    
   201  101  223 1    
   202  101  224 1    
   203  102  103 2    
   204  102  104 am   BACKBONE|DICT|INTERRES
   205  104  105 1    
   206  104  225 1    
   207  105  106 1    
   208  105  107 1    
   209  105  226 1    
   210  106  227 1    
   211  106  228 1    
   212  106  229 1    
   213  107  108 2    
   214  107  109 am   BACKBONE|DICT|INTERRES
   215  109  110 1    
   216  109  230 1    
   217  110  111 1    
   218  110  112 1    
   219  110  231 1    
   220  111  232 1    
   221  111  233 1    
   222  111  234 1    
   223  112  113 2    
   224  112  114 am   BACKBONE|DICT|INTERRES
   225  114  115 1    
   226  114  235 1    
   227  115  116 1    
   228  115  117 1    
   229  115  236 1    
   230  116  237 1    
   231  116  238 1    
   232  116  239 1    
   233  117  118 2    
   234  117  119 am   BACKBONE|DICT|INTERRES
   235  119  120 1    
   236  119  240 1    
   237  120  121 1    
   238  120  124 1    
   239  120  241 1    
   240  121  122 am   BACKBONE|DICT|INTERRES
   241  121  123 2    
   242  122  242 1    
   243  122  243 1    
   244  124  125 1    
   245  124  244 1    
   246  124  245 1    
   247  125  126 1    
   248  126  246 1    
   249  126  247 1    
@<TRIPOS>SUBSTRUCTURE
     1 UNK         1 GROUP             0       ****    0 ROOT    
