@<TRIPOS>MOLECULE
3R540
247   249    1
SMALL
USER_CHARGES


@<TRIPOS>ATOM
      1 CA         -1.1678  -11.4031  -44.3620 C.3       0 UNK        -0.1800 
      2 C          -0.6429  -11.6228  -45.7731 C.2       0 UNK         0.5000 
      3 O           0.1926  -10.8505  -46.2428 O.2       0 UNK        -0.5000 
      4 N          -1.1253  -12.6779  -46.4443 N.am      1 UNK        -0.5000 
      5 CA         -0.8222  -13.0229  -47.8426 C.3       1 UNK         0.1400 
      6 C6         -1.6799  -14.2208  -48.3278 C.3       23 UNK        -0.0398 
      7 S7         -2.2132  -14.0375  -50.0567 S.3       23 UNK        -0.2404 
      8 C8         -2.5604  -15.7680  -50.5040 C.3       23 UNK        -0.0205 
      9 C9         -1.3834  -16.4537  -51.1839 C.ar      23 UNK        -0.0193 
     10 C10        -0.8856  -15.9374  -52.3839 C.ar      23 UNK        -0.1150 
     11 C11         0.1338  -16.5944  -53.0746 C.ar      23 UNK        -0.0193 
     12 C12         0.6706  -17.7713  -52.5480 C.ar      23 UNK        -0.1150 
     13 C13         0.1586  -18.3207  -51.3703 C.ar      23 UNK        -0.0193 
     14 C14        -0.8551  -17.6477  -50.6776 C.ar      23 UNK        -0.1150 
     15 C15         0.6326  -19.6955  -50.9265 C.3       23 UNK        -0.0205 
     16 S16         2.1411  -19.6385  -49.9087 S.3       23 UNK        -0.2404 
     17 C17         1.4638  -19.8073  -48.2244 C.3       23 UNK        -0.0398 
     18 CA          1.4180  -21.2791  -47.7233 C.3       11 UNK         0.1400 
     19 N           1.3532  -21.3557  -46.2658 N.am      11 UNK        -0.5000 
     20 C           1.5355  -22.4612  -45.5315 C.2       10 UNK         0.5000 
     21 O           1.8472  -23.5548  -46.0023 O.2       10 UNK        -0.5000 
     22 CA          1.3182  -22.3236  -44.0105 C.3       10 UNK         0.1400 
     23 CB          2.6133  -21.8888  -43.3088 C.3       10 UNK        -0.1800 
     24 N           0.2365  -21.3958  -43.6709 N.am      10 UNK        -0.5000 
     25 C          -1.0502  -21.5948  -43.9901 C.2       9 UNK         0.5000 
     26 O          -1.4626  -22.6114  -44.5450 O.2       9 UNK        -0.5000 
     27 CA         -2.0353  -20.4507  -43.6933 C.3       9 UNK         0.1400 
     28 CB         -2.4616  -20.4580  -42.2185 C.3       9 UNK        -0.1800 
     29 N          -1.4927  -19.1407  -44.0502 N.am      9 UNK        -0.5000 
     30 C          -1.1818  -18.7623  -45.2981 C.2       8 UNK         0.5000 
     31 O          -1.3822  -19.4571  -46.2959 O.2       8 UNK        -0.5000 
     32 CA         -0.4780  -17.4012  -45.4492 C.3       8 UNK         0.1400 
     33 CB         -1.4981  -16.2563  -45.4138 C.3       8 UNK        -0.1800 
     34 N           0.5441  -17.1796  -44.4238 N.am      8 UNK        -0.5000 
     35 C           1.6462  -17.9299  -44.2789 C.2       7 UNK         0.5000 
     36 O           1.9435  -18.8500  -45.0361 O.2       7 UNK        -0.5000 
     37 CA          2.5421  -17.6400  -43.0637 C.3       7 UNK         0.1400 
     38 CB          3.4974  -16.4711  -43.3398 C.3       7 UNK        -0.1800 
     39 N           1.7557  -17.3682  -41.8628 N.am      7 UNK        -0.5000 
     40 C           1.0256  -18.2896  -41.2185 C.2       6 UNK         0.5000 
     41 O           0.9803  -19.4760  -41.5427 O.2       6 UNK        -0.5000 
     42 CA          0.1646  -17.7853  -40.0468 C.3       6 UNK         0.1400 
     43 CB          0.9919  -17.7193  -38.7546 C.3       6 UNK        -0.1800 
     44 N          -0.4216  -16.4713  -40.3174 N.am      6 UNK        -0.5000 
     45 C          -1.3454  -16.2361  -41.2603 C.2       5 UNK         0.5000 
     46 O          -1.8374  -17.1143  -41.9678 O.2       5 UNK        -0.5000 
     47 CA         -1.7391  -14.7654  -41.4862 C.3       5 UNK         0.1400 
     48 CB         -2.8487  -14.3432  -40.5124 C.3       5 UNK        -0.1800 
     49 N          -0.5989  -13.8540  -41.3545 N.am      5 UNK        -0.5000 
     50 C           0.4306  -13.8117  -42.2085 C.2       4 UNK         0.5000 
     51 O           0.5198  -14.5247  -43.2128 O.2       4 UNK        -0.5000 
     52 CA          1.5572  -12.8279  -41.8755 C.3       4 UNK         0.1400 
     53 CB          2.5736  -13.4607  -40.9089 C.3       4 UNK        -0.1800 
     54 N           2.2092  -12.4468  -43.1216 N.am      4 UNK        -0.5000 
     55 C           2.9224  -11.3353  -43.3282 C.2       3 UNK         0.5000 
     56 O           3.1758  -10.5229  -42.4373 O.2       3 UNK        -0.5000 
     57 CA          3.3919  -11.0400  -44.7688 C.3       3 UNK         0.1400 
     58 CB          4.9038  -10.7407  -44.8392 C.3       3 UNK        -0.1800 
     59 N           2.9851  -12.0387  -45.7682 N.am      3 UNK        -0.5000 
     60 C           3.4671  -13.2758  -45.9653 C.2       2 UNK         0.5000 
     61 O           4.3561  -13.7831  -45.2826 O.2       2 UNK        -0.5000 
     62 CA          2.8099  -14.0794  -47.1048 C.3       2 UNK         0.1400 
     63 CB          3.0676  -15.5929  -47.0126 C.3       2 UNK        -0.1800 
     64 N           1.3667  -13.8442  -47.1103 N.am      2 UNK        -0.5000 
     65 C           0.6788  -13.2743  -48.1073 C.2       1 UNK         0.5000 
     66 O           1.1797  -12.9215  -49.1754 O.2       1 UNK        -0.5000 
     67 C           0.2713  -22.0751  -48.3813 C.2       11 UNK         0.5000 
     68 O           0.5371  -23.0002  -49.1491 O.2       11 UNK        -0.5000 
     69 N          -0.9756  -21.6675  -48.1072 N.am      12 UNK        -0.5000 
     70 CA         -2.1563  -22.1330  -48.8308 C.3       12 UNK         0.1400 
     71 CB         -3.0988  -20.9431  -49.0822 C.3       12 UNK        -0.1800 
     72 C          -2.8731  -23.2754  -48.0988 C.2       12 UNK         0.5000 
     73 O          -2.9338  -24.3887  -48.6218 O.2       12 UNK        -0.5000 
     74 N          -3.4248  -22.9751  -46.9151 N.am      13 UNK        -0.5000 
     75 CA         -4.3355  -23.8496  -46.1711 C.3       13 UNK         0.1400 
     76 CB         -4.9072  -23.0943  -44.9613 C.3       13 UNK        -0.1800 
     77 C          -3.7073  -25.1852  -45.7384 C.2       13 UNK         0.5000 
     78 O          -4.3352  -26.2308  -45.9049 O.2       13 UNK        -0.5000 
     79 N          -2.4674  -25.1363  -45.2358 N.am      14 UNK        -0.5000 
     80 CA         -1.6949  -26.3059  -44.8081 C.3       14 UNK         0.1400 
     81 CB         -0.4563  -25.8371  -44.0333 C.3       14 UNK        -0.1800 
     82 C          -1.2830  -27.2248  -45.9748 C.2       14 UNK         0.5000 
     83 O          -1.1109  -28.4264  -45.7682 O.2       14 UNK        -0.5000 
     84 N          -1.1563  -26.6512  -47.1785 N.am      15 UNK        -0.5000 
     85 CA         -0.8977  -27.3716  -48.4257 C.3       15 UNK         0.1400 
     86 CB         -0.1391  -26.4366  -49.3819 C.3       15 UNK        -0.1800 
     87 C          -2.1912  -27.8886  -49.0890 C.2       15 UNK         0.5000 
     88 O          -2.1041  -28.6252  -50.0723 O.2       15 UNK        -0.5000 
     89 N          -3.3565  -27.4781  -48.5621 N.am      16 UNK        -0.5000 
     90 CA         -4.7084  -27.6948  -49.0874 C.3       16 UNK         0.1400 
     91 CB         -5.0885  -29.1893  -49.0366 C.3       16 UNK        -0.1800 
     92 C          -4.9175  -27.0590  -50.4797 C.2       16 UNK         0.5000 
     93 O          -5.6765  -27.5887  -51.2940 O.2       16 UNK        -0.5000 
     94 N          -4.2346  -25.9351  -50.7279 N.am      17 UNK        -0.5000 
     95 CA         -4.2902  -25.1727  -51.9696 C.3       17 UNK         0.1400 
     96 CB         -2.8678  -24.7076  -52.3176 C.3       17 UNK        -0.1800 
     97 C          -5.2230  -23.9634  -51.8077 C.2       17 UNK         0.5000 
     98 O          -5.3948  -23.4557  -50.6965 O.2       17 UNK        -0.5000 
     99 N          -5.7875  -23.5010  -52.9289 N.am      18 UNK        -0.5000 
    100 CA        -6.5819  -22.2782  -52.9965 C.3       18 UNK         0.1400 
    101 CB        -7.4337  -22.2902  -54.2753 C.3       18 UNK        -0.1800 
    102 C         -5.6548  -21.0536  -52.9668 C.2       18 UNK         0.5000 
    103 O         -4.8046  -20.9160  -53.8502 O.2       18 UNK        -0.5000 
    104 N         -5.8404  -20.1831  -51.9672 N.am      19 UNK        -0.5000 
    105 CA        -5.0501  -18.9674  -51.7536 C.3       19 UNK         0.1400 
    106 CB        -5.5025  -18.3045  -50.4436 C.3       19 UNK        -0.1800 
    107 C         -5.1340  -17.9732  -52.9266 C.2       19 UNK         0.5000 
    108 O         -4.1259  -17.3686  -53.2869 O.2       19 UNK        -0.5000 
    109 N         -6.3201  -17.8735  -53.5430 N.am      20 UNK        -0.5000 
    110 CA        -6.5879  -17.0443  -54.7216 C.3       20 UNK         0.1400 
    111 CB        -8.1033  -17.0175  -54.9733 C.3       20 UNK        -0.1800 
    112 C         -5.8400  -17.5030  -55.9912 C.2       20 UNK         0.5000 
    113 O         -5.6327  -16.6917  -56.8940 O.2       20 UNK        -0.5000 
    114 N         -5.4449  -18.7820  -56.0343 N.am      21 UNK        -0.5000 
    115 CA        -4.6583  -19.3880  -57.1084 C.3       21 UNK         0.1400 
    116 CB        -5.2506  -20.7734  -57.4178 C.3       21 UNK        -0.1800 
    117 C         -3.1654  -19.5059  -56.7383 C.2       21 UNK         0.5000 
    118 O         -2.4021  -20.0720  -57.5223 O.2       21 UNK        -0.5000 
    119 N         -2.7763  -18.9999  -55.5586 N.am      22 UNK        -0.5000 
    120 CA        -1.4433  -19.1388  -54.9499 C.3       22 UNK         0.1400 
    121 C         -1.0722  -20.6052  -54.5667 C.2       22 UNK         0.5000 
    122 N         -2.0348  -21.4695  -54.2693 N.am      22 UNK        -0.7600 
    123 O          0.0992  -20.9698  -54.5132 O.2       22 UNK        -0.5000 
    124 C124       -0.3194  -18.4056  -55.7439 C.3       23 UNK        -0.0398 
    125 S125       -0.5360  -16.5917  -55.7621 S.3       23 UNK        -0.2404 
    126 C126        0.5968  -16.0740  -54.4266 C.3       23 UNK        -0.0205 
    127 H127       -1.6615  -12.2932  -43.9714 H         1 UNK         0.0600 
    128 H128       -1.8850  -10.5826  -44.3551 H         1 UNK         0.0600 
    129 H129       -0.3508  -11.1434  -43.6899 H         1 UNK         0.0600 
    130 H130       -1.8175  -13.2570  -45.9922 H         1 UNK         0.3000 
    131 H131       -1.0975  -12.1384  -48.4216 H         1 UNK         0.0600 
    132 H132       -2.5944  -14.3017  -47.7386 H         1 UNK         0.0800 
    133 H133       -1.1590  -15.1720  -48.2002 H         1 UNK         0.0800 
    134 H134       -3.4023  -15.7734  -51.1967 H         1 UNK         0.0800 
    135 H135       -2.8843  -16.3223  -49.6221 H         1 UNK         0.0800 
    136 H136       -1.3213  -15.0405  -52.8014 H         1 UNK         0.1150 
    137 H137        1.4430  -18.2995  -53.0892 H         1 UNK         0.1150 
    138 H138       -1.2634  -18.0775  -49.7738 H         1 UNK         0.1150 
    139 H139       -0.1738  -20.2097  -50.4070 H         1 UNK         0.0800 
    140 H140        0.8413  -20.3052  -51.8071 H         1 UNK         0.0800 
    141 H141        0.4923  -19.3163  -48.1617 H         1 UNK         0.0800 
    142 H142        2.1264  -19.2256  -47.5835 H         1 UNK         0.0800 
    143 H143        2.3558  -21.7577  -48.0139 H         1 UNK         0.0600 
    144 H144        1.1930  -20.4811  -45.7761 H         1 UNK         0.3000 
    145 H145        1.0445  -23.3056  -43.6223 H         1 UNK         0.0600 
    146 H146        2.4797  -21.8415  -42.2279 H         1 UNK         0.0600 
    147 H147        3.4193  -22.5965  -43.5066 H         1 UNK         0.0600 
    148 H148        2.9480  -20.9090  -43.6478 H         1 UNK         0.0600 
    149 H149        0.4948  -20.5577  -43.1600 H         1 UNK         0.3000 
    150 H150       -2.9266  -20.6147  -44.3021 H         1 UNK         0.0600 
    151 H151       -2.8999  -21.4184  -41.9444 H         1 UNK         0.0600 
    152 H152       -3.2100  -19.6902  -42.0216 H         1 UNK         0.0600 
    153 H153       -1.6177  -20.2796  -41.5523 H         1 UNK         0.0600 
    154 H154       -1.3554  -18.4806  -43.2906 H         1 UNK         0.3000 
    155 H155        0.0178  -17.3860  -46.4220 H         1 UNK         0.0600 
    156 H156       -2.0497  -16.2332  -44.4746 H         1 UNK         0.0600 
    157 H157       -2.2284  -16.3610  -46.2167 H         1 UNK         0.0600 
    158 H158       -1.0053  -15.2936  -45.5321 H         1 UNK         0.0600 
    159 H159        0.3985  -16.3977  -43.7933 H         1 UNK         0.3000 
    160 H160        3.1480  -18.5291  -42.8773 H         1 UNK         0.0600 
    161 H161        2.9609  -15.5453  -43.5454 H         1 UNK         0.0600 
    162 H162        4.1285  -16.6804  -44.2044 H         1 UNK         0.0600 
    163 H163        4.1611  -16.2946  -42.4936 H         1 UNK         0.0600 
    164 H164        1.7114  -16.4106  -41.5519 H         1 UNK         0.3000 
    165 H165       -0.6487  -18.4988  -39.8979 H         1 UNK         0.0600 
    166 H166        0.3730  -17.4304  -37.9049 H         1 UNK         0.0600 
    167 H167        1.4284  -18.6914  -38.5215 H         1 UNK         0.0600 
    168 H168        1.8101  -17.0023  -38.8337 H         1 UNK         0.0600 
    169 H169       -0.0757  -15.6943  -39.7745 H         1 UNK         0.3000 
    170 H170       -2.1286  -14.6783  -42.5026 H         1 UNK         0.0600 
    171 H171       -3.7173  -14.9968  -40.6043 H         1 UNK         0.0600 
    172 H172       -2.5146  -14.3849  -39.4750 H         1 UNK         0.0600 
    173 H173       -3.1857  -13.3268  -40.7165 H         1 UNK         0.0600 
    174 H174       -0.6057  -13.2352  -40.5562 H         1 UNK         0.3000 
    175 H175        1.1161  -11.9408  -41.4161 H         1 UNK         0.0600 
    176 H176        3.0608  -14.3308  -41.3481 H         1 UNK         0.0600 
    177 H177        3.3526  -12.7493  -40.6346 H         1 UNK         0.0600 
    178 H178        2.0923  -13.7825  -39.9847 H         1 UNK         0.0600 
    179 H179        2.0260  -13.0699  -43.8960 H         1 UNK         0.3000 
    180 H180        2.8725  -10.1253  -45.0581 H         1 UNK         0.0600 
    181 H181        5.5030  -11.5747  -44.4735 H         1 UNK         0.0600 
    182 H182        5.1569   -9.8721  -44.2303 H         1 UNK         0.0600 
    183 H183        5.2168  -10.5215  -45.8600 H         1 UNK         0.0600 
    184 H184        2.2112  -11.7429  -46.3524 H         1 UNK         0.3000 
    185 H185        3.2647  -13.7213  -48.0303 H         1 UNK         0.0600 
    186 H186        2.6214  -16.1206  -47.8559 H         1 UNK         0.0600 
    187 H187        4.1351  -15.8161  -47.0179 H         1 UNK         0.0600 
    188 H188        2.6459  -16.0086  -46.1009 H         1 UNK         0.0600 
    189 H189        0.8759  -14.0645  -46.2554 H         1 UNK         0.3000 
    190 H190       -1.1160  -20.9205  -47.4301 H         1 UNK         0.3000 
    191 H191       -1.8619  -22.5127  -49.8112 H         1 UNK         0.0600 
    192 H192       -3.3890  -20.4443  -48.1569 H         1 UNK         0.0600 
    193 H193       -4.0116  -21.2674  -49.5838 H         1 UNK         0.0600 
    194 H194       -2.6263  -20.1998  -49.7235 H         1 UNK         0.0600 
    195 H195       -3.2673  -22.0565  -46.5297 H         1 UNK         0.3000 
    196 H196       -5.1667  -24.0855  -46.8391 H         1 UNK         0.0600 
    197 H197       -5.6449  -23.7035  -44.4375 H         1 UNK         0.0600 
    198 H198       -5.4057  -22.1746  -45.2677 H         1 UNK         0.0600 
    199 H199       -4.1318  -22.8336  -44.2412 H         1 UNK         0.0600 
    200 H200       -2.0356  -24.2221  -45.1023 H         1 UNK         0.3000 
    201 H201       -2.3199  -26.8912  -44.1304 H         1 UNK         0.0600 
    202 H202       -0.7308  -25.1960  -43.1952 H         1 UNK         0.0600 
    203 H203        0.2231  -25.2801  -44.6776 H         1 UNK         0.0600 
    204 H204        0.0967  -26.6857  -43.6291 H         1 UNK         0.0600 
    205 H205       -1.3428  -25.6612  -47.2641 H         1 UNK         0.3000 
    206 H206       -0.2628  -28.2361  -48.2213 H         1 UNK         0.0600 
    207 H207        0.7830  -26.0709  -48.9294 H         1 UNK         0.0600 
    208 H208        0.1338  -26.9542  -50.3022 H         1 UNK         0.0600 
    209 H209       -0.7391  -25.5699  -49.6612 H         1 UNK         0.0600 
    210 H210       -3.3125  -26.8759  -47.7498 H         1 UNK         0.3000 
    211 H211       -5.3806  -27.1630  -48.4128 H         1 UNK         0.0600 
    212 H212       -4.5060  -29.7814  -49.7427 H         1 UNK         0.0600 
    213 H213       -6.1414  -29.3329  -49.2815 H         1 UNK         0.0600 
    214 H214       -4.9295  -29.6018  -48.0403 H         1 UNK         0.0600 
    215 H215       -3.7073  -25.5063  -49.9710 H         1 UNK         0.3000 
    216 H216       -4.6593  -25.7999  -52.7838 H         1 UNK         0.0600 
    217 H217       -2.8549  -24.1708  -53.2662 H         1 UNK         0.0600 
    218 H218       -2.1895  -25.5557  -52.4145 H         1 UNK         0.0600 
    219 H219       -2.4621  -24.0429  -51.5546 H         1 UNK         0.0600 
    220 H220       -5.5690  -23.9417  -53.8105 H         1 UNK         0.3000 
    221 H221       -7.2584  -22.2425  -52.1397 H         1 UNK         0.0600 
    222 H222       -6.8200  -22.3784  -55.1718 H         1 UNK         0.0600 
    223 H223       -8.1366  -23.1234  -54.2703 H         1 UNK         0.0600 
    224 H224       -8.0177  -21.3733  -54.3658 H         1 UNK         0.0600 
    225 H225       -6.5506  -20.3811  -51.2770 H         1 UNK         0.3000 
    226 H226       -4.0035  -19.2614  -51.6491 H         1 UNK         0.0600 
    227 H227       -5.3396  -18.9629  -49.5904 H         1 UNK         0.0600 
    228 H228       -4.9494  -17.3864  -50.2525 H         1 UNK         0.0600 
    229 H229       -6.5616  -18.0452  -50.4689 H         1 UNK         0.0600 
    230 H230       -7.0926  -18.4166  -53.1864 H         1 UNK         0.3000 
    231 H231       -6.2585  -16.0273  -54.4988 H         1 UNK         0.0600 
    232 H232       -8.6399  -16.6189  -54.1122 H         1 UNK         0.0600 
    233 H233       -8.4938  -18.0143  -55.1822 H         1 UNK         0.0600 
    234 H234       -8.3469  -16.3840  -55.8273 H         1 UNK         0.0600 
    235 H235       -5.6148  -19.3730  -55.2307 H         1 UNK         0.3000 
    236 H236       -4.7232  -18.7814  -58.0137 H         1 UNK         0.0600 
    237 H237       -4.7664  -21.2211  -58.2864 H         1 UNK         0.0600 
    238 H238       -5.1189  -21.4602  -56.5815 H         1 UNK         0.0600 
    239 H239       -6.3163  -20.7097  -57.6383 H         1 UNK         0.0600 
    240 H240       -3.4619  -18.5290  -54.9820 H         1 UNK         0.3000 
    241 H241       -1.5367  -18.6426  -53.9852 H         1 UNK         0.0600 
    242 H242       -3.0134  -21.1911  -54.2583 H         1 UNK         0.3800 
    243 H243       -1.7797  -22.4117  -54.0283 H         1 UNK         0.3800 
    244 H244       -0.2779  -18.7611  -56.7733 H         1 UNK         0.0800 
    245 H245        0.6649  -18.6219  -55.3284 H         1 UNK         0.0800 
    246 H246        0.6425  -14.9843  -54.4025 H         1 UNK         0.0800 
    247 H247        1.6087  -16.4174  -54.6472 H         1 UNK         0.0800 
@<TRIPOS>BOND
     1    1    2 1    
     2    1  127 1    
     3    1  128 1    
     4    1  129 1    
     5    2    3 2    
     6    2    4 am   BACKBONE|DICT|INTERRES
     7    4    5 1    
     8    4  130 1    
     9    5    6 1    
    10    5   65 1    
    11    5  131 1    
    12    6    7 1    
    13    6  132 1    
    14    6  133 1    
    15    7    8 1    
    16    8    9 1    
    17    8  134 1    
    18    8  135 1    
    19    9   10 ar   
    20    9   14 ar   
    21   10   11 ar   
    22   10  136 1    
    23   11   12 ar   
    24   11  126 1    
    25   12   13 ar   
    26   12  137 1    
    27   13   14 ar   
    28   13   15 1    
    29   14  138 1    
    30   15   16 1    
    31   15  139 1    
    32   15  140 1    
    33   16   17 1    
    34   17   18 1    
    35   17  141 1    
    36   17  142 1    
    37   18   19 1    
    38   18   67 1    
    39   18  143 1    
    40   19   20 am   BACKBONE|DICT|INTERRES
    41   19  144 1    
    42   20   21 2    
    43   20   22 1    
    44   22   23 1    
    45   22   24 1    
    46   22  145 1    
    47   23  146 1    
    48   23  147 1    
    49   23  148 1    
    50   24   25 am   BACKBONE|DICT|INTERRES
    51   24  149 1    
    52   25   26 2    
    53   25   27 1    
    54   27   28 1    
    55   27   29 1    
    56   27  150 1    
    57   28  151 1    
    58   28  152 1    
    59   28  153 1    
    60   29   30 am   BACKBONE|DICT|INTERRES
    61   29  154 1    
    62   30   31 2    
    63   30   32 1    
    64   32   33 1    
    65   32   34 1    
    66   32  155 1    
    67   33  156 1    
    68   33  157 1    
    69   33  158 1    
    70   34   35 am   BACKBONE|DICT|INTERRES
    71   34  159 1    
    72   35   36 2    
    73   35   37 1    
    74   37   38 1    
    75   37   39 1    
    76   37  160 1    
    77   38  161 1    
    78   38  162 1    
    79   38  163 1    
    80   39   40 am   BACKBONE|DICT|INTERRES
    81   39  164 1    
    82   40   41 2    
    83   40   42 1    
    84   42   43 1    
    85   42   44 1    
    86   42  165 1    
    87   43  166 1    
    88   43  167 1    
    89   43  168 1    
    90   44   45 am   BACKBONE|DICT|INTERRES
    91   44  169 1    
    92   45   46 2    
    93   45   47 1    
    94   47   48 1    
    95   47   49 1    
    96   47  170 1    
    97   48  171 1    
    98   48  172 1    
    99   48  173 1    
   100   49   50 am   BACKBONE|DICT|INTERRES
   101   49  174 1    
   102   50   51 2    
   103   50   52 1    
   104   52   53 1    
   105   52   54 1    
   106   52  175 1    
   107   53  176 1    
   108   53  177 1    
   109   53  178 1    
   110   54   55 am   BACKBONE|DICT|INTERRES
   111   54  179 1    
   112   55   56 2    
   113   55   57 1    
   114   57   58 1    
   115   57   59 1    
   116   57  180 1    
   117   58  181 1    
   118   58  182 1    
   119   58  183 1    
   120   59   60 am   BACKBONE|DICT|INTERRES
   121   59  184 1    
   122   60   61 2    
   123   60   62 1    
   124   62   63 1    
   125   62   64 1    
   126   62  185 1    
   127   63  186 1    
   128   63  187 1    
   129   63  188 1    
   130   64   65 am   BACKBONE|DICT|INTERRES
   131   64  189 1    
   132   65   66 2    
   133   67   68 2    
   134   67   69 am   BACKBONE|DICT|INTERRES
   135   69   70 1    
   136   69  190 1    
   137   70   71 1    
   138   70   72 1    
   139   70  191 1    
   140   71  192 1    
   141   71  193 1    
   142   71  194 1    
   143   72   73 2    
   144   72   74 am   BACKBONE|DICT|INTERRES
   145   74   75 1    
   146   74  195 1    
   147   75   76 1    
   148   75   77 1    
   149   75  196 1    
   150   76  197 1    
   151   76  198 1    
   152   76  199 1    
   153   77   78 2    
   154   77   79 am   BACKBONE|DICT|INTERRES
   155   79   80 1    
   156   79  200 1    
   157   80   81 1    
   158   80   82 1    
   159   80  201 1    
   160   81  202 1    
   161   81  203 1    
   162   81  204 1    
   163   82   83 2    
   164   82   84 am   BACKBONE|DICT|INTERRES
   165   84   85 1    
   166   84  205 1    
   167   85   86 1    
   168   85   87 1    
   169   85  206 1    
   170   86  207 1    
   171   86  208 1    
   172   86  209 1    
   173   87   88 2    
   174   87   89 am   BACKBONE|DICT|INTERRES
   175   89   90 1    
   176   89  210 1    
   177   90   91 1    
   178   90   92 1    
   179   90  211 1    
   180   91  212 1    
   181   91  213 1    
   182   91  214 1    
   183   92   93 2    
   184   92   94 am   BACKBONE|DICT|INTERRES
   185   94   95 1    
   186   94  215 1    
   187   95   96 1    
   188   95   97 1    
   189   95  216 1    
   190   96  217 1    
   191   96  218 1    
   192   96  219 1    
   193   97   98 2    
   194   97   99 am   BACKBONE|DICT|INTERRES
   195   99  100 1    
   196   99  220 1    
   197  100  101 1    
   198  100  102 1    
   199  100  221 1    
   200  101  222 1    
   201  101  223 1    
   202  101  224 1    
   203  102  103 2    
   204  102  104 am   BACKBONE|DICT|INTERRES
   205  104  105 1    
   206  104  225 1    
   207  105  106 1    
   208  105  107 1    
   209  105  226 1    
   210  106  227 1    
   211  106  228 1    
   212  106  229 1    
   213  107  108 2    
   214  107  109 am   BACKBONE|DICT|INTERRES
   215  109  110 1    
   216  109  230 1    
   217  110  111 1    
   218  110  112 1    
   219  110  231 1    
   220  111  232 1    
   221  111  233 1    
   222  111  234 1    
   223  112  113 2    
   224  112  114 am   BACKBONE|DICT|INTERRES
   225  114  115 1    
   226  114  235 1    
   227  115  116 1    
   228  115  117 1    
   229  115  236 1    
   230  116  237 1    
   231  116  238 1    
   232  116  239 1    
   233  117  118 2    
   234  117  119 am   BACKBONE|DICT|INTERRES
   235  119  120 1    
   236  119  240 1    
   237  120  121 1    
   238  120  124 1    
   239  120  241 1    
   240  121  122 am   BACKBONE|DICT|INTERRES
   241  121  123 2    
   242  122  242 1    
   243  122  243 1    
   244  124  125 1    
   245  124  244 1    
   246  124  245 1    
   247  125  126 1    
   248  126  246 1    
   249  126  247 1    
@<TRIPOS>SUBSTRUCTURE
     1 UNK         1 GROUP             0       ****    0 ROOT    
