@<TRIPOS>MOLECULE
3R540
247   249    1
SMALL
USER_CHARGES


@<TRIPOS>ATOM
      1 CA          3.2408  -11.1615  -52.0900 C.3       0 UNK        -0.1800 
      2 C           3.5759  -11.6169  -50.6772 C.2       0 UNK         0.5000 
      3 O           4.0917  -10.8318  -49.8816 O.2       0 UNK        -0.5000 
      4 N           3.2686  -12.8782  -50.3588 N.am      1 UNK        -0.5000 
      5 CA          3.4529  -13.4916  -49.0381 C.3       1 UNK         0.1400 
      6 C6          3.6172  -15.0302  -49.1243 C.3       23 UNK        -0.0398 
      7 S7          4.9309  -15.5295  -50.2867 S.3       23 UNK        -0.2404 
      8 C8          4.6704  -17.3316  -50.3718 C.3       23 UNK        -0.0205 
      9 C9          3.4007  -17.7811  -51.0972 C.ar      23 UNK        -0.0193 
     10 C10         2.9121  -17.1180  -52.2317 C.ar      23 UNK        -0.1150 
     11 C11         1.7912  -17.6035  -52.9159 C.ar      23 UNK        -0.0193 
     12 C12         1.1821  -18.7799  -52.4706 C.ar      23 UNK        -0.1150 
     13 C13         1.6499  -19.4590  -51.3433 C.ar      23 UNK        -0.0193 
     14 C14         2.7526  -18.9383  -50.6542 C.ar      23 UNK        -0.1150 
     15 C15         0.9398  -20.7507  -50.9307 C.3       23 UNK        -0.0205 
     16 S16         1.8884  -21.8550  -49.8248 S.3       23 UNK        -0.2404 
     17 C17         1.2644  -21.3425  -48.1860 C.3       23 UNK        -0.0398 
     18 CA          0.5101  -22.4686  -47.4358 C.3       11 UNK         0.1400 
     19 N           0.1801  -22.0718  -46.0654 N.am      11 UNK        -0.5000 
     20 C          -0.3191  -22.8860  -45.1251 C.2       10 UNK         0.5000 
     21 O          -0.5054  -24.0897  -45.2909 O.2       10 UNK        -0.5000 
     22 CA         -0.7312  -22.2411  -43.7908 C.3       10 UNK         0.1400 
     23 CB          0.4893  -22.0428  -42.8806 C.3       10 UNK        -0.1800 
     24 N          -1.4359  -20.9713  -43.9754 N.am      10 UNK        -0.5000 
     25 C          -2.6147  -20.8492  -44.6040 C.2       9 UNK         0.5000 
     26 O          -3.2524  -21.8044  -45.0467 O.2       9 UNK        -0.5000 
     27 CA         -3.1543  -19.4232  -44.8148 C.3       9 UNK         0.1400 
     28 CB         -3.8244  -18.8999  -43.5361 C.3       9 UNK        -0.1800 
     29 N          -2.1222  -18.4835  -45.2547 N.am      9 UNK        -0.5000 
     30 C          -1.4443  -18.5811  -46.4081 C.2       8 UNK         0.5000 
     31 O          -1.6454  -19.4606  -47.2455 O.2       8 UNK        -0.5000 
     32 CA         -0.3023  -17.5701  -46.6277 C.3       8 UNK         0.1400 
     33 CB         -0.8420  -16.1960  -47.0505 C.3       8 UNK        -0.1800 
     34 N           0.5414  -17.4256  -45.4398 N.am      8 UNK        -0.5000 
     35 C           1.2646  -18.4183  -44.9017 C.2       7 UNK         0.5000 
     36 O           1.3604  -19.5407  -45.3965 O.2       7 UNK        -0.5000 
     37 CA          1.9497  -18.1274  -43.5572 C.3       7 UNK         0.1400 
     38 CB          3.3018  -17.4283  -43.7663 C.3       7 UNK        -0.1800 
     39 N           1.0959  -17.3235  -42.6819 N.am      7 UNK        -0.5000 
     40 C           0.0120  -17.7961  -42.0494 C.2       6 UNK         0.5000 
     41 O          -0.3587  -18.9669  -42.1192 O.2       6 UNK        -0.5000 
     42 CA         -0.8181  -16.7915  -41.2280 C.3       6 UNK         0.1400 
     43 CB         -0.2401  -16.6441  -39.8128 C.3       6 UNK        -0.1800 
     44 N          -0.9021  -15.4729  -41.8554 N.am      6 UNK        -0.5000 
     45 C          -1.5279  -15.2228  -43.0137 C.2       5 UNK         0.5000 
     46 O          -2.1463  -16.0726  -43.6530 O.2       5 UNK        -0.5000 
     47 CA         -1.3921  -13.7973  -43.5819 C.3       5 UNK         0.1400 
     48 CB         -2.5177  -12.8963  -43.0543 C.3       5 UNK        -0.1800 
     49 N          -0.0977  -13.1614  -43.3143 N.am      5 UNK        -0.5000 
     50 C           1.0957  -13.6654  -43.6557 C.2       4 UNK         0.5000 
     51 O           1.2425  -14.7759  -44.1683 O.2       4 UNK        -0.5000 
     52 CA          2.3049  -12.7460  -43.4270 C.3       4 UNK         0.1400 
     53 CB          3.6450  -13.4982  -43.5103 C.3       4 UNK        -0.1800 
     54 N           2.2640  -11.7306  -44.4696 N.am      4 UNK        -0.5000 
     55 C           1.8357  -10.4711  -44.3176 C.2       3 UNK         0.5000 
     56 O           1.5826   -9.9615  -43.2255 O.2       3 UNK        -0.5000 
     57 CA          1.6019   -9.6587  -45.6091 C.3       3 UNK         0.1400 
     58 CB          2.8638   -8.8690  -45.9870 C.3       3 UNK        -0.1800 
     59 N           1.2042  -10.4956  -46.7442 N.am      3 UNK        -0.5000 
     60 C           0.0811  -11.2267  -46.8054 C.2       2 UNK         0.5000 
     61 O          -0.8183  -11.1616  -45.9672 O.2       2 UNK        -0.5000 
     62 CA         -0.0610  -12.2127  -47.9825 C.3       2 UNK         0.1400 
     63 CB         -0.9993  -11.6241  -49.0465 C.3       2 UNK        -0.1800 
     64 N           1.1910  -12.6002  -48.6405 N.am      2 UNK        -0.5000 
     65 C           2.2934  -13.1285  -48.0856 C.2       1 UNK         0.5000 
     66 O           2.4287  -13.3121  -46.8778 O.2       1 UNK        -0.5000 
     67 C          -0.7375  -22.9707  -48.1964 C.2       11 UNK         0.5000 
     68 O          -0.6879  -24.0465  -48.7932 O.2       11 UNK        -0.5000 
     69 N          -1.8465  -22.2206  -48.1163 N.am      12 UNK        -0.5000 
     70 CA         -3.1369  -22.5893  -48.7006 C.3       12 UNK         0.1400 
     71 CB         -4.1339  -21.4364  -48.5148 C.3       12 UNK        -0.1800 
     72 C          -3.7073  -23.9027  -48.1351 C.2       12 UNK         0.5000 
     73 O          -4.2171  -24.7184  -48.9053 O.2       12 UNK        -0.5000 
     74 N          -3.5874  -24.0924  -46.8140 N.am      13 UNK        -0.5000 
     75 CA         -3.9747  -25.3116  -46.1063 C.3       13 UNK         0.1400 
     76 CB         -3.9430  -25.0654  -44.5907 C.3       13 UNK        -0.1800 
     77 C          -3.0984  -26.5176  -46.4884 C.2       13 UNK         0.5000 
     78 O          -3.6405  -27.5795  -46.7957 O.2       13 UNK        -0.5000 
     79 N          -1.7706  -26.3255  -46.5102 N.am      14 UNK        -0.5000 
     80 CA         -0.7747  -27.3311  -46.8999 C.3       14 UNK         0.1400 
     81 CB          0.6374  -26.7833  -46.6453 C.3       14 UNK        -0.1800 
     82 C          -0.9147  -27.7981  -48.3609 C.2       14 UNK         0.5000 
     83 O          -0.6312  -28.9580  -48.6602 O.2       14 UNK        -0.5000 
     84 N          -1.4066  -26.9051  -49.2284 N.am      15 UNK        -0.5000 
     85 CA         -1.7842  -27.1710  -50.6166 C.3       15 UNK         0.1400 
     86 CB         -1.7440  -25.8427  -51.3892 C.3       15 UNK        -0.1800 
     87 C          -3.1486  -27.8885  -50.7673 C.2       15 UNK         0.5000 
     88 O          -3.6531  -27.9825  -51.8863 O.2       15 UNK        -0.5000 
     89 N          -3.7123  -28.3908  -49.6576 N.am      16 UNK        -0.5000 
     90 CA         -4.9720  -29.1286  -49.5308 C.3       16 UNK         0.1400 
     91 CB         -4.9753  -30.4107  -50.3912 C.3       16 UNK        -0.1800 
     92 C          -6.1983  -28.2255  -49.7538 C.2       16 UNK         0.5000 
     93 O          -7.1010  -28.5783  -50.5151 O.2       16 UNK        -0.5000 
     94 N          -6.1975  -27.0759  -49.0620 N.am      17 UNK        -0.5000 
     95 CA         -7.2266  -26.0298  -49.0712 C.3       17 UNK         0.1400 
     96 CB         -8.5491  -26.5478  -48.4682 C.3       17 UNK        -0.1800 
     97 C          -7.3939  -25.4009  -50.4686 C.2       17 UNK         0.5000 
     98 O          -8.5068  -25.3069  -50.9894 O.2       17 UNK        -0.5000 
     99 N          -6.2614  -24.9921  -51.0544 N.am      18 UNK        -0.5000 
    100 CA        -6.1735  -24.4376  -52.4081 C.3       18 UNK         0.1400 
    101 CB        -4.7155  -24.5221  -52.8816 C.3       18 UNK        -0.1800 
    102 C         -6.6770  -22.9864  -52.5273 C.2       18 UNK         0.5000 
    103 O         -6.8691  -22.5131  -53.6478 O.2       18 UNK        -0.5000 
    104 N         -6.8430  -22.3013  -51.3844 N.am      19 UNK        -0.5000 
    105 CA        -7.1926  -20.8807  -51.2486 C.3       19 UNK         0.1400 
    106 CB        -8.6118  -20.5989  -51.7846 C.3       19 UNK        -0.1800 
    107 C         -6.1187  -19.9476  -51.8504 C.2       19 UNK         0.5000 
    108 O         -6.4406  -18.8909  -52.3977 O.2       19 UNK        -0.5000 
    109 N         -4.8485  -20.3574  -51.7228 N.am      20 UNK        -0.5000 
    110 CA        -3.6474  -19.6577  -52.1818 C.3       20 UNK         0.1400 
    111 CB        -2.5016  -20.6795  -52.2700 C.3       20 UNK        -0.1800 
    112 C         -3.3034  -18.4456  -51.2876 C.2       20 UNK         0.5000 
    113 O         -2.2289  -18.3850  -50.6867 O.2       20 UNK        -0.5000 
    114 N         -4.2469  -17.4988  -51.2151 N.am      21 UNK        -0.5000 
    115 CA        -4.2356  -16.3040  -50.3681 C.3       21 UNK         0.1400 
    116 CB        -5.6017  -15.6105  -50.4857 C.3       21 UNK        -0.1800 
    117 C         -3.0938  -15.3089  -50.6535 C.2       21 UNK         0.5000 
    118 O         -2.8565  -14.4257  -49.8297 O.2       21 UNK        -0.5000 
    119 N         -2.3999  -15.4715  -51.7880 N.am      22 UNK        -0.5000 
    120 CA        -1.1397  -14.7835  -52.0995 C.3       22 UNK         0.1400 
    121 C          0.0503  -15.1497  -51.1715 C.2       22 UNK         0.5000 
    122 N         -0.0034  -16.2379  -50.4106 N.am      22 UNK        -0.7600 
    123 O          1.0398  -14.4258  -51.1575 O.2       22 UNK        -0.5000 
    124 C124       -0.7397  -14.9274  -53.5905 C.3       23 UNK        -0.0398 
    125 S125       -0.5455  -16.6529  -54.1721 S.3       23 UNK        -0.2404 
    126 C126        1.2713  -16.8958  -54.1661 C.3       23 UNK        -0.0205 
    127 H127        2.5613  -10.3098  -52.0588 H         1 UNK         0.0600 
    128 H128        4.1483  -10.8575  -52.6116 H         1 UNK         0.0600 
    129 H129        2.7652  -11.9549  -52.6677 H         1 UNK         0.0600 
    130 H130        2.7740  -13.4658  -51.0238 H         1 UNK         0.3000 
    131 H131        4.3657  -13.0877  -48.5950 H         1 UNK         0.0600 
    132 H132        3.8567  -15.4414  -48.1420 H         1 UNK         0.0800 
    133 H133        2.6852  -15.5025  -49.4333 H         1 UNK         0.0800 
    134 H134        5.5241  -17.7747  -50.8855 H         1 UNK         0.0800 
    135 H135        4.6883  -17.7266  -49.3547 H         1 UNK         0.0800 
    136 H136        3.4096  -16.2284  -52.5902 H         1 UNK         0.1150 
    137 H137        0.3367  -19.1711  -53.0156 H         1 UNK         0.1150 
    138 H138        3.1372  -19.4474  -49.7831 H         1 UNK         0.1150 
    139 H139       -0.0194  -20.4975  -50.4775 H         1 UNK         0.0800 
    140 H140        0.7064  -21.3224  -51.8302 H         1 UNK         0.0800 
    141 H141        0.6398  -20.4533  -48.2779 H         1 UNK         0.0800 
    142 H142        2.1290  -21.0321  -47.5980 H         1 UNK         0.0800 
    143 H143        1.1927  -23.3172  -47.3547 H         1 UNK         0.0600 
    144 H144        0.3513  -21.0989  -45.8253 H         1 UNK         0.3000 
    145 H145       -1.4155  -22.9285  -43.2894 H         1 UNK         0.0600 
    146 H146        0.1936  -21.6669  -41.9011 H         1 UNK         0.0600 
    147 H147        1.0141  -22.9855  -42.7212 H         1 UNK         0.0600 
    148 H148        1.2024  -21.3390  -43.3092 H         1 UNK         0.0600 
    149 H149       -0.9966  -20.1456  -43.5810 H         1 UNK         0.3000 
    150 H150       -3.9128  -19.4701  -45.5988 H         1 UNK         0.0600 
    151 H151       -4.6072  -19.5801  -43.1983 H         1 UNK         0.0600 
    152 H152       -4.2886  -17.9281  -43.7045 H         1 UNK         0.0600 
    153 H153       -3.1083  -18.7913  -42.7212 H         1 UNK         0.0600 
    154 H154       -1.9308  -17.7000  -44.6361 H         1 UNK         0.3000 
    155 H155        0.3237  -17.9496  -47.4381 H         1 UNK         0.0600 
    156 H156       -1.4669  -16.2794  -47.9405 H         1 UNK         0.0600 
    157 H157       -0.0274  -15.5114  -47.2872 H         1 UNK         0.0600 
    158 H158       -1.4484  -15.7395  -46.2691 H         1 UNK         0.0600 
    159 H159        0.5569  -16.5182  -44.9854 H         1 UNK         0.3000 
    160 H160        2.1421  -19.0821  -43.0635 H         1 UNK         0.0600 
    161 H161        3.7853  -17.2082  -42.8146 H         1 UNK         0.0600 
    162 H162        3.1981  -16.4928  -44.3155 H         1 UNK         0.0600 
    163 H163        3.9800  -18.0641  -44.3367 H         1 UNK         0.0600 
    164 H164        1.2784  -16.3288  -42.6680 H         1 UNK         0.3000 
    165 H165       -1.8312  -17.1899  -41.1425 H         1 UNK         0.0600 
    166 H166       -0.8647  -15.9967  -39.1971 H         1 UNK         0.0600 
    167 H167       -0.1842  -17.6117  -39.3120 H         1 UNK         0.0600 
    168 H168        0.7664  -16.2243  -39.8293 H         1 UNK         0.0600 
    169 H169       -0.4140  -14.7159  -41.4001 H         1 UNK         0.3000 
    170 H170       -1.4960  -13.8681  -44.6663 H         1 UNK         0.0600 
    171 H171       -3.4963  -13.3333  -43.2579 H         1 UNK         0.0600 
    172 H172       -2.4418  -12.7455  -41.9768 H         1 UNK         0.0600 
    173 H173       -2.4947  -11.9175  -43.5343 H         1 UNK         0.0600 
    174 H174       -0.1306  -12.2269  -42.9320 H         1 UNK         0.3000 
    175 H175        2.2207  -12.3010  -42.4335 H         1 UNK         0.0600 
    176 H176        4.4833  -12.8258  -43.3284 H         1 UNK         0.0600 
    177 H177        3.6944  -14.2915  -42.7636 H         1 UNK         0.0600 
    178 H178        3.7932  -13.9567  -44.4891 H         1 UNK         0.0600 
    179 H179        2.3770  -12.0958  -45.4124 H         1 UNK         0.3000 
    180 H180        0.7952   -8.9492  -45.4141 H         1 UNK         0.0600 
    181 H181        3.6988   -9.5318  -46.2185 H         1 UNK         0.0600 
    182 H182        3.1770   -8.2186  -45.1692 H         1 UNK         0.0600 
    183 H183        2.6873   -8.2351  -46.8562 H         1 UNK         0.0600 
    184 H184        1.8826  -10.6089  -47.4834 H         1 UNK         0.3000 
    185 H185       -0.5146  -13.1237  -47.5885 H         1 UNK         0.0600 
    186 H186       -1.1603  -12.3263  -49.8636 H         1 UNK         0.0600 
    187 H187       -1.9775  -11.3938  -48.6222 H         1 UNK         0.0600 
    188 H188       -0.5977  -10.7032  -49.4712 H         1 UNK         0.0600 
    189 H189        1.1909  -12.5401  -49.6493 H         1 UNK         0.3000 
    190 H190       -1.8028  -21.3256  -47.6346 H         1 UNK         0.3000 
    191 H191       -2.9822  -22.7402  -49.7703 H         1 UNK         0.0600 
    192 H192       -4.3105  -21.2237  -47.4607 H         1 UNK         0.0600 
    193 H193       -5.0982  -21.6732  -48.9636 H         1 UNK         0.0600 
    194 H194       -3.7677  -20.5198  -48.9775 H         1 UNK         0.0600 
    195 H195       -3.2111  -23.3378  -46.2466 H         1 UNK         0.3000 
    196 H196       -5.0037  -25.5467  -46.3856 H         1 UNK         0.0600 
    197 H197       -2.9453  -24.7941  -44.2453 H         1 UNK         0.0600 
    198 H198       -4.2497  -25.9574  -44.0432 H         1 UNK         0.0600 
    199 H199       -4.6224  -24.2606  -44.3093 H         1 UNK         0.0600 
    200 H200       -1.4009  -25.4256  -46.2103 H         1 UNK         0.3000 
    201 H201       -0.9216  -28.2047  -46.2618 H         1 UNK         0.0600 
    202 H202        0.8276  -25.8805  -47.2265 H         1 UNK         0.0600 
    203 H203        1.3978  -27.5165  -46.9170 H         1 UNK         0.0600 
    204 H204        0.7822  -26.5410  -45.5924 H         1 UNK         0.0600 
    205 H205       -1.5405  -25.9528  -48.9051 H         1 UNK         0.3000 
    206 H206       -1.0349  -27.8324  -51.0557 H         1 UNK         0.0600 
    207 H207       -0.7551  -25.3871  -51.3347 H         1 UNK         0.0600 
    208 H208       -1.9725  -25.9872  -52.4454 H         1 UNK         0.0600 
    209 H209       -2.4592  -25.1276  -50.9844 H         1 UNK         0.0600 
    210 H210       -3.2441  -28.2127  -48.7772 H         1 UNK         0.3000 
    211 H211       -5.0236  -29.4475  -48.4887 H         1 UNK         0.0600 
    212 H212       -5.0010  -30.1898  -51.4584 H         1 UNK         0.0600 
    213 H213       -5.8489  -31.0240  -50.1677 H         1 UNK         0.0600 
    214 H214       -4.0930  -31.0197  -50.1947 H         1 UNK         0.0600 
    215 H215       -5.3717  -26.8635  -48.5179 H         1 UNK         0.3000 
    216 H216       -6.8646  -25.2344  -48.4184 H         1 UNK         0.0600 
    217 H217       -8.3916  -26.9633  -47.4729 H         1 UNK         0.0600 
    218 H218       -9.2746  -25.7395  -48.3709 H         1 UNK         0.0600 
    219 H219       -9.0053  -27.3215  -49.0862 H         1 UNK         0.0600 
    220 H220       -5.3956  -25.0864  -50.5331 H         1 UNK         0.3000 
    221 H221       -6.7845  -25.0517  -53.0730 H         1 UNK         0.0600 
    222 H222       -4.0541  -23.9256  -52.2528 H         1 UNK         0.0600 
    223 H223       -4.3611  -25.5519  -52.8725 H         1 UNK         0.0600 
    224 H224       -4.6116  -24.1566  -53.9041 H         1 UNK         0.0600 
    225 H225       -6.6779  -22.8010  -50.5231 H         1 UNK         0.3000 
    226 H226       -7.2042  -20.6709  -50.1781 H         1 UNK         0.0600 
    227 H227       -9.3417  -21.2771  -51.3425 H         1 UNK         0.0600 
    228 H228       -8.9254  -19.5829  -51.5421 H         1 UNK         0.0600 
    229 H229       -8.6675  -20.7057  -52.8681 H         1 UNK         0.0600 
    230 H230       -4.6906  -21.2379  -51.2600 H         1 UNK         0.3000 
    231 H231       -3.8326  -19.2773  -53.1884 H         1 UNK         0.0600 
    232 H232       -2.7695  -21.5232  -52.9063 H         1 UNK         0.0600 
    233 H233       -2.2314  -21.0697  -51.2890 H         1 UNK         0.0600 
    234 H234       -1.6120  -20.2235  -52.7005 H         1 UNK         0.0600 
    235 H235       -5.1041  -17.6718  -51.7326 H         1 UNK         0.3000 
    236 H236       -4.1098  -16.6394  -49.3366 H         1 UNK         0.0600 
    237 H237       -5.6562  -14.7355  -49.8365 H         1 UNK         0.0600 
    238 H238       -5.7939  -15.2759  -51.5058 H         1 UNK         0.0600 
    239 H239       -6.4111  -16.2802  -50.1939 H         1 UNK         0.0600 
    240 H240       -2.6497  -16.2348  -52.3983 H         1 UNK         0.3000 
    241 H241       -1.3203  -13.7209  -51.9279 H         1 UNK         0.0600 
    242 H242        0.7975  -16.4889  -49.8607 H         1 UNK         0.3800 
    243 H243       -0.7855  -16.8784  -50.4842 H         1 UNK         0.3800 
    244 H244       -1.5123  -14.4664  -54.2069 H         1 UNK         0.0800 
    245 H245        0.1669  -14.3585  -53.8028 H         1 UNK         0.0800 
    246 H246        1.7763  -15.9398  -54.3090 H         1 UNK         0.0800 
    247 H247        1.5349  -17.5072  -55.0297 H         1 UNK         0.0800 
@<TRIPOS>BOND
     1    1    2 1    
     2    1  127 1    
     3    1  128 1    
     4    1  129 1    
     5    2    3 2    
     6    2    4 am   BACKBONE|DICT|INTERRES
     7    4    5 1    
     8    4  130 1    
     9    5    6 1    
    10    5   65 1    
    11    5  131 1    
    12    6    7 1    
    13    6  132 1    
    14    6  133 1    
    15    7    8 1    
    16    8    9 1    
    17    8  134 1    
    18    8  135 1    
    19    9   10 ar   
    20    9   14 ar   
    21   10   11 ar   
    22   10  136 1    
    23   11   12 ar   
    24   11  126 1    
    25   12   13 ar   
    26   12  137 1    
    27   13   14 ar   
    28   13   15 1    
    29   14  138 1    
    30   15   16 1    
    31   15  139 1    
    32   15  140 1    
    33   16   17 1    
    34   17   18 1    
    35   17  141 1    
    36   17  142 1    
    37   18   19 1    
    38   18   67 1    
    39   18  143 1    
    40   19   20 am   BACKBONE|DICT|INTERRES
    41   19  144 1    
    42   20   21 2    
    43   20   22 1    
    44   22   23 1    
    45   22   24 1    
    46   22  145 1    
    47   23  146 1    
    48   23  147 1    
    49   23  148 1    
    50   24   25 am   BACKBONE|DICT|INTERRES
    51   24  149 1    
    52   25   26 2    
    53   25   27 1    
    54   27   28 1    
    55   27   29 1    
    56   27  150 1    
    57   28  151 1    
    58   28  152 1    
    59   28  153 1    
    60   29   30 am   BACKBONE|DICT|INTERRES
    61   29  154 1    
    62   30   31 2    
    63   30   32 1    
    64   32   33 1    
    65   32   34 1    
    66   32  155 1    
    67   33  156 1    
    68   33  157 1    
    69   33  158 1    
    70   34   35 am   BACKBONE|DICT|INTERRES
    71   34  159 1    
    72   35   36 2    
    73   35   37 1    
    74   37   38 1    
    75   37   39 1    
    76   37  160 1    
    77   38  161 1    
    78   38  162 1    
    79   38  163 1    
    80   39   40 am   BACKBONE|DICT|INTERRES
    81   39  164 1    
    82   40   41 2    
    83   40   42 1    
    84   42   43 1    
    85   42   44 1    
    86   42  165 1    
    87   43  166 1    
    88   43  167 1    
    89   43  168 1    
    90   44   45 am   BACKBONE|DICT|INTERRES
    91   44  169 1    
    92   45   46 2    
    93   45   47 1    
    94   47   48 1    
    95   47   49 1    
    96   47  170 1    
    97   48  171 1    
    98   48  172 1    
    99   48  173 1    
   100   49   50 am   BACKBONE|DICT|INTERRES
   101   49  174 1    
   102   50   51 2    
   103   50   52 1    
   104   52   53 1    
   105   52   54 1    
   106   52  175 1    
   107   53  176 1    
   108   53  177 1    
   109   53  178 1    
   110   54   55 am   BACKBONE|DICT|INTERRES
   111   54  179 1    
   112   55   56 2    
   113   55   57 1    
   114   57   58 1    
   115   57   59 1    
   116   57  180 1    
   117   58  181 1    
   118   58  182 1    
   119   58  183 1    
   120   59   60 am   BACKBONE|DICT|INTERRES
   121   59  184 1    
   122   60   61 2    
   123   60   62 1    
   124   62   63 1    
   125   62   64 1    
   126   62  185 1    
   127   63  186 1    
   128   63  187 1    
   129   63  188 1    
   130   64   65 am   BACKBONE|DICT|INTERRES
   131   64  189 1    
   132   65   66 2    
   133   67   68 2    
   134   67   69 am   BACKBONE|DICT|INTERRES
   135   69   70 1    
   136   69  190 1    
   137   70   71 1    
   138   70   72 1    
   139   70  191 1    
   140   71  192 1    
   141   71  193 1    
   142   71  194 1    
   143   72   73 2    
   144   72   74 am   BACKBONE|DICT|INTERRES
   145   74   75 1    
   146   74  195 1    
   147   75   76 1    
   148   75   77 1    
   149   75  196 1    
   150   76  197 1    
   151   76  198 1    
   152   76  199 1    
   153   77   78 2    
   154   77   79 am   BACKBONE|DICT|INTERRES
   155   79   80 1    
   156   79  200 1    
   157   80   81 1    
   158   80   82 1    
   159   80  201 1    
   160   81  202 1    
   161   81  203 1    
   162   81  204 1    
   163   82   83 2    
   164   82   84 am   BACKBONE|DICT|INTERRES
   165   84   85 1    
   166   84  205 1    
   167   85   86 1    
   168   85   87 1    
   169   85  206 1    
   170   86  207 1    
   171   86  208 1    
   172   86  209 1    
   173   87   88 2    
   174   87   89 am   BACKBONE|DICT|INTERRES
   175   89   90 1    
   176   89  210 1    
   177   90   91 1    
   178   90   92 1    
   179   90  211 1    
   180   91  212 1    
   181   91  213 1    
   182   91  214 1    
   183   92   93 2    
   184   92   94 am   BACKBONE|DICT|INTERRES
   185   94   95 1    
   186   94  215 1    
   187   95   96 1    
   188   95   97 1    
   189   95  216 1    
   190   96  217 1    
   191   96  218 1    
   192   96  219 1    
   193   97   98 2    
   194   97   99 am   BACKBONE|DICT|INTERRES
   195   99  100 1    
   196   99  220 1    
   197  100  101 1    
   198  100  102 1    
   199  100  221 1    
   200  101  222 1    
   201  101  223 1    
   202  101  224 1    
   203  102  103 2    
   204  102  104 am   BACKBONE|DICT|INTERRES
   205  104  105 1    
   206  104  225 1    
   207  105  106 1    
   208  105  107 1    
   209  105  226 1    
   210  106  227 1    
   211  106  228 1    
   212  106  229 1    
   213  107  108 2    
   214  107  109 am   BACKBONE|DICT|INTERRES
   215  109  110 1    
   216  109  230 1    
   217  110  111 1    
   218  110  112 1    
   219  110  231 1    
   220  111  232 1    
   221  111  233 1    
   222  111  234 1    
   223  112  113 2    
   224  112  114 am   BACKBONE|DICT|INTERRES
   225  114  115 1    
   226  114  235 1    
   227  115  116 1    
   228  115  117 1    
   229  115  236 1    
   230  116  237 1    
   231  116  238 1    
   232  116  239 1    
   233  117  118 2    
   234  117  119 am   BACKBONE|DICT|INTERRES
   235  119  120 1    
   236  119  240 1    
   237  120  121 1    
   238  120  124 1    
   239  120  241 1    
   240  121  122 am   BACKBONE|DICT|INTERRES
   241  121  123 2    
   242  122  242 1    
   243  122  243 1    
   244  124  125 1    
   245  124  244 1    
   246  124  245 1    
   247  125  126 1    
   248  126  246 1    
   249  126  247 1    
@<TRIPOS>SUBSTRUCTURE
     1 UNK         1 GROUP             0       ****    0 ROOT    
