@<TRIPOS>MOLECULE
3R540
247   249    1
SMALL
USER_CHARGES


@<TRIPOS>ATOM
      1 CA          5.6106  -14.1659  -50.0790 C.3       0 UNK        -0.1800 
      2 C           4.6508  -13.8159  -48.9514 C.2       0 UNK         0.5000 
      3 O           4.9115  -14.1490  -47.7951 O.2       0 UNK        -0.5000 
      4 N           3.5496  -13.1266  -49.2730 N.am      1 UNK        -0.5000 
      5 CA          2.4681  -12.7445  -48.3534 C.3       1 UNK         0.1400 
      6 C6          1.1165  -12.5446  -49.0950 C.3       23 UNK        -0.0398 
      7 S7          0.6306  -13.9777  -50.1155 S.3       23 UNK        -0.2404 
      8 C8         -0.3159  -14.9754  -48.9222 C.3       23 UNK        -0.0205 
      9 C9         -0.6026  -16.3657  -49.4697 C.ar      23 UNK        -0.0193 
     10 C10        -1.9173  -16.7755  -49.7230 C.ar      23 UNK        -0.1150 
     11 C11        -2.1738  -18.0585  -50.2165 C.ar      23 UNK        -0.0193 
     12 C12        -1.1064  -18.9145  -50.4832 C.ar      23 UNK        -0.1150 
     13 C13         0.2082  -18.5264  -50.2266 C.ar      23 UNK        -0.0193 
     14 C14         0.4545  -17.2517  -49.7107 C.ar      23 UNK        -0.1150 
     15 C15         1.3507  -19.4887  -50.5202 C.3       23 UNK        -0.0205 
     16 S16         1.7338  -20.5662  -49.1019 S.3       23 UNK        -0.2404 
     17 C17         0.1655  -21.4776  -48.9050 C.3       23 UNK        -0.0398 
     18 CA          0.2710  -22.6498  -47.9070 C.3       11 UNK         0.1400 
     19 N           0.5362  -22.1971  -46.5371 N.am      11 UNK        -0.5000 
     20 C           0.8557  -23.0076  -45.5193 C.2       10 UNK         0.5000 
     21 O           0.9640  -24.2286  -45.6300 O.2       10 UNK        -0.5000 
     22 CA          1.0442  -22.3565  -44.1372 C.3       10 UNK         0.1400 
     23 CB          2.3969  -21.6345  -44.0451 C.3       10 UNK        -0.1800 
     24 N          -0.0372  -21.4324  -43.7958 N.am      10 UNK        -0.5000 
     25 C          -1.3167  -21.7948  -43.6266 C.2       9 UNK         0.5000 
     26 O          -1.7151  -22.9557  -43.7105 O.2       9 UNK        -0.5000 
     27 CA         -2.3359  -20.6704  -43.3693 C.3       9 UNK         0.1400 
     28 CB         -2.3049  -20.2270  -41.8994 C.3       9 UNK        -0.1800 
     29 N          -2.1438  -19.5149  -44.2466 N.am      9 UNK        -0.5000 
     30 C          -2.2112  -19.5685  -45.5855 C.2       8 UNK         0.5000 
     31 O          -2.4665  -20.5940  -46.2137 O.2       8 UNK        -0.5000 
     32 CA         -1.8799  -18.2803  -46.3552 C.3       8 UNK         0.1400 
     33 CB         -3.0684  -17.3072  -46.3226 C.3       8 UNK        -0.1800 
     34 N          -0.6747  -17.6187  -45.8549 N.am      8 UNK        -0.5000 
     35 C           0.5423  -18.1822  -45.8301 C.2       7 UNK         0.5000 
     36 O           0.7790  -19.3169  -46.2400 O.2       7 UNK        -0.5000 
     37 CA          1.6714  -17.3789  -45.1623 C.3       7 UNK         0.1400 
     38 CB          2.1545  -16.2244  -46.0529 C.3       7 UNK        -0.1800 
     39 N           1.2760  -16.8551  -43.8579 N.am      7 UNK        -0.5000 
     40 C           0.9225  -17.6024  -42.8038 C.2       6 UNK         0.5000 
     41 O           0.9458  -18.8331  -42.7916 O.2       6 UNK        -0.5000 
     42 CA          0.4147  -16.8393  -41.5702 C.3       6 UNK         0.1400 
     43 CB          1.5866  -16.2904  -40.7422 C.3       6 UNK        -0.1800 
     44 N          -0.4815  -15.7438  -41.9401 N.am      6 UNK        -0.5000 
     45 C          -1.7178  -15.9112  -42.4292 C.2       5 UNK         0.5000 
     46 O          -2.2413  -17.0108  -42.6079 O.2       5 UNK        -0.5000 
     47 CA         -2.4869  -14.6331  -42.8093 C.3       5 UNK         0.1400 
     48 CB         -3.1112  -13.9833  -41.5653 C.3       5 UNK        -0.1800 
     49 N          -1.6529  -13.6518  -43.5053 N.am      5 UNK        -0.5000 
     50 C          -1.1379  -13.8417  -44.7269 C.2       4 UNK         0.5000 
     51 O          -1.2912  -14.8670  -45.3868 O.2       4 UNK        -0.5000 
     52 CA         -0.2716  -12.7119  -45.3033 C.3       4 UNK         0.1400 
     53 CB         -1.1567  -11.5902  -45.8669 C.3       4 UNK        -0.1800 
     54 N           0.7173  -12.1414  -44.3845 N.am      4 UNK        -0.5000 
     55 C           1.6016  -12.8265  -43.6458 C.2       3 UNK         0.5000 
     56 O           1.5948  -14.0504  -43.5146 O.2       3 UNK        -0.5000 
     57 CA          2.7538  -12.0002  -43.0621 C.3       3 UNK         0.1400 
     58 CB          3.5519  -12.7606  -41.9876 C.3       3 UNK        -0.1800 
     59 N           3.6255  -11.7032  -44.1915 N.am      3 UNK        -0.5000 
     60 C           3.9030  -10.4868  -44.6720 C.2       2 UNK         0.5000 
     61 O           3.6023   -9.4342  -44.1082 O.2       2 UNK        -0.5000 
     62 CA          4.5863  -10.4542  -46.0521 C.3       2 UNK         0.1400 
     63 CB          6.1081  -10.6108  -45.9130 C.3       2 UNK        -0.1800 
     64 N           4.0721  -11.4959  -46.9476 N.am      2 UNK        -0.5000 
     65 C           2.8415  -11.5196  -47.4792 C.2       1 UNK         0.5000 
     66 O           2.0204  -10.6193  -47.3001 O.2       1 UNK        -0.5000 
     67 C          -0.9866  -23.5384  -47.9996 C.2       11 UNK         0.5000 
     68 O          -0.9905  -24.4905  -48.7826 O.2       11 UNK        -0.5000 
     69 N          -2.0231  -23.2274  -47.2093 N.am      12 UNK        -0.5000 
     70 CA         -3.2412  -24.0263  -47.0914 C.3       12 UNK         0.1400 
     71 CB         -4.3343  -23.2141  -46.3816 C.3       12 UNK        -0.1800 
     72 C          -2.9902  -25.3630  -46.3722 C.2       12 UNK         0.5000 
     73 O          -3.4604  -26.3955  -46.8484 O.2       12 UNK        -0.5000 
     74 N          -2.2217  -25.3370  -45.2724 N.am      13 UNK        -0.5000 
     75 CA         -1.8177  -26.5226  -44.5080 C.3       13 UNK         0.1400 
     76 CB         -1.1193  -26.0913  -43.2098 C.3       13 UNK        -0.1800 
     77 C          -0.9199  -27.4809  -45.3128 C.2       13 UNK         0.5000 
     78 O          -1.0590  -28.6978  -45.1860 O.2       13 UNK        -0.5000 
     79 N          -0.0491  -26.9150  -46.1590 N.am      14 UNK        -0.5000 
     80 CA          0.7792  -27.6390  -47.1252 C.3       14 UNK         0.1400 
     81 CB          1.8934  -26.7002  -47.6159 C.3       14 UNK        -0.1800 
     82 C          -0.0147  -28.1931  -48.3277 C.2       14 UNK         0.5000 
     83 O           0.5373  -28.9872  -49.0901 O.2       14 UNK        -0.5000 
     84 N          -1.2713  -27.7489  -48.4921 N.am      15 UNK        -0.5000 
     85 CA         -2.1884  -28.0307  -49.6022 C.3       15 UNK         0.1400 
     86 CB         -2.5677  -29.5256  -49.6432 C.3       15 UNK        -0.1800 
     87 C          -1.6763  -27.4964  -50.9571 C.2       15 UNK         0.5000 
     88 O          -2.0113  -28.0485  -52.0067 O.2       15 UNK        -0.5000 
     89 N          -0.8730  -26.4269  -50.9067 N.am      16 UNK        -0.5000 
     90 CA         -0.3089  -25.7488  -52.0677 C.3       16 UNK         0.1400 
     91 CB          1.0439  -25.1275  -51.6809 C.3       16 UNK        -0.1800 
     92 C          -1.2746  -24.6766  -52.5920 C.2       16 UNK         0.5000 
     93 O          -1.5349  -24.6338  -53.7954 O.2       16 UNK        -0.5000 
     94 N          -1.7905  -23.8467  -51.6692 N.am      17 UNK        -0.5000 
     95 CA         -2.6559  -22.6846  -51.9101 C.3       17 UNK         0.1400 
     96 CB         -4.0678  -23.1575  -52.3217 C.3       17 UNK        -0.1800 
     97 C          -2.0341  -21.6629  -52.8966 C.2       17 UNK         0.5000 
     98 O          -0.8085  -21.5950  -53.0145 O.2       17 UNK        -0.5000 
     99 N          -2.8783  -20.8645  -53.5614 N.am      18 UNK        -0.5000 
    100 CA        -2.4868  -19.9029  -54.5986 C.3       18 UNK         0.1400 
    101 CB        -1.9536  -18.6035  -53.9619 C.3       18 UNK        -0.1800 
    102 C         -3.6417  -19.6415  -55.5864 C.2       18 UNK         0.5000 
    103 O         -3.6753  -18.5855  -56.2182 O.2       18 UNK        -0.5000 
    104 N         -4.5880  -20.5916  -55.6781 N.am      19 UNK        -0.5000 
    105 CA        -5.8185  -20.5795  -56.4894 C.3       19 UNK         0.1400 
    106 CB        -5.4906  -20.4796  -57.9936 C.3       19 UNK        -0.1800 
    107 C         -6.8824  -19.5382  -56.0663 C.2       19 UNK         0.5000 
    108 O         -7.9622  -19.5068  -56.6587 O.2       19 UNK        -0.5000 
    109 N         -6.5895  -18.7332  -55.0411 N.am      20 UNK        -0.5000 
    110 CA        -7.4438  -17.7160  -54.4429 C.3       20 UNK         0.1400 
    111 CB        -7.4966  -16.4685  -55.3442 C.3       20 UNK        -0.1800 
    112 C         -6.8668  -17.3724  -53.0618 C.2       20 UNK         0.5000 
    113 O         -5.6931  -17.6560  -52.8083 O.2       20 UNK        -0.5000 
    114 N         -7.7044  -16.7776  -52.1994 N.am      21 UNK        -0.5000 
    115 CA        -7.4061  -16.2996  -50.8372 C.3       21 UNK         0.1400 
    116 CB        -6.3452  -15.1788  -50.8742 C.3       21 UNK        -0.1800 
    117 C         -7.0436  -17.4017  -49.8134 C.2       21 UNK         0.5000 
    118 O         -6.6423  -17.0802  -48.6943 O.2       21 UNK        -0.5000 
    119 N         -7.2047  -18.6689  -50.2023 N.am      22 UNK        -0.5000 
    120 CA        -6.9125  -19.8752  -49.4233 C.3       22 UNK         0.1400 
    121 C         -8.0680  -20.8923  -49.6074 C.2       22 UNK         0.5000 
    122 N         -8.3938  -21.6632  -48.5794 N.am      22 UNK        -0.7600 
    123 O         -8.6501  -21.0138  -50.6840 O.2       22 UNK        -0.5000 
    124 C124       -5.5620  -20.5066  -49.8535 C.3       23 UNK        -0.0398 
    125 S125       -4.1134  -19.6764  -49.1244 S.3       23 UNK        -0.2404 
    126 C126       -3.5928  -18.5470  -50.4518 C.3       23 UNK        -0.0205 
    127 H127        5.2531  -13.8026  -51.0428 H         1 UNK         0.0600 
    128 H128        5.7303  -15.2471  -50.1462 H         1 UNK         0.0600 
    129 H129        6.5889  -13.7241  -49.8897 H         1 UNK         0.0600 
    130 H130        3.4022  -12.8655  -50.2376 H         1 UNK         0.3000 
    131 H131        2.3249  -13.5707  -47.6544 H         1 UNK         0.0600 
    132 H132        1.1760  -11.6768  -49.7541 H         1 UNK         0.0800 
    133 H133        0.3095  -12.3306  -48.3936 H         1 UNK         0.0800 
    134 H134        0.2467  -15.0733  -47.9961 H         1 UNK         0.0800 
    135 H135       -1.2416  -14.4565  -48.6684 H         1 UNK         0.0800 
    136 H136       -2.7409  -16.1051  -49.5217 H         1 UNK         0.1150 
    137 H137       -1.3034  -19.9009  -50.8702 H         1 UNK         0.1150 
    138 H138        1.4700  -16.9422  -49.5081 H         1 UNK         0.1150 
    139 H139        1.1090  -20.1047  -51.3882 H         1 UNK         0.0800 
    140 H140        2.2469  -18.9270  -50.7874 H         1 UNK         0.0800 
    141 H141       -0.1317  -21.8370  -49.8922 H         1 UNK         0.0800 
    142 H142       -0.6074  -20.7827  -48.5717 H         1 UNK         0.0800 
    143 H143        1.1152  -23.2723  -48.2111 H         1 UNK         0.0600 
    144 H144        0.5016  -21.1919  -46.3781 H         1 UNK         0.3000 
    145 H145        1.0409  -23.1564  -43.3939 H         1 UNK         0.0600 
    146 H146        2.5676  -21.2463  -43.0408 H         1 UNK         0.0600 
    147 H147        3.2183  -22.3136  -44.2764 H         1 UNK         0.0600 
    148 H148        2.4575  -20.7968  -44.7401 H         1 UNK         0.0600 
    149 H149        0.2157  -20.4547  -43.6859 H         1 UNK         0.3000 
    150 H150       -3.3285  -21.0752  -43.5768 H         1 UNK         0.0600 
    151 H151       -3.0968  -19.5082  -41.6886 H         1 UNK         0.0600 
    152 H152       -1.3540  -19.7634  -41.6372 H         1 UNK         0.0600 
    153 H153       -2.4517  -21.0769  -41.2318 H         1 UNK         0.0600 
    154 H154       -1.9513  -18.6264  -43.7951 H         1 UNK         0.3000 
    155 H155       -1.6921  -18.5588  -47.3934 H         1 UNK         0.0600 
    156 H156       -3.9759  -17.7838  -46.6950 H         1 UNK         0.0600 
    157 H157       -3.2723  -16.9536  -45.3115 H         1 UNK         0.0600 
    158 H158       -2.8814  -16.4364  -46.9501 H         1 UNK         0.0600 
    159 H159       -0.7937  -16.6675  -45.5158 H         1 UNK         0.3000 
    160 H160        2.5108  -18.0603  -45.0088 H         1 UNK         0.0600 
    161 H161        3.0790  -15.7935  -45.6679 H         1 UNK         0.0600 
    162 H162        1.4169  -15.4252  -46.0997 H         1 UNK         0.0600 
    163 H163        2.3514  -16.5622  -47.0712 H         1 UNK         0.0600 
    164 H164        1.2577  -15.8422  -43.7596 H         1 UNK         0.3000 
    165 H165       -0.1423  -17.5419  -40.9467 H         1 UNK         0.0600 
    166 H166        1.2326  -15.7908  -39.8404 H         1 UNK         0.0600 
    167 H167        2.2512  -17.0961  -40.4282 H         1 UNK         0.0600 
    168 H168        2.1840  -15.5759  -41.3092 H         1 UNK         0.0600 
    169 H169       -0.0974  -14.8107  -41.9021 H         1 UNK         0.3000 
    170 H170       -3.2968  -14.9240  -43.4819 H         1 UNK         0.0600 
    171 H171       -2.3503  -13.6391  -40.8637 H         1 UNK         0.0600 
    172 H172       -3.7300  -13.1278  -41.8363 H         1 UNK         0.0600 
    173 H173       -3.7506  -14.6907  -41.0355 H         1 UNK         0.0600 
    174 H174       -1.4612  -12.7843  -43.0262 H         1 UNK         0.3000 
    175 H175        0.2912  -13.1431  -46.1317 H         1 UNK         0.0600 
    176 H176       -0.5636  -10.8410  -46.3909 H         1 UNK         0.0600 
    177 H177       -1.7142  -11.0830  -45.0787 H         1 UNK         0.0600 
    178 H178       -1.8813  -11.9847  -46.5808 H         1 UNK         0.0600 
    179 H179        0.8334  -11.1396  -44.4415 H         1 UNK         0.3000 
    180 H180        2.3406  -11.0915  -42.6195 H         1 UNK         0.0600 
    181 H181        3.9910  -13.6793  -42.3790 H         1 UNK         0.0600 
    182 H182        2.9121  -13.0323  -41.1473 H         1 UNK         0.0600 
    183 H183        4.3622  -12.1461  -41.5953 H         1 UNK         0.0600 
    184 H184        3.8953  -12.5011  -44.7494 H         1 UNK         0.3000 
    185 H185        4.3817   -9.4816  -46.5045 H         1 UNK         0.0600 
    186 H186        6.3776  -11.5787  -45.4885 H         1 UNK         0.0600 
    187 H187        6.6030  -10.5197  -46.8800 H         1 UNK         0.0600 
    188 H188        6.5220   -9.8393  -45.2624 H         1 UNK         0.0600 
    189 H189        4.6761  -12.2902  -47.1340 H         1 UNK         0.3000 
    190 H190       -1.9874  -22.3740  -46.6561 H         1 UNK         0.3000 
    191 H191       -3.5951  -24.2523  -48.0997 H         1 UNK         0.0600 
    192 H192       -4.5713  -22.3064  -46.9373 H         1 UNK         0.0600 
    193 H193       -5.2553  -23.7912  -46.2921 H         1 UNK         0.0600 
    194 H194       -4.0294  -22.9201  -45.3768 H         1 UNK         0.0600 
    195 H195       -1.9060  -24.4404  -44.9111 H         1 UNK         0.3000 
    196 H196       -2.7240  -27.0691  -44.2394 H         1 UNK         0.0600 
    197 H197       -0.8110  -26.9579  -42.6237 H         1 UNK         0.0600 
    198 H198       -1.7849  -25.4968  -42.5839 H         1 UNK         0.0600 
    199 H199       -0.2284  -25.4957  -43.4112 H         1 UNK         0.0600 
    200 H200        0.0635  -25.9054  -46.1342 H         1 UNK         0.3000 
    201 H201        1.2422  -28.4873  -46.6173 H         1 UNK         0.0600 
    202 H202        2.5021  -26.3421  -46.7854 H         1 UNK         0.0600 
    203 H203        1.4859  -25.8302  -48.1320 H         1 UNK         0.0600 
    204 H204        2.5614  -27.2108  -48.3107 H         1 UNK         0.0600 
    205 H205       -1.6358  -27.1089  -47.7976 H         1 UNK         0.3000 
    206 H206       -3.0987  -27.4694  -49.3882 H         1 UNK         0.0600 
    207 H207       -2.9226  -29.8678  -48.6710 H         1 UNK         0.0600 
    208 H208       -3.3685  -29.7059  -50.3612 H         1 UNK         0.0600 
    209 H209       -1.7237  -30.1519  -49.9329 H         1 UNK         0.0600 
    210 H210       -0.7155  -25.9884  -50.0047 H         1 UNK         0.3000 
    211 H211       -0.1324  -26.4730  -52.8660 H         1 UNK         0.0600 
    212 H212        0.9443  -24.3996  -50.8749 H         1 UNK         0.0600 
    213 H213        1.4938  -24.6144  -52.5318 H         1 UNK         0.0600 
    214 H214        1.7472  -25.8931  -51.3525 H         1 UNK         0.0600 
    215 H215       -1.5163  -24.0003  -50.7060 H         1 UNK         0.3000 
    216 H216       -2.7430  -22.1678  -50.9530 H         1 UNK         0.0600 
    217 H217       -4.7832  -22.3362  -52.3419 H         1 UNK         0.0600 
    218 H218       -4.4531  -23.8916  -51.6136 H         1 UNK         0.0600 
    219 H219       -4.0672  -23.6210  -53.3089 H         1 UNK         0.0600 
    220 H220       -3.8680  -20.9376  -53.3781 H         1 UNK         0.3000 
    221 H221       -1.6837  -20.3434  -55.1931 H         1 UNK         0.0600 
    222 H222       -2.7233  -18.0949  -53.3812 H         1 UNK         0.0600 
    223 H223       -1.1063  -18.7994  -53.3061 H         1 UNK         0.0600 
    224 H224       -1.6058  -17.9053  -54.7239 H         1 UNK         0.0600 
    225 H225       -4.4403  -21.4435  -55.1569 H         1 UNK         0.3000 
    226 H226       -6.2835  -21.5527  -56.3259 H         1 UNK         0.0600 
    227 H227       -4.7642  -21.2359  -58.2908 H         1 UNK         0.0600 
    228 H228       -6.3843  -20.6351  -58.5991 H         1 UNK         0.0600 
    229 H229       -5.0873  -19.5023  -58.2592 H         1 UNK         0.0600 
    230 H230       -5.6859  -18.8110  -54.5921 H         1 UNK         0.3000 
    231 H231       -8.4480  -18.1241  -54.3118 H         1 UNK         0.0600 
    232 H232       -6.5017  -16.0524  -55.5079 H         1 UNK         0.0600 
    233 H233       -8.1116  -15.6859  -54.8984 H         1 UNK         0.0600 
    234 H234       -7.9264  -16.6989  -56.3190 H         1 UNK         0.0600 
    235 H235       -8.6531  -16.6099  -52.5057 H         1 UNK         0.3000 
    236 H236       -8.3328  -15.8557  -50.4707 H         1 UNK         0.0600 
    237 H237       -5.3671  -15.5534  -51.1765 H         1 UNK         0.0600 
    238 H238       -6.6306  -14.3890  -51.5689 H         1 UNK         0.0600 
    239 H239       -6.2262  -14.7173  -49.8933 H         1 UNK         0.0600 
    240 H240       -7.5984  -18.8433  -51.1157 H         1 UNK         0.3000 
    241 H241       -6.8688  -19.6224  -48.3619 H         1 UNK         0.0600 
    242 H242       -9.1358  -22.3368  -48.6907 H         1 UNK         0.3800 
    243 H243       -7.9282  -21.5857  -47.6884 H         1 UNK         0.3800 
    244 H244       -5.5021  -21.5476  -49.5297 H         1 UNK         0.0800 
    245 H245       -5.4748  -20.5265  -50.9401 H         1 UNK         0.0800 
    246 H246       -4.2791  -17.7032  -50.5047 H         1 UNK         0.0800 
    247 H247       -3.6487  -19.0557  -51.4136 H         1 UNK         0.0800 
@<TRIPOS>BOND
     1    1    2 1    
     2    1  127 1    
     3    1  128 1    
     4    1  129 1    
     5    2    3 2    
     6    2    4 am   BACKBONE|DICT|INTERRES
     7    4    5 1    
     8    4  130 1    
     9    5    6 1    
    10    5   65 1    
    11    5  131 1    
    12    6    7 1    
    13    6  132 1    
    14    6  133 1    
    15    7    8 1    
    16    8    9 1    
    17    8  134 1    
    18    8  135 1    
    19    9   10 ar   
    20    9   14 ar   
    21   10   11 ar   
    22   10  136 1    
    23   11   12 ar   
    24   11  126 1    
    25   12   13 ar   
    26   12  137 1    
    27   13   14 ar   
    28   13   15 1    
    29   14  138 1    
    30   15   16 1    
    31   15  139 1    
    32   15  140 1    
    33   16   17 1    
    34   17   18 1    
    35   17  141 1    
    36   17  142 1    
    37   18   19 1    
    38   18   67 1    
    39   18  143 1    
    40   19   20 am   BACKBONE|DICT|INTERRES
    41   19  144 1    
    42   20   21 2    
    43   20   22 1    
    44   22   23 1    
    45   22   24 1    
    46   22  145 1    
    47   23  146 1    
    48   23  147 1    
    49   23  148 1    
    50   24   25 am   BACKBONE|DICT|INTERRES
    51   24  149 1    
    52   25   26 2    
    53   25   27 1    
    54   27   28 1    
    55   27   29 1    
    56   27  150 1    
    57   28  151 1    
    58   28  152 1    
    59   28  153 1    
    60   29   30 am   BACKBONE|DICT|INTERRES
    61   29  154 1    
    62   30   31 2    
    63   30   32 1    
    64   32   33 1    
    65   32   34 1    
    66   32  155 1    
    67   33  156 1    
    68   33  157 1    
    69   33  158 1    
    70   34   35 am   BACKBONE|DICT|INTERRES
    71   34  159 1    
    72   35   36 2    
    73   35   37 1    
    74   37   38 1    
    75   37   39 1    
    76   37  160 1    
    77   38  161 1    
    78   38  162 1    
    79   38  163 1    
    80   39   40 am   BACKBONE|DICT|INTERRES
    81   39  164 1    
    82   40   41 2    
    83   40   42 1    
    84   42   43 1    
    85   42   44 1    
    86   42  165 1    
    87   43  166 1    
    88   43  167 1    
    89   43  168 1    
    90   44   45 am   BACKBONE|DICT|INTERRES
    91   44  169 1    
    92   45   46 2    
    93   45   47 1    
    94   47   48 1    
    95   47   49 1    
    96   47  170 1    
    97   48  171 1    
    98   48  172 1    
    99   48  173 1    
   100   49   50 am   BACKBONE|DICT|INTERRES
   101   49  174 1    
   102   50   51 2    
   103   50   52 1    
   104   52   53 1    
   105   52   54 1    
   106   52  175 1    
   107   53  176 1    
   108   53  177 1    
   109   53  178 1    
   110   54   55 am   BACKBONE|DICT|INTERRES
   111   54  179 1    
   112   55   56 2    
   113   55   57 1    
   114   57   58 1    
   115   57   59 1    
   116   57  180 1    
   117   58  181 1    
   118   58  182 1    
   119   58  183 1    
   120   59   60 am   BACKBONE|DICT|INTERRES
   121   59  184 1    
   122   60   61 2    
   123   60   62 1    
   124   62   63 1    
   125   62   64 1    
   126   62  185 1    
   127   63  186 1    
   128   63  187 1    
   129   63  188 1    
   130   64   65 am   BACKBONE|DICT|INTERRES
   131   64  189 1    
   132   65   66 2    
   133   67   68 2    
   134   67   69 am   BACKBONE|DICT|INTERRES
   135   69   70 1    
   136   69  190 1    
   137   70   71 1    
   138   70   72 1    
   139   70  191 1    
   140   71  192 1    
   141   71  193 1    
   142   71  194 1    
   143   72   73 2    
   144   72   74 am   BACKBONE|DICT|INTERRES
   145   74   75 1    
   146   74  195 1    
   147   75   76 1    
   148   75   77 1    
   149   75  196 1    
   150   76  197 1    
   151   76  198 1    
   152   76  199 1    
   153   77   78 2    
   154   77   79 am   BACKBONE|DICT|INTERRES
   155   79   80 1    
   156   79  200 1    
   157   80   81 1    
   158   80   82 1    
   159   80  201 1    
   160   81  202 1    
   161   81  203 1    
   162   81  204 1    
   163   82   83 2    
   164   82   84 am   BACKBONE|DICT|INTERRES
   165   84   85 1    
   166   84  205 1    
   167   85   86 1    
   168   85   87 1    
   169   85  206 1    
   170   86  207 1    
   171   86  208 1    
   172   86  209 1    
   173   87   88 2    
   174   87   89 am   BACKBONE|DICT|INTERRES
   175   89   90 1    
   176   89  210 1    
   177   90   91 1    
   178   90   92 1    
   179   90  211 1    
   180   91  212 1    
   181   91  213 1    
   182   91  214 1    
   183   92   93 2    
   184   92   94 am   BACKBONE|DICT|INTERRES
   185   94   95 1    
   186   94  215 1    
   187   95   96 1    
   188   95   97 1    
   189   95  216 1    
   190   96  217 1    
   191   96  218 1    
   192   96  219 1    
   193   97   98 2    
   194   97   99 am   BACKBONE|DICT|INTERRES
   195   99  100 1    
   196   99  220 1    
   197  100  101 1    
   198  100  102 1    
   199  100  221 1    
   200  101  222 1    
   201  101  223 1    
   202  101  224 1    
   203  102  103 2    
   204  102  104 am   BACKBONE|DICT|INTERRES
   205  104  105 1    
   206  104  225 1    
   207  105  106 1    
   208  105  107 1    
   209  105  226 1    
   210  106  227 1    
   211  106  228 1    
   212  106  229 1    
   213  107  108 2    
   214  107  109 am   BACKBONE|DICT|INTERRES
   215  109  110 1    
   216  109  230 1    
   217  110  111 1    
   218  110  112 1    
   219  110  231 1    
   220  111  232 1    
   221  111  233 1    
   222  111  234 1    
   223  112  113 2    
   224  112  114 am   BACKBONE|DICT|INTERRES
   225  114  115 1    
   226  114  235 1    
   227  115  116 1    
   228  115  117 1    
   229  115  236 1    
   230  116  237 1    
   231  116  238 1    
   232  116  239 1    
   233  117  118 2    
   234  117  119 am   BACKBONE|DICT|INTERRES
   235  119  120 1    
   236  119  240 1    
   237  120  121 1    
   238  120  124 1    
   239  120  241 1    
   240  121  122 am   BACKBONE|DICT|INTERRES
   241  121  123 2    
   242  122  242 1    
   243  122  243 1    
   244  124  125 1    
   245  124  244 1    
   246  124  245 1    
   247  125  126 1    
   248  126  246 1    
   249  126  247 1    
@<TRIPOS>SUBSTRUCTURE
     1 UNK         1 GROUP             0       ****    0 ROOT    
