@<TRIPOS>MOLECULE
3R540
247   249    1
SMALL
USER_CHARGES


@<TRIPOS>ATOM
      1 CA         -2.0278  -14.2628  -44.7863 C.3       0 UNK        -0.1800 
      2 C          -1.6438  -13.5501  -46.0704 C.2       0 UNK         0.5000 
      3 O          -1.9780  -12.3771  -46.2396 O.2       0 UNK        -0.5000 
      4 N          -0.9589  -14.2499  -46.9785 N.am      1 UNK        -0.5000 
      5 CA         -0.5362  -13.7362  -48.2749 C.3       1 UNK         0.1400 
      6 C6         -1.7141  -13.6354  -49.2871 C.3       23 UNK        -0.0398 
      7 S7         -2.3844  -15.2352  -49.8688 S.3       23 UNK        -0.2404 
      8 C8         -3.8290  -15.4850  -48.7982 C.3       23 UNK        -0.0205 
      9 C9         -4.5214  -16.7937  -49.1472 C.ar      23 UNK        -0.0193 
     10 C10        -5.5290  -16.8235  -50.1143 C.ar      23 UNK        -0.1150 
     11 C11        -6.1514  -18.0254  -50.4685 C.ar      23 UNK        -0.0193 
     12 C12        -5.7587  -19.2082  -49.8258 C.ar      23 UNK        -0.1150 
     13 C13        -4.7456  -19.1936  -48.8624 C.ar      23 UNK        -0.0193 
     14 C14        -4.1355  -17.9823  -48.5244 C.ar      23 UNK        -0.1150 
     15 C15        -4.2650  -20.4916  -48.2323 C.3       23 UNK        -0.0205 
     16 S16        -5.2379  -20.9771  -46.7735 S.3       23 UNK        -0.2404 
     17 C17        -4.3556  -22.5057  -46.2942 C.3       23 UNK        -0.0398 
     18 CA         -3.0768  -22.2247  -45.4580 C.3       11 UNK         0.1400 
     19 N          -3.3347  -21.5109  -44.2041 N.am      11 UNK        -0.5000 
     20 C          -3.9750  -21.9621  -43.1166 C.2       10 UNK         0.5000 
     21 O          -4.4713  -23.0857  -43.0323 O.2       10 UNK        -0.5000 
     22 CA         -4.0524  -21.0090  -41.9033 C.3       10 UNK         0.1400 
     23 CB         -3.1387  -21.5162  -40.7760 C.3       10 UNK        -0.1800 
     24 N          -3.6658  -19.6334  -42.2234 N.am      10 UNK        -0.5000 
     25 C          -4.4141  -18.7535  -42.9033 C.2       9 UNK         0.5000 
     26 O          -5.5846  -18.9530  -43.2271 O.2       9 UNK        -0.5000 
     27 CA         -3.7062  -17.4539  -43.3369 C.3       9 UNK         0.1400 
     28 CB         -3.7834  -16.3972  -42.2241 C.3       9 UNK        -0.1800 
     29 N          -2.3050  -17.6842  -43.7086 N.am      9 UNK        -0.5000 
     30 C          -1.9138  -18.4261  -44.7557 C.2       8 UNK         0.5000 
     31 O          -2.6940  -18.9398  -45.5496 O.2       8 UNK        -0.5000 
     32 CA         -0.4149  -18.7110  -44.9161 C.3       8 UNK         0.1400 
     33 CB          0.2441  -17.6659  -45.8188 C.3       8 UNK        -0.1800 
     34 N           0.2553  -18.7673  -43.6178 N.am      8 UNK        -0.5000 
     35 C           0.3123  -19.8747  -42.8654 C.2       7 UNK         0.5000 
     36 O          -0.0958  -20.9707  -43.2515 O.2       7 UNK        -0.5000 
     37 CA          0.9048  -19.7496  -41.4487 C.3       7 UNK         0.1400 
     38 CB          2.3877  -20.1437  -41.4422 C.3       7 UNK        -0.1800 
     39 N           0.7535  -18.4112  -40.8747 N.am      7 UNK        -0.5000 
     40 C          -0.4206  -17.8928  -40.4906 C.2       6 UNK         0.5000 
     41 O          -1.4870  -18.5027  -40.5667 O.2       6 UNK        -0.5000 
     42 CA         -0.4132  -16.4347  -39.9894 C.3       6 UNK         0.1400 
     43 CB         -0.1510  -16.3912  -38.4769 C.3       6 UNK        -0.1800 
     44 N           0.5417  -15.5506  -40.6704 N.am      6 UNK        -0.5000 
     45 C           0.6073  -15.3389  -41.9930 C.2       5 UNK         0.5000 
     46 O          -0.0754  -15.9625  -42.8056 O.2       5 UNK        -0.5000 
     47 CA          1.6154  -14.2905  -42.5052 C.3       5 UNK         0.1400 
     48 CB          2.2007  -13.3910  -41.3984 C.3       5 UNK        -0.1800 
     49 N           2.7089  -14.9835  -43.1801 N.am      5 UNK        -0.5000 
     50 C           2.7656  -15.2483  -44.4908 C.2       4 UNK         0.5000 
     51 O           1.9791  -14.7914  -45.3242 O.2       4 UNK        -0.5000 
     52 CA          3.8861  -16.2049  -44.9334 C.3       4 UNK         0.1400 
     53 CB          3.8899  -17.4961  -44.0805 C.3       4 UNK        -0.1800 
     54 N           3.7109  -16.5328  -46.3465 N.am      4 UNK        -0.5000 
     55 C           4.5977  -17.1769  -47.1135 C.2       3 UNK         0.5000 
     56 O           5.7240  -17.5012  -46.7346 O.2       3 UNK        -0.5000 
     57 CA          4.1543  -17.5424  -48.5396 C.3       3 UNK         0.1400 
     58 CB          3.4562  -18.9120  -48.5469 C.3       3 UNK        -0.1800 
     59 N           3.2622  -16.5582  -49.1457 N.am      3 UNK        -0.5000 
     60 C           3.6351  -15.3749  -49.6438 C.2       2 UNK         0.5000 
     61 O           4.7788  -14.9261  -49.5589 O.2       2 UNK        -0.5000 
     62 CA          2.5627  -14.5828  -50.4204 C.3       2 UNK         0.1400 
     63 CB          1.9563  -15.4221  -51.5648 C.3       2 UNK        -0.1800 
     64 N           1.4968  -13.9893  -49.6053 N.am      2 UNK        -0.5000 
     65 C           0.6237  -14.6038  -48.7952 C.2       1 UNK         0.5000 
     66 O           0.6706  -15.7997  -48.4953 O.2       1 UNK        -0.5000 
     67 C          -2.1746  -23.4638  -45.2584 C.2       11 UNK         0.5000 
     68 O          -2.3363  -24.4662  -45.9548 O.2       11 UNK        -0.5000 
     69 N          -1.2228  -23.3579  -44.3209 N.am      12 UNK        -0.5000 
     70 CA         -0.2003  -24.3641  -44.0436 C.3       12 UNK         0.1400 
     71 CB          0.0839  -24.3920  -42.5332 C.3       12 UNK        -0.1800 
     72 C           1.0852  -24.0681  -44.8341 C.2       12 UNK         0.5000 
     73 O           1.6856  -24.9918  -45.3835 O.2       12 UNK        -0.5000 
     74 N           1.4763  -22.7853  -44.8931 N.am      13 UNK        -0.5000 
     75 CA          2.6343  -22.3092  -45.6582 C.3       13 UNK         0.1400 
     76 CB          3.0452  -20.9162  -45.1578 C.3       13 UNK        -0.1800 
     77 C           2.3645  -22.2668  -47.1728 C.2       13 UNK         0.5000 
     78 O           3.2964  -22.4155  -47.9632 O.2       13 UNK        -0.5000 
     79 N           1.0946  -22.0610  -47.5434 N.am      14 UNK        -0.5000 
     80 CA          0.6023  -22.0876  -48.9159 C.3       14 UNK         0.1400 
     81 CB         -0.8134  -21.4922  -48.9331 C.3       14 UNK        -0.1800 
     82 C           0.6097  -23.5318  -49.4455 C.2       14 UNK         0.5000 
     83 O          -0.1509  -24.3617  -48.9417 O.2       14 UNK        -0.5000 
     84 N           1.4792  -23.8124  -50.4247 N.am      15 UNK        -0.5000 
     85 CA          1.6640  -25.1274  -51.0418 C.3       15 UNK         0.1400 
     86 CB          2.8033  -25.0475  -52.0698 C.3       15 UNK        -0.1800 
     87 C           0.3638  -25.6298  -51.6928 C.2       15 UNK         0.5000 
     88 O          -0.1330  -24.9907  -52.6204 O.2       15 UNK        -0.5000 
     89 N          -0.1971  -26.7182  -51.1457 N.am      16 UNK        -0.5000 
     90 CA         -1.5013  -27.3015  -51.4951 C.3       16 UNK         0.1400 
     91 CB         -1.4487  -27.9387  -52.8996 C.3       16 UNK        -0.1800 
     92 C          -2.6803  -26.3116  -51.3330 C.2       16 UNK         0.5000 
     93 O          -3.6782  -26.4221  -52.0468 O.2       16 UNK        -0.5000 
     94 N          -2.5250  -25.3487  -50.4101 N.am      17 UNK        -0.5000 
     95 CA         -3.4091  -24.2123  -50.1381 C.3       17 UNK         0.1400 
     96 CB         -4.7910  -24.6805  -49.6360 C.3       17 UNK        -0.1800 
     97 C          -3.5056  -23.1930  -51.2961 C.2       17 UNK         0.5000 
     98 O          -4.4348  -22.3854  -51.3070 O.2       17 UNK        -0.5000 
     99 N          -2.5494  -23.2130  -52.2354 N.am      18 UNK        -0.5000 
    100 CA        -2.4607  -22.2444  -53.3222 C.3       18 UNK         0.1400 
    101 CB        -1.9212  -22.9305  -54.5870 C.3       18 UNK        -0.1800 
    102 C         -1.5609  -21.0756  -52.8956 C.2       18 UNK         0.5000 
    103 O         -0.3806  -21.2846  -52.6065 O.2       18 UNK        -0.5000 
    104 N         -2.1330  -19.8703  -52.8734 N.am      19 UNK        -0.5000 
    105 CA        -1.4656  -18.6024  -52.6101 C.3       19 UNK         0.1400 
    106 CB        -1.1501  -18.4506  -51.1117 C.3       19 UNK        -0.1800 
    107 C         -2.3973  -17.4890  -53.1056 C.2       19 UNK         0.5000 
    108 O         -3.6124  -17.5975  -52.9224 O.2       19 UNK        -0.5000 
    109 N         -1.8215  -16.4625  -53.7482 N.am      20 UNK        -0.5000 
    110 CA        -2.5024  -15.3082  -54.3499 C.3       20 UNK         0.1400 
    111 CB        -2.9107  -14.3024  -53.2520 C.3       20 UNK        -0.1800 
    112 C         -3.6654  -15.7320  -55.2758 C.2       20 UNK         0.5000 
    113 O         -3.4261  -16.4441  -56.2532 O.2       20 UNK        -0.5000 
    114 N         -4.8987  -15.3338  -54.9339 N.am      21 UNK        -0.5000 
    115 CA        -6.1370  -15.6657  -55.6433 C.3       21 UNK         0.1400 
    116 CB        -7.2967  -14.8896  -55.0001 C.3       21 UNK        -0.1800 
    117 C         -6.4625  -17.1732  -55.6899 C.2       21 UNK         0.5000 
    118 O         -7.1680  -17.6039  -56.6033 O.2       21 UNK        -0.5000 
    119 N         -5.9399  -17.9446  -54.7283 N.am      22 UNK        -0.5000 
    120 CA        -6.0241  -19.4119  -54.6985 C.3       22 UNK         0.1400 
    121 C         -4.9074  -20.1075  -55.5329 C.2       22 UNK         0.5000 
    122 N         -3.9325  -19.3985  -56.0922 N.am      22 UNK        -0.7600 
    123 O         -4.9325  -21.3240  -55.6902 O.2       22 UNK        -0.5000 
    124 C124       -6.0660  -19.9524  -53.2442 C.3       23 UNK        -0.0398 
    125 S125       -7.6264  -19.5593  -52.3811 S.3       23 UNK        -0.2404 
    126 C126       -7.2455  -17.9826  -51.5371 C.3       23 UNK        -0.0205 
    127 H127       -3.1087  -14.2374  -44.6505 H         1 UNK         0.0600 
    128 H128       -1.5594  -13.7796  -43.9293 H         1 UNK         0.0600 
    129 H129       -1.7133  -15.3033  -44.8070 H         1 UNK         0.0600 
    130 H130       -0.6493  -15.1961  -46.7965 H         1 UNK         0.3000 
    131 H131       -0.1362  -12.7326  -48.1139 H         1 UNK         0.0600 
    132 H132       -1.3829  -13.0871  -50.1701 H         1 UNK         0.0800 
    133 H133       -2.5248  -13.0374  -48.8698 H         1 UNK         0.0800 
    134 H134       -4.5202  -14.6488  -48.9122 H         1 UNK         0.0800 
    135 H135       -3.5143  -15.4941  -47.7538 H         1 UNK         0.0800 
    136 H136       -5.8183  -15.9052  -50.6057 H         1 UNK         0.1150 
    137 H137       -6.2212  -20.1505  -50.0816 H         1 UNK         0.1150 
    138 H138       -3.3401  -17.9654  -47.7941 H         1 UNK         0.1150 
    139 H139       -4.2965  -21.2922  -48.9692 H         1 UNK         0.0800 
    140 H140       -3.2220  -20.3786  -47.9401 H         1 UNK         0.0800 
    141 H141       -4.1128  -23.0537  -47.2049 H         1 UNK         0.0800 
    142 H142       -5.0430  -23.1426  -45.7361 H         1 UNK         0.0800 
    143 H143       -2.4571  -21.5474  -46.0447 H         1 UNK         0.0600 
    144 H144       -3.0323  -20.5461  -44.2023 H         1 UNK         0.3000 
    145 H145       -5.0832  -21.0100  -41.5436 H         1 UNK         0.0600 
    146 H146       -3.2080  -20.8783  -39.8946 H         1 UNK         0.0600 
    147 H147       -3.4156  -22.5257  -40.4693 H         1 UNK         0.0600 
    148 H148       -2.0938  -21.5425  -41.0882 H         1 UNK         0.0600 
    149 H149       -2.7467  -19.3381  -41.9101 H         1 UNK         0.3000 
    150 H150       -4.2228  -17.0640  -44.2166 H         1 UNK         0.0600 
    151 H151       -4.8172  -16.0969  -42.0502 H         1 UNK         0.0600 
    152 H152       -3.2217  -15.4997  -42.4802 H         1 UNK         0.0600 
    153 H153       -3.3949  -16.7762  -41.2797 H         1 UNK         0.0600 
    154 H154       -1.5950  -17.2430  -43.1347 H         1 UNK         0.3000 
    155 H155       -0.3164  -19.6760  -45.4183 H         1 UNK         0.0600 
    156 H156        0.1786  -16.6675  -45.3912 H         1 UNK         0.0600 
    157 H157       -0.2422  -17.6399  -46.7947 H         1 UNK         0.0600 
    158 H158        1.2939  -17.8975  -45.9878 H         1 UNK         0.0600 
    159 H159        0.5355  -17.8795  -43.2181 H         1 UNK         0.3000 
    160 H160        0.3677  -20.4554  -40.8115 H         1 UNK         0.0600 
    161 H161        2.9876  -19.4766  -42.0611 H         1 UNK         0.0600 
    162 H162        2.5222  -21.1583  -41.8197 H         1 UNK         0.0600 
    163 H163        2.7963  -20.1206  -40.4318 H         1 UNK         0.0600 
    164 H164        1.5860  -17.8482  -40.7838 H         1 UNK         0.3000 
    165 H165       -1.4091  -16.0268  -40.1693 H         1 UNK         0.0600 
    166 H166       -0.2577  -15.3790  -38.0863 H         1 UNK         0.0600 
    167 H167       -0.8605  -17.0212  -37.9385 H         1 UNK         0.0600 
    168 H168        0.8521  -16.7425  -38.2320 H         1 UNK         0.0600 
    169 H169        1.1495  -15.0099  -40.0725 H         1 UNK         0.3000 
    170 H170        1.0812  -13.6503  -43.2105 H         1 UNK         0.0600 
    171 H171        1.4117  -12.8697  -40.8544 H         1 UNK         0.0600 
    172 H172        2.7941  -13.9541  -40.6770 H         1 UNK         0.0600 
    173 H173        2.8490  -12.6264  -41.8271 H         1 UNK         0.0600 
    174 H174        3.4022  -15.4022  -42.5775 H         1 UNK         0.3000 
    175 H175        4.8370  -15.6828  -44.8117 H         1 UNK         0.0600 
    176 H176        2.9349  -18.0159  -44.1434 H         1 UNK         0.0600 
    177 H177        4.6646  -18.1930  -44.3984 H         1 UNK         0.0600 
    178 H178        4.0819  -17.2851  -43.0286 H         1 UNK         0.0600 
    179 H179        2.8290  -16.2273  -46.7420 H         1 UNK         0.3000 
    180 H180        5.0521  -17.6165  -49.1570 H         1 UNK         0.0600 
    181 H181        2.5391  -18.9034  -47.9564 H         1 UNK         0.0600 
    182 H182        4.1073  -19.6822  -48.1319 H         1 UNK         0.0600 
    183 H183        3.1981  -19.2198  -49.5602 H         1 UNK         0.0600 
    184 H184        2.2699  -16.7707  -49.1532 H         1 UNK         0.3000 
    185 H185        3.0810  -13.7417  -50.8838 H         1 UNK         0.0600 
    186 H186        2.7380  -15.8322  -52.2054 H         1 UNK         0.0600 
    187 H187        1.3664  -16.2596  -51.1928 H         1 UNK         0.0600 
    188 H188        1.3062  -14.8146  -52.1946 H         1 UNK         0.0600 
    189 H189        1.3839  -12.9942  -49.7396 H         1 UNK         0.3000 
    190 H190       -1.1305  -22.4822  -43.8141 H         1 UNK         0.3000 
    191 H191       -0.5609  -25.3523  -44.3374 H         1 UNK         0.0600 
    192 H192       -0.8181  -24.6298  -41.9691 H         1 UNK         0.0600 
    193 H193        0.4605  -23.4347  -42.1708 H         1 UNK         0.0600 
    194 H194        0.8291  -25.1507  -42.2911 H         1 UNK         0.0600 
    195 H195        0.9440  -22.0927  -44.3754 H         1 UNK         0.3000 
    196 H196        3.4696  -22.9918  -45.4879 H         1 UNK         0.0600 
    197 H197        3.9163  -20.5465  -45.7004 H         1 UNK         0.0600 
    198 H198        3.3130  -20.9398  -44.1029 H         1 UNK         0.0600 
    199 H199        2.2464  -20.1874  -45.2914 H         1 UNK         0.0600 
    200 H200        0.3997  -22.0063  -46.8165 H         1 UNK         0.3000 
    201 H201        1.2472  -21.4645  -49.5395 H         1 UNK         0.0600 
    202 H202       -0.8089  -20.4576  -48.5889 H         1 UNK         0.0600 
    203 H203       -1.4923  -22.0561  -48.2939 H         1 UNK         0.0600 
    204 H204       -1.2292  -21.4983  -49.9400 H         1 UNK         0.0600 
    205 H205        2.0575  -23.0684  -50.7867 H         1 UNK         0.3000 
    206 H206        1.9629  -25.8251  -50.2568 H         1 UNK         0.0600 
    207 H207        3.7406  -24.7512  -51.5985 H         1 UNK         0.0600 
    208 H208        2.9696  -26.0160  -52.5433 H         1 UNK         0.0600 
    209 H209        2.5829  -24.3290  -52.8606 H         1 UNK         0.0600 
    210 H210        0.2701  -27.1503  -50.3603 H         1 UNK         0.3000 
    211 H211       -1.6810  -28.1021  -50.7763 H         1 UNK         0.0600 
    212 H212       -1.3413  -27.1864  -53.6817 H         1 UNK         0.0600 
    213 H213       -2.3596  -28.5004  -53.1099 H         1 UNK         0.0600 
    214 H214       -0.6141  -28.6342  -52.9862 H         1 UNK         0.0600 
    215 H215       -1.6523  -25.3294  -49.8900 H         1 UNK         0.3000 
    216 H216       -2.9383  -23.6740  -49.3160 H         1 UNK         0.0600 
    217 H217       -5.3870  -23.8373  -49.2846 H         1 UNK         0.0600 
    218 H218       -4.6923  -25.3748  -48.8016 H         1 UNK         0.0600 
    219 H219       -5.3633  -25.1749  -50.4211 H         1 UNK         0.0600 
    220 H220       -1.7888  -23.8822  -52.1756 H         1 UNK         0.3000 
    221 H221       -3.4563  -21.8663  -53.5568 H         1 UNK         0.0600 
    222 H222       -0.8959  -23.2778  -54.4591 H         1 UNK         0.0600 
    223 H223       -2.5351  -23.7884  -54.8618 H         1 UNK         0.0600 
    224 H224       -1.9293  -22.2407  -55.4316 H         1 UNK         0.0600 
    225 H225       -3.1116  -19.7671  -53.1052 H         1 UNK         0.3000 
    226 H226       -0.5355  -18.5687  -53.1811 H         1 UNK         0.0600 
    227 H227       -0.4340  -19.2001  -50.7772 H         1 UNK         0.0600 
    228 H228       -0.7116  -17.4754  -50.9011 H         1 UNK         0.0600 
    229 H229       -2.0493  -18.5451  -50.5022 H         1 UNK         0.0600 
    230 H230       -0.8207  -16.4842  -53.8808 H         1 UNK         0.3000 
    231 H231       -1.7706  -14.8156  -54.9916 H         1 UNK         0.0600 
    232 H232       -3.6300  -14.7302  -52.5526 H         1 UNK         0.0600 
    233 H233       -3.3516  -13.4019  -53.6813 H         1 UNK         0.0600 
    234 H234       -2.0409  -13.9854  -52.6767 H         1 UNK         0.0600 
    235 H235       -4.9998  -14.7807  -54.0956 H         1 UNK         0.3000 
    236 H236       -6.0269  -15.3259  -56.6751 H         1 UNK         0.0600 
    237 H237       -8.2354  -15.0868  -55.5197 H         1 UNK         0.0600 
    238 H238       -7.4356  -15.1684  -53.9548 H         1 UNK         0.0600 
    239 H239       -7.1243  -13.8140  -55.0420 H         1 UNK         0.0600 
    240 H240       -5.3205  -17.5293  -54.0398 H         1 UNK         0.3000 
    241 H241       -6.9589  -19.7120  -55.1758 H         1 UNK         0.0600 
    242 H242       -3.2409  -19.8738  -56.6489 H         1 UNK         0.3800 
    243 H243       -3.9072  -18.3867  -56.0294 H         1 UNK         0.3800 
    244 H244       -5.9851  -21.0408  -53.2386 H         1 UNK         0.0800 
    245 H245       -5.2187  -19.5931  -52.6617 H         1 UNK         0.0800 
    246 H246       -6.9864  -17.2419  -52.2939 H         1 UNK         0.0800 
    247 H247       -8.1610  -17.6247  -51.0650 H         1 UNK         0.0800 
@<TRIPOS>BOND
     1    1    2 1    
     2    1  127 1    
     3    1  128 1    
     4    1  129 1    
     5    2    3 2    
     6    2    4 am   BACKBONE|DICT|INTERRES
     7    4    5 1    
     8    4  130 1    
     9    5    6 1    
    10    5   65 1    
    11    5  131 1    
    12    6    7 1    
    13    6  132 1    
    14    6  133 1    
    15    7    8 1    
    16    8    9 1    
    17    8  134 1    
    18    8  135 1    
    19    9   10 ar   
    20    9   14 ar   
    21   10   11 ar   
    22   10  136 1    
    23   11   12 ar   
    24   11  126 1    
    25   12   13 ar   
    26   12  137 1    
    27   13   14 ar   
    28   13   15 1    
    29   14  138 1    
    30   15   16 1    
    31   15  139 1    
    32   15  140 1    
    33   16   17 1    
    34   17   18 1    
    35   17  141 1    
    36   17  142 1    
    37   18   19 1    
    38   18   67 1    
    39   18  143 1    
    40   19   20 am   BACKBONE|DICT|INTERRES
    41   19  144 1    
    42   20   21 2    
    43   20   22 1    
    44   22   23 1    
    45   22   24 1    
    46   22  145 1    
    47   23  146 1    
    48   23  147 1    
    49   23  148 1    
    50   24   25 am   BACKBONE|DICT|INTERRES
    51   24  149 1    
    52   25   26 2    
    53   25   27 1    
    54   27   28 1    
    55   27   29 1    
    56   27  150 1    
    57   28  151 1    
    58   28  152 1    
    59   28  153 1    
    60   29   30 am   BACKBONE|DICT|INTERRES
    61   29  154 1    
    62   30   31 2    
    63   30   32 1    
    64   32   33 1    
    65   32   34 1    
    66   32  155 1    
    67   33  156 1    
    68   33  157 1    
    69   33  158 1    
    70   34   35 am   BACKBONE|DICT|INTERRES
    71   34  159 1    
    72   35   36 2    
    73   35   37 1    
    74   37   38 1    
    75   37   39 1    
    76   37  160 1    
    77   38  161 1    
    78   38  162 1    
    79   38  163 1    
    80   39   40 am   BACKBONE|DICT|INTERRES
    81   39  164 1    
    82   40   41 2    
    83   40   42 1    
    84   42   43 1    
    85   42   44 1    
    86   42  165 1    
    87   43  166 1    
    88   43  167 1    
    89   43  168 1    
    90   44   45 am   BACKBONE|DICT|INTERRES
    91   44  169 1    
    92   45   46 2    
    93   45   47 1    
    94   47   48 1    
    95   47   49 1    
    96   47  170 1    
    97   48  171 1    
    98   48  172 1    
    99   48  173 1    
   100   49   50 am   BACKBONE|DICT|INTERRES
   101   49  174 1    
   102   50   51 2    
   103   50   52 1    
   104   52   53 1    
   105   52   54 1    
   106   52  175 1    
   107   53  176 1    
   108   53  177 1    
   109   53  178 1    
   110   54   55 am   BACKBONE|DICT|INTERRES
   111   54  179 1    
   112   55   56 2    
   113   55   57 1    
   114   57   58 1    
   115   57   59 1    
   116   57  180 1    
   117   58  181 1    
   118   58  182 1    
   119   58  183 1    
   120   59   60 am   BACKBONE|DICT|INTERRES
   121   59  184 1    
   122   60   61 2    
   123   60   62 1    
   124   62   63 1    
   125   62   64 1    
   126   62  185 1    
   127   63  186 1    
   128   63  187 1    
   129   63  188 1    
   130   64   65 am   BACKBONE|DICT|INTERRES
   131   64  189 1    
   132   65   66 2    
   133   67   68 2    
   134   67   69 am   BACKBONE|DICT|INTERRES
   135   69   70 1    
   136   69  190 1    
   137   70   71 1    
   138   70   72 1    
   139   70  191 1    
   140   71  192 1    
   141   71  193 1    
   142   71  194 1    
   143   72   73 2    
   144   72   74 am   BACKBONE|DICT|INTERRES
   145   74   75 1    
   146   74  195 1    
   147   75   76 1    
   148   75   77 1    
   149   75  196 1    
   150   76  197 1    
   151   76  198 1    
   152   76  199 1    
   153   77   78 2    
   154   77   79 am   BACKBONE|DICT|INTERRES
   155   79   80 1    
   156   79  200 1    
   157   80   81 1    
   158   80   82 1    
   159   80  201 1    
   160   81  202 1    
   161   81  203 1    
   162   81  204 1    
   163   82   83 2    
   164   82   84 am   BACKBONE|DICT|INTERRES
   165   84   85 1    
   166   84  205 1    
   167   85   86 1    
   168   85   87 1    
   169   85  206 1    
   170   86  207 1    
   171   86  208 1    
   172   86  209 1    
   173   87   88 2    
   174   87   89 am   BACKBONE|DICT|INTERRES
   175   89   90 1    
   176   89  210 1    
   177   90   91 1    
   178   90   92 1    
   179   90  211 1    
   180   91  212 1    
   181   91  213 1    
   182   91  214 1    
   183   92   93 2    
   184   92   94 am   BACKBONE|DICT|INTERRES
   185   94   95 1    
   186   94  215 1    
   187   95   96 1    
   188   95   97 1    
   189   95  216 1    
   190   96  217 1    
   191   96  218 1    
   192   96  219 1    
   193   97   98 2    
   194   97   99 am   BACKBONE|DICT|INTERRES
   195   99  100 1    
   196   99  220 1    
   197  100  101 1    
   198  100  102 1    
   199  100  221 1    
   200  101  222 1    
   201  101  223 1    
   202  101  224 1    
   203  102  103 2    
   204  102  104 am   BACKBONE|DICT|INTERRES
   205  104  105 1    
   206  104  225 1    
   207  105  106 1    
   208  105  107 1    
   209  105  226 1    
   210  106  227 1    
   211  106  228 1    
   212  106  229 1    
   213  107  108 2    
   214  107  109 am   BACKBONE|DICT|INTERRES
   215  109  110 1    
   216  109  230 1    
   217  110  111 1    
   218  110  112 1    
   219  110  231 1    
   220  111  232 1    
   221  111  233 1    
   222  111  234 1    
   223  112  113 2    
   224  112  114 am   BACKBONE|DICT|INTERRES
   225  114  115 1    
   226  114  235 1    
   227  115  116 1    
   228  115  117 1    
   229  115  236 1    
   230  116  237 1    
   231  116  238 1    
   232  116  239 1    
   233  117  118 2    
   234  117  119 am   BACKBONE|DICT|INTERRES
   235  119  120 1    
   236  119  240 1    
   237  120  121 1    
   238  120  124 1    
   239  120  241 1    
   240  121  122 am   BACKBONE|DICT|INTERRES
   241  121  123 2    
   242  122  242 1    
   243  122  243 1    
   244  124  125 1    
   245  124  244 1    
   246  124  245 1    
   247  125  126 1    
   248  126  246 1    
   249  126  247 1    
@<TRIPOS>SUBSTRUCTURE
     1 UNK         1 GROUP             0       ****    0 ROOT    
