@<TRIPOS>MOLECULE
3R540
247   249    1
SMALL
USER_CHARGES


@<TRIPOS>ATOM
      1 CA         -2.1201  -15.7619  -44.4083 C.3       0 UNK        -0.1800 
      2 C          -1.4308  -15.2664  -45.6683 C.2       0 UNK         0.5000 
      3 O          -0.2526  -14.9219  -45.6332 O.2       0 UNK        -0.5000 
      4 N          -2.1749  -15.1903  -46.7796 N.am      1 UNK        -0.5000 
      5 CA         -1.7267  -14.6615  -48.0776 C.3       1 UNK         0.1400 
      6 C6         -0.6801  -15.5748  -48.7831 C.3       23 UNK        -0.0398 
      7 S7         -0.9908  -15.6586  -50.5814 S.3       23 UNK        -0.2404 
      8 C8         -0.9900  -17.4497  -50.9077 C.3       23 UNK        -0.0205 
      9 C9          0.3994  -17.9428  -51.2800 C.ar      23 UNK        -0.0193 
     10 C10         0.8774  -17.7423  -52.5785 C.ar      23 UNK        -0.1150 
     11 C11         2.1429  -18.2029  -52.9522 C.ar      23 UNK        -0.0193 
     12 C12         2.9319  -18.8701  -52.0130 C.ar      23 UNK        -0.1150 
     13 C13         2.4734  -19.0662  -50.7071 C.ar      23 UNK        -0.0193 
     14 C14         1.2047  -18.5988  -50.3436 C.ar      23 UNK        -0.1150 
     15 C15         3.3697  -19.7622  -49.6943 C.3       23 UNK        -0.0205 
     16 S16         2.7410  -21.4099  -49.2461 S.3       23 UNK        -0.2404 
     17 C17         2.0848  -21.0703  -47.5814 C.3       23 UNK        -0.0398 
     18 CA          0.9327  -22.0143  -47.1703 C.3       11 UNK         0.1400 
     19 N           0.7981  -22.0837  -45.7138 N.am      11 UNK        -0.5000 
     20 C           0.0050  -22.9354  -45.0504 C.2       10 UNK         0.5000 
     21 O          -0.6686  -23.8085  -45.5962 O.2       10 UNK        -0.5000 
     22 CA         -0.0926  -22.7420  -43.5252 C.3       10 UNK         0.1400 
     23 CB          1.0887  -23.4118  -42.8082 C.3       10 UNK        -0.1800 
     24 N          -0.1652  -21.3294  -43.1460 N.am      10 UNK        -0.5000 
     25 C          -1.1689  -20.5091  -43.4874 C.2       9 UNK         0.5000 
     26 O          -2.1715  -20.8781  -44.0979 O.2       9 UNK        -0.5000 
     27 CA         -1.0022  -19.0179  -43.1490 C.3       9 UNK         0.1400 
     28 CB         -1.3634  -18.7303  -41.6850 C.3       9 UNK        -0.1800 
     29 N           0.3431  -18.5192  -43.4395 N.am      9 UNK        -0.5000 
     30 C           0.8800  -18.4595  -44.6669 C.2       8 UNK         0.5000 
     31 O           0.2695  -18.7542  -45.6928 O.2       8 UNK        -0.5000 
     32 CA          2.3671  -18.0776  -44.7639 C.3       8 UNK         0.1400 
     33 CB          2.5540  -16.5563  -44.8068 C.3       8 UNK        -0.1800 
     34 N           3.1483  -18.6434  -43.6649 N.am      8 UNK        -0.5000 
     35 C           3.4264  -19.9485  -43.5378 C.2       7 UNK         0.5000 
     36 O           3.0784  -20.8016  -44.3528 O.2       7 UNK        -0.5000 
     37 CA          4.1763  -20.3754  -42.2636 C.3       7 UNK         0.1400 
     38 CB          5.6885  -20.1625  -42.4268 C.3       7 UNK        -0.1800 
     39 N           3.7085  -19.6569  -41.0781 N.am      7 UNK        -0.5000 
     40 C           2.4803  -19.7799  -40.5548 C.2       6 UNK         0.5000 
     41 O           1.6307  -20.5589  -40.9852 O.2       6 UNK        -0.5000 
     42 CA          2.1285  -18.8376  -39.3887 C.3       6 UNK         0.1400 
     43 CB          2.5185  -19.4721  -38.0457 C.3       6 UNK        -0.1800 
     44 N           2.7600  -17.5197  -39.5067 N.am      6 UNK        -0.5000 
     45 C           2.4990  -16.6370  -40.4800 C.2       5 UNK         0.5000 
     46 O           1.7029  -16.8462  -41.3979 O.2       5 UNK        -0.5000 
     47 CA          3.3217  -15.3366  -40.4600 C.3       5 UNK         0.1400 
     48 CB          4.5021  -15.4393  -41.4387 C.3       5 UNK        -0.1800 
     49 N           2.5249  -14.1581  -40.7998 N.am      5 UNK        -0.5000 
     50 C           1.5430  -13.6500  -40.0420 C.2       4 UNK         0.5000 
     51 O           1.1868  -14.1452  -38.9715 O.2       4 UNK        -0.5000 
     52 CA          0.8710  -12.3485  -40.5256 C.3       4 UNK         0.1400 
     53 CB          1.2359  -11.1814  -39.5929 C.3       4 UNK        -0.1800 
     54 N           1.2428  -11.9781  -41.8949 N.am      4 UNK        -0.5000 
     55 C           0.5606  -12.3405  -42.9870 C.2       3 UNK         0.5000 
     56 O          -0.4528  -13.0428  -42.9569 O.2       3 UNK        -0.5000 
     57 CA          1.1118  -11.8266  -44.3286 C.3       3 UNK         0.1400 
     58 CB          2.2892  -12.6938  -44.8016 C.3       3 UNK        -0.1800 
     59 N           0.0565  -11.8636  -45.3396 N.am      3 UNK        -0.5000 
     60 C          -0.5520  -10.7890  -45.8591 C.2       2 UNK         0.5000 
     61 O          -0.1965   -9.6334  -45.6200 O.2       2 UNK        -0.5000 
     62 CA         -1.7911  -11.0181  -46.7557 C.3       2 UNK         0.1400 
     63 CB         -1.8188  -10.0787  -47.9803 C.3       2 UNK        -0.1800 
     64 N          -2.0173  -12.4165  -47.1419 N.am      2 UNK        -0.5000 
     65 C          -1.2942  -13.1740  -47.9824 C.2       1 UNK         0.5000 
     66 O          -0.3273  -12.7566  -48.6213 O.2       1 UNK        -0.5000 
     67 C          -0.3989  -21.6340  -47.8527 C.2       11 UNK         0.5000 
     68 O          -0.8031  -22.2996  -48.8044 O.2       11 UNK        -0.5000 
     69 N          -1.0859  -20.6106  -47.3242 N.am      12 UNK        -0.5000 
     70 CA         -2.4081  -20.1754  -47.7753 C.3       12 UNK         0.1400 
     71 CB         -2.8046  -18.8793  -47.0543 C.3       12 UNK        -0.1800 
     72 C          -3.4888  -21.2549  -47.5902 C.2       12 UNK         0.5000 
     73 O          -4.3183  -21.4322  -48.4816 O.2       12 UNK        -0.5000 
     74 N          -3.4430  -21.9781  -46.4626 N.am      13 UNK        -0.5000 
     75 CA         -4.3130  -23.1185  -46.1741 C.3       13 UNK         0.1400 
     76 CB         -4.1419  -23.5512  -44.7105 C.3       13 UNK        -0.1800 
     77 C          -4.0723  -24.2978  -47.1339 C.2       13 UNK         0.5000 
     78 O          -5.0379  -24.8586  -47.6524 O.2       13 UNK        -0.5000 
     79 N          -2.7973  -24.6179  -47.4013 N.am      14 UNK        -0.5000 
     80 CA         -2.3776  -25.6248  -48.3820 C.3       14 UNK         0.1400 
     81 CB         -0.8615  -25.8475  -48.2763 C.3       14 UNK        -0.1800 
     82 C          -2.7809  -25.2594  -49.8246 C.2       14 UNK         0.5000 
     83 O          -3.1612  -26.1420  -50.5939 O.2       14 UNK        -0.5000 
     84 N          -2.7478  -23.9586  -50.1407 N.am      15 UNK        -0.5000 
     85 CA         -3.2329  -23.3652  -51.3870 C.3       15 UNK         0.1400 
     86 CB         -2.5240  -22.0159  -51.6005 C.3       15 UNK        -0.1800 
     87 C          -4.7687  -23.1999  -51.4382 C.2       15 UNK         0.5000 
     88 O          -5.2697  -22.5957  -52.3869 O.2       15 UNK        -0.5000 
     89 N          -5.4959  -23.7053  -50.4294 N.am      16 UNK        -0.5000 
     90 CA         -6.9566  -23.7066  -50.2996 C.3       16 UNK         0.1400 
     91 CB         -7.5870  -24.6259  -51.3674 C.3       16 UNK        -0.1800 
     92 C          -7.5567  -22.2860  -50.2920 C.2       16 UNK         0.5000 
     93 O          -8.5054  -22.0102  -51.0261 O.2       16 UNK        -0.5000 
     94 N          -6.9527  -21.3956  -49.4914 N.am      17 UNK        -0.5000 
     95 CA         -7.2357  -19.9574  -49.3977 C.3       17 UNK         0.1400 
     96 CB         -8.6632  -19.6939  -48.8741 C.3       17 UNK        -0.1800 
     97 C          -6.9177  -19.2210  -50.7164 C.2       17 UNK         0.5000 
     98 O          -7.6324  -18.2971  -51.1071 O.2       17 UNK        -0.5000 
     99 N          -5.8433  -19.6760  -51.3765 N.am      18 UNK        -0.5000 
    100 CA        -5.3242  -19.2396  -52.6748 C.3       18 UNK         0.1400 
    101 CB        -4.8959  -17.7580  -52.6420 C.3       18 UNK        -0.1800 
    102 C         -6.2360  -19.5807  -53.8743 C.2       18 UNK         0.5000 
    103 O         -6.0498  -19.0128  -54.9512 O.2       18 UNK        -0.5000 
    104 N         -7.1694  -20.5298  -53.7025 N.am      19 UNK        -0.5000 
    105 CA        -7.9634  -21.1056  -54.7927 C.3       19 UNK         0.1400 
    106 CB        -9.1670  -21.8634  -54.2154 C.3       19 UNK        -0.1800 
    107 C         -7.1192  -22.0314  -55.6905 C.2       19 UNK         0.5000 
    108 O         -7.3431  -22.0794  -56.9003 O.2       19 UNK        -0.5000 
    109 N         -6.1370  -22.7092  -55.0856 N.am      20 UNK        -0.5000 
    110 CA        -5.0745  -23.4606  -55.7426 C.3       20 UNK         0.1400 
    111 CB        -5.0589  -24.8952  -55.1839 C.3       20 UNK        -0.1800 
    112 C         -3.7668  -22.6974  -55.4762 C.2       20 UNK         0.5000 
    113 O         -2.8931  -23.1899  -54.7593 O.2       20 UNK        -0.5000 
    114 N         -3.7130  -21.4630  -56.0008 N.am      21 UNK        -0.5000 
    115 CA        -2.7060  -20.4289  -55.7507 C.3       21 UNK         0.1400 
    116 CB        -2.8892  -19.2901  -56.7660 C.3       21 UNK        -0.1800 
    117 C         -1.2539  -20.9390  -55.7632 C.2       21 UNK         0.5000 
    118 O         -0.8047  -21.4944  -56.7683 O.2       21 UNK        -0.5000 
    119 N         -0.5717  -20.7383  -54.6306 N.am      22 UNK        -0.5000 
    120 CA         0.8146  -21.1477  -54.3525 C.3       22 UNK         0.1400 
    121 C          1.0247  -22.6837  -54.1789 C.2       22 UNK         0.5000 
    122 N         -0.0140  -23.5119  -54.1589 N.am      22 UNK        -0.7600 
    123 O          2.1564  -23.1366  -54.0297 O.2       22 UNK        -0.5000 
    124 C124        1.8652  -20.5191  -55.3173 C.3       23 UNK        -0.0398 
    125 S125        1.6254  -18.7337  -55.6384 S.3       23 UNK        -0.2404 
    126 C126        2.6683  -17.9632  -54.3611 C.3       23 UNK        -0.0205 
    127 H127       -1.3829  -16.1263  -43.6933 H         1 UNK         0.0600 
    128 H128       -2.8212  -16.5658  -44.6315 H         1 UNK         0.0600 
    129 H129       -2.6659  -14.9450  -43.9365 H         1 UNK         0.0600 
    130 H130       -3.1424  -15.4797  -46.7417 H         1 UNK         0.3000 
    131 H131       -2.6351  -14.6541  -48.6822 H         1 UNK         0.0600 
    132 H132        0.3449  -15.2475  -48.6007 H         1 UNK         0.0800 
    133 H133       -0.7259  -16.5839  -48.3752 H         1 UNK         0.0800 
    134 H134       -1.3876  -17.9997  -50.0542 H         1 UNK         0.0800 
    135 H135       -1.6714  -17.6507  -51.7356 H         1 UNK         0.0800 
    136 H136        0.2626  -17.2251  -53.3021 H         1 UNK         0.1150 
    137 H137        3.9125  -19.2267  -52.2960 H         1 UNK         0.1150 
    138 H138        0.8438  -18.7481  -49.3359 H         1 UNK         0.1150 
    139 H139        4.3756  -19.8842  -50.0990 H         1 UNK         0.0800 
    140 H140        3.4833  -19.1317  -48.8115 H         1 UNK         0.0800 
    141 H141        1.7807  -20.0266  -47.4964 H         1 UNK         0.0800 
    142 H142        2.9270  -21.1926  -46.9005 H         1 UNK         0.0800 
    143 H143        1.1892  -23.0235  -47.5000 H         1 UNK         0.0600 
    144 H144        1.3649  -21.4360  -45.1764 H         1 UNK         0.3000 
    145 H145       -1.0114  -23.2255  -43.1875 H         1 UNK         0.0600 
    146 H146        0.9879  -23.3322  -41.7256 H         1 UNK         0.0600 
    147 H147        1.1427  -24.4731  -43.0536 H         1 UNK         0.0600 
    148 H148        2.0408  -22.9611  -43.0881 H         1 UNK         0.0600 
    149 H149        0.5983  -20.9648  -42.5836 H         1 UNK         0.3000 
    150 H150       -1.7026  -18.4733  -43.7816 H         1 UNK         0.0600 
    151 H151       -2.3931  -19.0220  -41.4752 H         1 UNK         0.0600 
    152 H152       -1.2720  -17.6680  -41.4572 H         1 UNK         0.0600 
    153 H153       -0.7225  -19.2773  -40.9948 H         1 UNK         0.0600 
    154 H154        0.8946  -18.1927  -42.6526 H         1 UNK         0.3000 
    155 H155        2.7563  -18.4860  -45.6989 H         1 UNK         0.0600 
    156 H156        2.0895  -16.1417  -45.7016 H         1 UNK         0.0600 
    157 H157        2.1013  -16.0654  -43.9447 H         1 UNK         0.0600 
    158 H158        3.6090  -16.2848  -44.8382 H         1 UNK         0.0600 
    159 H159        3.4183  -18.0121  -42.9262 H         1 UNK         0.3000 
    160 H160        3.9945  -21.4413  -42.1103 H         1 UNK         0.0600 
    161 H161        5.9372  -19.1086  -42.5586 H         1 UNK         0.0600 
    162 H162        6.0659  -20.7005  -43.2974 H         1 UNK         0.0600 
    163 H163        6.2341  -20.5302  -41.5576 H         1 UNK         0.0600 
    164 H164        4.3487  -19.0005  -40.6567 H         1 UNK         0.3000 
    165 H165        1.0465  -18.6922  -39.3952 H         1 UNK         0.0600 
    166 H166        2.2009  -18.8502  -37.2085 H         1 UNK         0.0600 
    167 H167        2.0441  -20.4468  -37.9227 H         1 UNK         0.0600 
    168 H168        3.5963  -19.6192  -37.9660 H         1 UNK         0.0600 
    169 H169        3.4316  -17.2785  -38.7920 H         1 UNK         0.3000 
    170 H170        3.7214  -15.1904  -39.4543 H         1 UNK         0.0600 
    171 H171        4.1637  -15.5376  -42.4703 H         1 UNK         0.0600 
    172 H172        5.1398  -14.5571  -41.3797 H         1 UNK         0.0600 
    173 H173        5.1269  -16.3045  -41.2131 H         1 UNK         0.0600 
    174 H174        2.7277  -13.7107  -41.6799 H         1 UNK         0.3000 
    175 H175       -0.2088  -12.5000  -40.4645 H         1 UNK         0.0600 
    176 H176        0.7267  -10.2647  -39.8911 H         1 UNK         0.0600 
    177 H177        2.3089  -10.9855  -39.5929 H         1 UNK         0.0600 
    178 H178        0.9411  -11.3934  -38.5643 H         1 UNK         0.0600 
    179 H179        2.0614  -11.3943  -41.9945 H         1 UNK         0.3000 
    180 H180        1.4723  -10.8065  -44.1823 H         1 UNK         0.0600 
    181 H181        1.9980  -13.7364  -44.9202 H         1 UNK         0.0600 
    182 H182        3.1151  -12.6625  -44.0903 H         1 UNK         0.0600 
    183 H183        2.6730  -12.3451  -45.7604 H         1 UNK         0.0600 
    184 H184       -0.3050  -12.7890  -45.5420 H         1 UNK         0.3000 
    185 H185       -2.6466  -10.7520  -46.1334 H         1 UNK         0.0600 
    186 H186       -1.8494   -9.0337  -47.6700 H         1 UNK         0.0600 
    187 H187       -0.9371  -10.2020  -48.6092 H         1 UNK         0.0600 
    188 H188       -2.7001  -10.2574  -48.5962 H         1 UNK         0.0600 
    189 H189       -2.7778  -12.8721  -46.6568 H         1 UNK         0.3000 
    190 H190       -0.6655  -20.0733  -46.5688 H         1 UNK         0.3000 
    191 H191       -2.3358  -19.9597  -48.8425 H         1 UNK         0.0600 
    192 H192       -2.0580  -18.1018  -47.2059 H         1 UNK         0.0600 
    193 H193       -3.7552  -18.4984  -47.4295 H         1 UNK         0.0600 
    194 H194       -2.9109  -19.0309  -45.9802 H         1 UNK         0.0600 
    195 H195       -2.7721  -21.7216  -45.7440 H         1 UNK         0.3000 
    196 H196       -5.3456  -22.7892  -46.3075 H         1 UNK         0.0600 
    197 H197       -4.8084  -24.3799  -44.4684 H         1 UNK         0.0600 
    198 H198       -4.3775  -22.7340  -44.0286 H         1 UNK         0.0600 
    199 H199       -3.1236  -23.8773  -44.5004 H         1 UNK         0.0600 
    200 H200       -2.0558  -24.1388  -46.8971 H         1 UNK         0.3000 
    201 H201       -2.8762  -26.5624  -48.1277 H         1 UNK         0.0600 
    202 H202       -0.5800  -26.1733  -47.2749 H         1 UNK         0.0600 
    203 H203       -0.3033  -24.9385  -48.5006 H         1 UNK         0.0600 
    204 H204       -0.5302  -26.6169  -48.9747 H         1 UNK         0.0600 
    205 H205       -2.3389  -23.3139  -49.4703 H         1 UNK         0.3000 
    206 H206       -2.9568  -24.0256  -52.2107 H         1 UNK         0.0600 
    207 H207       -1.4402  -22.1348  -51.5913 H         1 UNK         0.0600 
    208 H208       -2.7893  -21.5803  -52.5630 H         1 UNK         0.0600 
    209 H209       -2.7893  -21.2952  -50.8277 H         1 UNK         0.0600 
    210 H210       -5.0011  -24.1409  -49.6605 H         1 UNK         0.3000 
    211 H211       -7.1807  -24.1358  -49.3223 H         1 UNK         0.0600 
    212 H212       -7.4092  -24.2585  -52.3783 H         1 UNK         0.0600 
    213 H213       -8.6663  -24.7025  -51.2315 H         1 UNK         0.0600 
    214 H214       -7.1803  -25.6352  -51.3045 H         1 UNK         0.0600 
    215 H215       -6.1151  -21.6917  -48.9951 H         1 UNK         0.3000 
    216 H216       -6.5393  -19.5613  -48.6572 H         1 UNK         0.0600 
    217 H217       -8.8094  -18.6344  -48.6614 H         1 UNK         0.0600 
    218 H218       -8.8504  -20.2389  -47.9490 H         1 UNK         0.0600 
    219 H219       -9.4247  -19.9872  -49.5972 H         1 UNK         0.0600 
    220 H220       -5.3679  -20.4715  -50.9730 H         1 UNK         0.3000 
    221 H221       -4.4199  -19.8272  -52.8301 H         1 UNK         0.0600 
    222 H222       -5.7549  -17.0892  -52.5846 H         1 UNK         0.0600 
    223 H223       -4.2514  -17.5511  -51.7877 H         1 UNK         0.0600 
    224 H224       -4.3370  -17.4924  -53.5401 H         1 UNK         0.0600 
    225 H225       -7.2618  -20.9639  -52.7931 H         1 UNK         0.3000 
    226 H226       -8.3425  -20.2896  -55.4117 H         1 UNK         0.0600 
    227 H227       -9.7721  -21.2182  -53.5781 H         1 UNK         0.0600 
    228 H228       -9.8125  -22.2335  -55.0128 H         1 UNK         0.0600 
    229 H229       -8.8551  -22.7232  -53.6223 H         1 UNK         0.0600 
    230 H230       -5.9966  -22.5725  -54.0858 H         1 UNK         0.3000 
    231 H231       -5.2273  -23.5077  -56.8226 H         1 UNK         0.0600 
    232 H232       -4.9056  -24.9085  -54.1041 H         1 UNK         0.0600 
    233 H233       -4.2597  -25.4819  -55.6381 H         1 UNK         0.0600 
    234 H234       -5.9987  -25.4064  -55.3921 H         1 UNK         0.0600 
    235 H235       -4.4978  -21.1688  -56.5636 H         1 UNK         0.3000 
    236 H236       -2.9210  -20.0231  -54.7610 H         1 UNK         0.0600 
    237 H237       -3.8805  -18.8435  -56.6878 H         1 UNK         0.0600 
    238 H238       -2.1618  -18.4949  -56.5961 H         1 UNK         0.0600 
    239 H239       -2.7584  -19.6415  -57.7903 H         1 UNK         0.0600 
    240 H240       -1.0359  -20.2794  -53.8620 H         1 UNK         0.3000 
    241 H241        1.0177  -20.7469  -53.3597 H         1 UNK         0.0600 
    242 H242       -0.9617  -23.1853  -54.3209 H         1 UNK         0.3800 
    243 H243        0.1510  -24.4974  -54.0353 H         1 UNK         0.3800 
    244 H244        2.8737  -20.6729  -54.9302 H         1 UNK         0.0800 
    245 H245        1.8368  -21.0293  -56.2812 H         1 UNK         0.0800 
    246 H246        2.7045  -16.8880  -54.5413 H         1 UNK         0.0800 
    247 H247        3.6921  -18.3251  -54.4675 H         1 UNK         0.0800 
@<TRIPOS>BOND
     1    1    2 1    
     2    1  127 1    
     3    1  128 1    
     4    1  129 1    
     5    2    3 2    
     6    2    4 am   BACKBONE|DICT|INTERRES
     7    4    5 1    
     8    4  130 1    
     9    5    6 1    
    10    5   65 1    
    11    5  131 1    
    12    6    7 1    
    13    6  132 1    
    14    6  133 1    
    15    7    8 1    
    16    8    9 1    
    17    8  134 1    
    18    8  135 1    
    19    9   10 ar   
    20    9   14 ar   
    21   10   11 ar   
    22   10  136 1    
    23   11   12 ar   
    24   11  126 1    
    25   12   13 ar   
    26   12  137 1    
    27   13   14 ar   
    28   13   15 1    
    29   14  138 1    
    30   15   16 1    
    31   15  139 1    
    32   15  140 1    
    33   16   17 1    
    34   17   18 1    
    35   17  141 1    
    36   17  142 1    
    37   18   19 1    
    38   18   67 1    
    39   18  143 1    
    40   19   20 am   BACKBONE|DICT|INTERRES
    41   19  144 1    
    42   20   21 2    
    43   20   22 1    
    44   22   23 1    
    45   22   24 1    
    46   22  145 1    
    47   23  146 1    
    48   23  147 1    
    49   23  148 1    
    50   24   25 am   BACKBONE|DICT|INTERRES
    51   24  149 1    
    52   25   26 2    
    53   25   27 1    
    54   27   28 1    
    55   27   29 1    
    56   27  150 1    
    57   28  151 1    
    58   28  152 1    
    59   28  153 1    
    60   29   30 am   BACKBONE|DICT|INTERRES
    61   29  154 1    
    62   30   31 2    
    63   30   32 1    
    64   32   33 1    
    65   32   34 1    
    66   32  155 1    
    67   33  156 1    
    68   33  157 1    
    69   33  158 1    
    70   34   35 am   BACKBONE|DICT|INTERRES
    71   34  159 1    
    72   35   36 2    
    73   35   37 1    
    74   37   38 1    
    75   37   39 1    
    76   37  160 1    
    77   38  161 1    
    78   38  162 1    
    79   38  163 1    
    80   39   40 am   BACKBONE|DICT|INTERRES
    81   39  164 1    
    82   40   41 2    
    83   40   42 1    
    84   42   43 1    
    85   42   44 1    
    86   42  165 1    
    87   43  166 1    
    88   43  167 1    
    89   43  168 1    
    90   44   45 am   BACKBONE|DICT|INTERRES
    91   44  169 1    
    92   45   46 2    
    93   45   47 1    
    94   47   48 1    
    95   47   49 1    
    96   47  170 1    
    97   48  171 1    
    98   48  172 1    
    99   48  173 1    
   100   49   50 am   BACKBONE|DICT|INTERRES
   101   49  174 1    
   102   50   51 2    
   103   50   52 1    
   104   52   53 1    
   105   52   54 1    
   106   52  175 1    
   107   53  176 1    
   108   53  177 1    
   109   53  178 1    
   110   54   55 am   BACKBONE|DICT|INTERRES
   111   54  179 1    
   112   55   56 2    
   113   55   57 1    
   114   57   58 1    
   115   57   59 1    
   116   57  180 1    
   117   58  181 1    
   118   58  182 1    
   119   58  183 1    
   120   59   60 am   BACKBONE|DICT|INTERRES
   121   59  184 1    
   122   60   61 2    
   123   60   62 1    
   124   62   63 1    
   125   62   64 1    
   126   62  185 1    
   127   63  186 1    
   128   63  187 1    
   129   63  188 1    
   130   64   65 am   BACKBONE|DICT|INTERRES
   131   64  189 1    
   132   65   66 2    
   133   67   68 2    
   134   67   69 am   BACKBONE|DICT|INTERRES
   135   69   70 1    
   136   69  190 1    
   137   70   71 1    
   138   70   72 1    
   139   70  191 1    
   140   71  192 1    
   141   71  193 1    
   142   71  194 1    
   143   72   73 2    
   144   72   74 am   BACKBONE|DICT|INTERRES
   145   74   75 1    
   146   74  195 1    
   147   75   76 1    
   148   75   77 1    
   149   75  196 1    
   150   76  197 1    
   151   76  198 1    
   152   76  199 1    
   153   77   78 2    
   154   77   79 am   BACKBONE|DICT|INTERRES
   155   79   80 1    
   156   79  200 1    
   157   80   81 1    
   158   80   82 1    
   159   80  201 1    
   160   81  202 1    
   161   81  203 1    
   162   81  204 1    
   163   82   83 2    
   164   82   84 am   BACKBONE|DICT|INTERRES
   165   84   85 1    
   166   84  205 1    
   167   85   86 1    
   168   85   87 1    
   169   85  206 1    
   170   86  207 1    
   171   86  208 1    
   172   86  209 1    
   173   87   88 2    
   174   87   89 am   BACKBONE|DICT|INTERRES
   175   89   90 1    
   176   89  210 1    
   177   90   91 1    
   178   90   92 1    
   179   90  211 1    
   180   91  212 1    
   181   91  213 1    
   182   91  214 1    
   183   92   93 2    
   184   92   94 am   BACKBONE|DICT|INTERRES
   185   94   95 1    
   186   94  215 1    
   187   95   96 1    
   188   95   97 1    
   189   95  216 1    
   190   96  217 1    
   191   96  218 1    
   192   96  219 1    
   193   97   98 2    
   194   97   99 am   BACKBONE|DICT|INTERRES
   195   99  100 1    
   196   99  220 1    
   197  100  101 1    
   198  100  102 1    
   199  100  221 1    
   200  101  222 1    
   201  101  223 1    
   202  101  224 1    
   203  102  103 2    
   204  102  104 am   BACKBONE|DICT|INTERRES
   205  104  105 1    
   206  104  225 1    
   207  105  106 1    
   208  105  107 1    
   209  105  226 1    
   210  106  227 1    
   211  106  228 1    
   212  106  229 1    
   213  107  108 2    
   214  107  109 am   BACKBONE|DICT|INTERRES
   215  109  110 1    
   216  109  230 1    
   217  110  111 1    
   218  110  112 1    
   219  110  231 1    
   220  111  232 1    
   221  111  233 1    
   222  111  234 1    
   223  112  113 2    
   224  112  114 am   BACKBONE|DICT|INTERRES
   225  114  115 1    
   226  114  235 1    
   227  115  116 1    
   228  115  117 1    
   229  115  236 1    
   230  116  237 1    
   231  116  238 1    
   232  116  239 1    
   233  117  118 2    
   234  117  119 am   BACKBONE|DICT|INTERRES
   235  119  120 1    
   236  119  240 1    
   237  120  121 1    
   238  120  124 1    
   239  120  241 1    
   240  121  122 am   BACKBONE|DICT|INTERRES
   241  121  123 2    
   242  122  242 1    
   243  122  243 1    
   244  124  125 1    
   245  124  244 1    
   246  124  245 1    
   247  125  126 1    
   248  126  246 1    
   249  126  247 1    
@<TRIPOS>SUBSTRUCTURE
     1 UNK         1 GROUP             0       ****    0 ROOT    
