@<TRIPOS>MOLECULE
3R540
247   249    1
SMALL
USER_CHARGES


@<TRIPOS>ATOM
      1 CA          8.4387  -15.8318  -48.4189 C.3       0 UNK        -0.1800 
      2 C           7.2960  -15.8387  -47.4129 C.2       0 UNK         0.5000 
      3 O           7.4406  -16.3998  -46.3262 O.2       0 UNK        -0.5000 
      4 N           6.1627  -15.2266  -47.7754 N.am      1 UNK        -0.5000 
      5 CA          4.9731  -15.0890  -46.9275 C.3       1 UNK         0.1400 
      6 C6          3.7278  -14.6869  -47.7524 C.3       23 UNK        -0.0398 
      7 S7          3.2063  -16.0366  -48.8577 S.3       23 UNK        -0.2404 
      8 C8          2.9227  -15.1526  -50.4248 C.3       23 UNK        -0.0205 
      9 C9          2.3171  -16.0691  -51.4802 C.ar      23 UNK        -0.0193 
     10 C10         1.1119  -15.7365  -52.1107 C.ar      23 UNK        -0.1150 
     11 C11         0.5547  -16.5901  -53.0695 C.ar      23 UNK        -0.0193 
     12 C12         1.2067  -17.7830  -53.3898 C.ar      23 UNK        -0.1150 
     13 C13         2.3930  -18.1377  -52.7470 C.ar      23 UNK        -0.0193 
     14 C14         2.9568  -17.2660  -51.8150 C.ar      23 UNK        -0.1150 
     15 C15         3.0453  -19.4802  -53.0228 C.3       23 UNK        -0.0205 
     16 S16         2.7319  -20.6523  -51.6642 S.3       23 UNK        -0.2404 
     17 C17         0.9333  -20.9352  -51.7991 C.3       23 UNK        -0.0398 
     18 CA          0.1712  -20.5806  -50.4990 C.3       11 UNK         0.1400 
     19 N           0.1934  -19.1463  -50.1675 N.am      11 UNK        -0.5000 
     20 C          -0.2435  -18.6490  -49.0000 C.2       10 UNK         0.5000 
     21 O          -0.6379  -19.3515  -48.0658 O.2       10 UNK        -0.5000 
     22 CA         -0.3618  -17.1250  -48.8888 C.3       10 UNK         0.1400 
     23 CB         -1.7074  -16.6577  -49.4764 C.3       10 UNK        -0.1800 
     24 N          -0.2652  -16.7299  -47.4861 N.am      10 UNK        -0.5000 
     25 C          -0.0605  -15.4809  -47.0484 C.2       9 UNK         0.5000 
     26 O           0.0754  -14.5110  -47.7954 O.2       9 UNK        -0.5000 
     27 CA         -0.0058  -15.2540  -45.5259 C.3       9 UNK         0.1400 
     28 CB         -1.3435  -14.6953  -45.0184 C.3       9 UNK        -0.1800 
     29 N           0.3327  -16.4530  -44.7592 N.am      9 UNK        -0.5000 
     30 C           1.5771  -16.9386  -44.6386 C.2       8 UNK         0.5000 
     31 O           2.5474  -16.4650  -45.2292 O.2       8 UNK        -0.5000 
     32 CA          1.8029  -18.1265  -43.6838 C.3       8 UNK         0.1400 
     33 CB          2.7095  -17.7162  -42.5102 C.3       8 UNK        -0.1800 
     34 N           0.5532  -18.6697  -43.1514 N.am      8 UNK        -0.5000 
     35 C          -0.1715  -19.6246  -43.7497 C.2       7 UNK         0.5000 
     36 O           0.1654  -20.1717  -44.7967 O.2       7 UNK        -0.5000 
     37 CA         -1.4941  -20.0434  -43.0769 C.3       7 UNK         0.1400 
     38 CB         -1.3216  -21.3795  -42.3391 C.3       7 UNK        -0.1800 
     39 N          -2.0206  -19.0482  -42.1403 N.am      7 UNK        -0.5000 
     40 C          -2.5112  -17.8520  -42.4933 C.2       6 UNK         0.5000 
     41 O          -2.5738  -17.4567  -43.6551 O.2       6 UNK        -0.5000 
     42 CA         -2.9333  -16.9178  -41.3448 C.3       6 UNK         0.1400 
     43 CB         -4.3527  -17.2537  -40.8636 C.3       6 UNK        -0.1800 
     44 N          -2.0048  -16.9643  -40.2106 N.am      6 UNK        -0.5000 
     45 C          -0.7201  -16.5937  -40.2810 C.2       5 UNK         0.5000 
     46 O          -0.1861  -16.1732  -41.3097 O.2       5 UNK        -0.5000 
     47 CA          0.1215  -16.7653  -39.0126 C.3       5 UNK         0.1400 
     48 CB          0.6616  -18.2022  -38.9042 C.3       5 UNK        -0.1800 
     49 N           1.2300  -15.8225  -39.0792 N.am      5 UNK        -0.5000 
     50 C           1.8694  -15.2933  -38.0321 C.2       4 UNK         0.5000 
     51 O           1.6442  -15.6110  -36.8634 O.2       4 UNK        -0.5000 
     52 CA          2.9365  -14.2203  -38.3308 C.3       4 UNK         0.1400 
     53 CB          4.3387  -14.8493  -38.3327 C.3       4 UNK        -0.1800 
     54 N           2.7455  -13.5028  -39.5950 N.am      4 UNK        -0.5000 
     55 C           1.7053  -12.7167  -39.9105 C.2       3 UNK         0.5000 
     56 O           0.7460  -12.5302  -39.1609 O.2       3 UNK        -0.5000 
     57 CA          1.7483  -11.9965  -41.2769 C.3       3 UNK         0.1400 
     58 CB          1.6096  -10.4750  -41.0989 C.3       3 UNK        -0.1800 
     59 N           2.9743  -12.2630  -42.0376 N.am      3 UNK        -0.5000 
     60 C           3.1727  -13.3325  -42.8159 C.2       2 UNK         0.5000 
     61 O           2.3387  -14.2219  -42.9791 O.2       2 UNK        -0.5000 
     62 CA          4.5533  -13.4419  -43.4746 C.3       2 UNK         0.1400 
     63 CB          5.5712  -14.0622  -42.5014 C.3       2 UNK        -0.1800 
     64 N           4.4713  -14.2662  -44.6769 N.am      2 UNK        -0.5000 
     65 C           5.2104  -14.0888  -45.7769 C.2       1 UNK         0.5000 
     66 O           6.0304  -13.1754  -45.9104 O.2       1 UNK        -0.5000 
     67 C          -1.2701  -21.1315  -50.5607 C.2       11 UNK         0.5000 
     68 O          -1.4843  -22.2940  -50.2206 O.2       11 UNK        -0.5000 
     69 N          -2.2383  -20.2809  -50.9378 N.am      12 UNK        -0.5000 
     70 CA         -3.6697  -20.5839  -50.8932 C.3       12 UNK         0.1400 
     71 CB         -4.4641  -19.4174  -51.4959 C.3       12 UNK        -0.1800 
     72 C          -4.1621  -20.8714  -49.4664 C.2       12 UNK         0.5000 
     73 O          -4.9168  -21.8210  -49.2669 O.2       12 UNK        -0.5000 
     74 N          -3.6972  -20.0699  -48.4984 N.am      13 UNK        -0.5000 
     75 CA         -4.0114  -20.2312  -47.0810 C.3       13 UNK         0.1400 
     76 CB         -3.6281  -18.9581  -46.3157 C.3       13 UNK        -0.1800 
     77 C          -3.3306  -21.4723  -46.4810 C.2       13 UNK         0.5000 
     78 O          -3.9700  -22.1976  -45.7196 O.2       13 UNK        -0.5000 
     79 N          -2.0746  -21.7278  -46.8775 N.am      14 UNK        -0.5000 
     80 CA         -1.3095  -22.9232  -46.5092 C.3       14 UNK         0.1400 
     81 CB          0.1227  -22.8107  -47.0552 C.3       14 UNK        -0.1800 
     82 C          -1.9671  -24.2270  -47.0033 C.2       14 UNK         0.5000 
     83 O          -2.0012  -25.2126  -46.2664 O.2       14 UNK        -0.5000 
     84 N          -2.5054  -24.1926  -48.2295 N.am      15 UNK        -0.5000 
     85 CA         -3.2406  -25.2882  -48.8619 C.3       15 UNK         0.1400 
     86 CB         -3.1686  -25.1071  -50.3867 C.3       15 UNK        -0.1800 
     87 C          -4.7121  -25.3930  -48.4114 C.2       15 UNK         0.5000 
     88 O          -5.4065  -26.3008  -48.8696 O.2       15 UNK        -0.5000 
     89 N          -5.1844  -24.4533  -47.5766 N.am      16 UNK        -0.5000 
     90 CA         -6.5681  -24.3017  -47.1053 C.3       16 UNK         0.1400 
     91 CB         -6.9306  -25.4361  -46.1252 C.3       16 UNK        -0.1800 
     92 C          -7.5833  -24.1569  -48.2627 C.2       16 UNK         0.5000 
     93 O          -8.6896  -24.6944  -48.1944 O.2       16 UNK        -0.5000 
     94 N          -7.1538  -23.4587  -49.3237 N.am      17 UNK        -0.5000 
     95 CA         -7.8248  -23.2004  -50.6008 C.3       17 UNK         0.1400 
     96 CB         -9.1233  -22.3977  -50.3865 C.3       17 UNK        -0.1800 
     97 C          -8.0573  -24.4429  -51.4889 C.2       17 UNK         0.5000 
     98 O          -8.6101  -24.2910  -52.5786 O.2       17 UNK        -0.5000 
     99 N          -7.6207  -25.6367  -51.0581 N.am      18 UNK        -0.5000 
    100 CA        -7.8619  -26.9056  -51.7532 C.3       18 UNK         0.1400 
    101 CB        -7.5158  -28.0744  -50.8189 C.3       18 UNK        -0.1800 
    102 C         -7.0946  -27.0307  -53.0821 C.2       18 UNK         0.5000 
    103 O         -7.6188  -27.6061  -54.0363 O.2       18 UNK        -0.5000 
    104 N         -5.8785  -26.4714  -53.1234 N.am      19 UNK        -0.5000 
    105 CA        -5.0208  -26.4295  -54.3113 C.3       19 UNK         0.1400 
    106 CB        -3.5535  -26.5110  -53.8587 C.3       19 UNK        -0.1800 
    107 C         -5.2407  -25.1611  -55.1598 C.2       19 UNK         0.5000 
    108 O         -4.6294  -25.0395  -56.2226 O.2       19 UNK        -0.5000 
    109 N         -6.0609  -24.2230  -54.6605 N.am      20 UNK        -0.5000 
    110 CA        -6.3069  -22.8567  -55.1394 C.3       20 UNK         0.1400 
    111 CB        -6.8892  -22.8359  -56.5658 C.3       20 UNK        -0.1800 
    112 C         -5.0712  -21.9453  -55.0072 C.2       20 UNK         0.5000 
    113 O         -5.1399  -20.9421  -54.2994 O.2       20 UNK        -0.5000 
    114 N         -3.9665  -22.3349  -55.6574 N.am      21 UNK        -0.5000 
    115 CA        -2.6137  -21.7657  -55.6500 C.3       21 UNK         0.1400 
    116 CB        -1.9788  -21.8760  -54.2515 C.3       21 UNK        -0.1800 
    117 C         -2.5011  -20.3303  -56.2000 C.2       21 UNK         0.5000 
    118 O         -1.7776  -20.1115  -57.1723 O.2       21 UNK        -0.5000 
    119 N         -3.1976  -19.3836  -55.5651 N.am      22 UNK        -0.5000 
    120 CA        -3.1686  -17.9454  -55.8811 C.3       22 UNK         0.1400 
    121 C         -4.1892  -17.5164  -56.9755 C.2       22 UNK         0.5000 
    122 N         -5.0403  -18.4019  -57.4793 N.am      22 UNK        -0.7600 
    123 O         -4.2011  -16.3593  -57.3868 O.2       22 UNK        -0.5000 
    124 C124       -3.3121  -17.0708  -54.6069 C.3       23 UNK        -0.0398 
    125 S125       -2.0498  -17.4493  -53.3437 S.3       23 UNK        -0.2404 
    126 C126       -0.7528  -16.2453  -53.7645 C.3       23 UNK        -0.0205 
    127 H127        8.7201  -16.8534  -48.6745 H         1 UNK         0.0600 
    128 H128        9.3097  -15.3331  -47.9937 H         1 UNK         0.0600 
    129 H129        8.1663  -15.3143  -49.3392 H         1 UNK         0.0600 
    130 H130        6.1121  -14.7721  -48.6749 H         1 UNK         0.3000 
    131 H131        4.7864  -16.0643  -46.4734 H         1 UNK         0.0600 
    132 H132        3.9200  -13.7783  -48.3256 H         1 UNK         0.0800 
    133 H133        2.8820  -14.4625  -47.1006 H         1 UNK         0.0800 
    134 H134        2.2665  -14.3013  -50.2356 H         1 UNK         0.0800 
    135 H135        3.8671  -14.7515  -50.7949 H         1 UNK         0.0800 
    136 H136        0.6063  -14.8163  -51.8532 H         1 UNK         0.1150 
    137 H137        0.7692  -18.4484  -54.1214 H         1 UNK         0.1150 
    138 H138        3.8778  -17.5396  -51.3189 H         1 UNK         0.1150 
    139 H139        2.6896  -19.9038  -53.9634 H         1 UNK         0.0800 
    140 H140        4.1220  -19.3446  -53.1346 H         1 UNK         0.0800 
    141 H141        0.8040  -21.9929  -52.0379 H         1 UNK         0.0800 
    142 H142        0.5216  -20.3883  -52.6469 H         1 UNK         0.0800 
    143 H143        0.6661  -21.1034  -49.6782 H         1 UNK         0.0600 
    144 H144        0.5249  -18.5204  -50.8890 H         1 UNK         0.3000 
    145 H145        0.4553  -16.6712  -49.4467 H         1 UNK         0.0600 
    146 H146       -1.8293  -17.0021  -50.5018 H         1 UNK         0.0600 
    147 H147       -2.5517  -17.0357  -48.8989 H         1 UNK         0.0600 
    148 H148       -1.7781  -15.5705  -49.4983 H         1 UNK         0.0600 
    149 H149       -0.3371  -17.4916  -46.8232 H         1 UNK         0.3000 
    150 H150        0.7618  -14.5007  -45.3349 H         1 UNK         0.0600 
    151 H151       -1.3209  -14.5333  -43.9402 H         1 UNK         0.0600 
    152 H152       -2.1708  -15.3695  -45.2418 H         1 UNK         0.0600 
    153 H153       -1.5679  -13.7370  -45.4881 H         1 UNK         0.0600 
    154 H154       -0.4181  -16.8840  -44.2360 H         1 UNK         0.3000 
    155 H155        2.3243  -18.9007  -44.2506 H         1 UNK         0.0600 
    156 H156        3.6790  -17.3682  -42.8691 H         1 UNK         0.0600 
    157 H157        2.8944  -18.5554  -41.8399 H         1 UNK         0.0600 
    158 H158        2.2736  -16.9066  -41.9253 H         1 UNK         0.0600 
    159 H159        0.1882  -18.2194  -42.3235 H         1 UNK         0.3000 
    160 H160       -2.2302  -20.1869  -43.8699 H         1 UNK         0.0600 
    161 H161       -0.9525  -22.1538  -43.0128 H         1 UNK         0.0600 
    162 H162       -2.2702  -21.7311  -41.9330 H         1 UNK         0.0600 
    163 H163       -0.6117  -21.2954  -41.5152 H         1 UNK         0.0600 
    164 H164       -1.9925  -19.2871  -41.1601 H         1 UNK         0.3000 
    165 H165       -2.9374  -15.8974  -41.7346 H         1 UNK         0.0600 
    166 H166       -4.6911  -16.5438  -40.1086 H         1 UNK         0.0600 
    167 H167       -5.0642  -17.2115  -41.6894 H         1 UNK         0.0600 
    168 H168       -4.4082  -18.2543  -40.4332 H         1 UNK         0.0600 
    169 H169       -2.3751  -17.3046  -39.3346 H         1 UNK         0.3000 
    170 H170       -0.5037  -16.5363  -38.1469 H         1 UNK         0.0600 
    171 H171        1.2568  -18.3332  -38.0004 H         1 UNK         0.0600 
    172 H172       -0.1525  -18.9266  -38.8628 H         1 UNK         0.0600 
    173 H173        1.2900  -18.4607  -39.7574 H         1 UNK         0.0600 
    174 H174        1.4272  -15.4786  -40.0114 H         1 UNK         0.3000 
    175 H175        2.8912  -13.4856  -37.5244 H         1 UNK         0.0600 
    176 H176        4.4531  -15.5724  -39.1414 H         1 UNK         0.0600 
    177 H177        5.1128  -14.0903  -38.4478 H         1 UNK         0.0600 
    178 H178        4.5351  -15.3714  -37.3952 H         1 UNK         0.0600 
    179 H179        3.4824  -13.5945  -40.2769 H         1 UNK         0.3000 
    180 H180        0.8885  -12.3488  -41.8511 H         1 UNK         0.0600 
    181 H181        1.5975   -9.9650  -42.0624 H         1 UNK         0.0600 
    182 H182        2.4297  -10.0625  -40.5100 H         1 UNK         0.0600 
    183 H183        0.6792  -10.2207  -40.5896 H         1 UNK         0.0600 
    184 H184        3.7149  -11.5830  -41.9381 H         1 UNK         0.3000 
    185 H185        4.8764  -12.4331  -43.7405 H         1 UNK         0.0600 
    186 H186        5.2768  -15.0692  -42.2021 H         1 UNK         0.0600 
    187 H187        6.5610  -14.1251  -42.9539 H         1 UNK         0.0600 
    188 H188        5.6683  -13.4634  -41.5951 H         1 UNK         0.0600 
    189 H189        3.7577  -14.9930  -44.6600 H         1 UNK         0.3000 
    190 H190       -1.9808  -19.3496  -51.2298 H         1 UNK         0.3000 
    191 H191       -3.8510  -21.4758  -51.4967 H         1 UNK         0.0600 
    192 H192       -4.2920  -18.4845  -50.9578 H         1 UNK         0.0600 
    193 H193       -5.5356  -19.6210  -51.4732 H         1 UNK         0.0600 
    194 H194       -4.1930  -19.2569  -52.5373 H         1 UNK         0.0600 
    195 H195       -3.0285  -19.3533  -48.7357 H         1 UNK         0.3000 
    196 H196       -5.0917  -20.3646  -46.9889 H         1 UNK         0.0600 
    197 H197       -3.9743  -19.0188  -45.2838 H         1 UNK         0.0600 
    198 H198       -4.0863  -18.0733  -46.7573 H         1 UNK         0.0600 
    199 H199       -2.5494  -18.8010  -46.2909 H         1 UNK         0.0600 
    200 H200       -1.5990  -21.0405  -47.4533 H         1 UNK         0.3000 
    201 H201       -1.2598  -22.9584  -45.4193 H         1 UNK         0.0600 
    202 H202        0.5921  -21.8720  -46.7627 H         1 UNK         0.0600 
    203 H203        0.1462  -22.8690  -48.1428 H         1 UNK         0.0600 
    204 H204        0.7462  -23.6197  -46.6734 H         1 UNK         0.0600 
    205 H205       -2.3692  -23.3602  -48.7955 H         1 UNK         0.3000 
    206 H206       -2.7546  -26.2322  -48.6076 H         1 UNK         0.0600 
    207 H207       -3.6458  -25.9421  -50.8998 H         1 UNK         0.0600 
    208 H208       -3.6660  -24.1906  -50.7072 H         1 UNK         0.0600 
    209 H209       -2.1352  -25.0646  -50.7315 H         1 UNK         0.0600 
    210 H210       -4.5419  -23.7364  -47.2646 H         1 UNK         0.3000 
    211 H211       -6.6008  -23.3619  -46.5525 H         1 UNK         0.0600 
    212 H212       -6.9673  -26.4055  -46.6232 H         1 UNK         0.0600 
    213 H213       -7.9070  -25.2641  -45.6709 H         1 UNK         0.0600 
    214 H214       -6.2042  -25.5024  -45.3152 H         1 UNK         0.0600 
    215 H215       -6.2336  -23.0253  -49.2464 H         1 UNK         0.3000 
    216 H216       -7.1393  -22.5636  -51.1622 H         1 UNK         0.0600 
    217 H217       -9.5435  -22.0702  -51.3381 H         1 UNK         0.0600 
    218 H218       -8.9398  -21.5036  -49.7906 H         1 UNK         0.0600 
    219 H219       -9.8875  -22.9884  -49.8807 H         1 UNK         0.0600 
    220 H220       -7.1484  -25.6930  -50.1637 H         1 UNK         0.3000 
    221 H221       -8.9284  -26.9626  -51.9816 H         1 UNK         0.0600 
    222 H222       -6.4524  -28.0976  -50.5786 H         1 UNK         0.0600 
    223 H223       -8.0699  -28.0097  -49.8822 H         1 UNK         0.0600 
    224 H224       -7.7671  -29.0299  -51.2810 H         1 UNK         0.0600 
    225 H225       -5.5262  -26.0303  -52.2868 H         1 UNK         0.3000 
    226 H226       -5.2281  -27.2927  -54.9472 H         1 UNK         0.0600 
    227 H227       -3.3800  -27.3824  -53.2269 H         1 UNK         0.0600 
    228 H228       -2.8852  -26.5964  -54.7166 H         1 UNK         0.0600 
    229 H229       -3.2532  -25.6228  -53.3019 H         1 UNK         0.0600 
    230 H230       -6.5401  -24.4562  -53.8022 H         1 UNK         0.3000 
    231 H231       -7.0701  -22.4476  -54.4751 H         1 UNK         0.0600 
    232 H232       -6.1856  -23.2110  -57.3088 H         1 UNK         0.0600 
    233 H233       -7.7940  -23.4407  -56.6276 H         1 UNK         0.0600 
    234 H234       -7.1575  -21.8200  -56.8584 H         1 UNK         0.0600 
    235 H235       -4.0550  -23.2047  -56.1763 H         1 UNK         0.3000 
    236 H236       -2.0300  -22.4016  -56.3176 H         1 UNK         0.0600 
    237 H237       -2.4979  -21.2531  -53.5254 H         1 UNK         0.0600 
    238 H238       -1.9969  -22.9029  -53.8861 H         1 UNK         0.0600 
    239 H239       -0.9374  -21.5545  -54.2728 H         1 UNK         0.0600 
    240 H240       -3.8311  -19.6799  -54.8282 H         1 UNK         0.3000 
    241 H241       -2.1888  -17.7183  -56.3053 H         1 UNK         0.0600 
    242 H242       -5.6931  -18.1161  -58.1923 H         1 UNK         0.3800 
    243 H243       -5.0337  -19.3546  -57.1535 H         1 UNK         0.3800 
    244 H244       -3.2524  -16.0093  -54.8536 H         1 UNK         0.0800 
    245 H245       -4.2948  -17.2214  -54.1573 H         1 UNK         0.0800 
    246 H246       -1.0890  -15.2432  -53.4942 H         1 UNK         0.0800 
    247 H247       -0.5890  -16.2430  -54.8431 H         1 UNK         0.0800 
@<TRIPOS>BOND
     1    1    2 1    
     2    1  127 1    
     3    1  128 1    
     4    1  129 1    
     5    2    3 2    
     6    2    4 am   BACKBONE|DICT|INTERRES
     7    4    5 1    
     8    4  130 1    
     9    5    6 1    
    10    5   65 1    
    11    5  131 1    
    12    6    7 1    
    13    6  132 1    
    14    6  133 1    
    15    7    8 1    
    16    8    9 1    
    17    8  134 1    
    18    8  135 1    
    19    9   10 ar   
    20    9   14 ar   
    21   10   11 ar   
    22   10  136 1    
    23   11   12 ar   
    24   11  126 1    
    25   12   13 ar   
    26   12  137 1    
    27   13   14 ar   
    28   13   15 1    
    29   14  138 1    
    30   15   16 1    
    31   15  139 1    
    32   15  140 1    
    33   16   17 1    
    34   17   18 1    
    35   17  141 1    
    36   17  142 1    
    37   18   19 1    
    38   18   67 1    
    39   18  143 1    
    40   19   20 am   BACKBONE|DICT|INTERRES
    41   19  144 1    
    42   20   21 2    
    43   20   22 1    
    44   22   23 1    
    45   22   24 1    
    46   22  145 1    
    47   23  146 1    
    48   23  147 1    
    49   23  148 1    
    50   24   25 am   BACKBONE|DICT|INTERRES
    51   24  149 1    
    52   25   26 2    
    53   25   27 1    
    54   27   28 1    
    55   27   29 1    
    56   27  150 1    
    57   28  151 1    
    58   28  152 1    
    59   28  153 1    
    60   29   30 am   BACKBONE|DICT|INTERRES
    61   29  154 1    
    62   30   31 2    
    63   30   32 1    
    64   32   33 1    
    65   32   34 1    
    66   32  155 1    
    67   33  156 1    
    68   33  157 1    
    69   33  158 1    
    70   34   35 am   BACKBONE|DICT|INTERRES
    71   34  159 1    
    72   35   36 2    
    73   35   37 1    
    74   37   38 1    
    75   37   39 1    
    76   37  160 1    
    77   38  161 1    
    78   38  162 1    
    79   38  163 1    
    80   39   40 am   BACKBONE|DICT|INTERRES
    81   39  164 1    
    82   40   41 2    
    83   40   42 1    
    84   42   43 1    
    85   42   44 1    
    86   42  165 1    
    87   43  166 1    
    88   43  167 1    
    89   43  168 1    
    90   44   45 am   BACKBONE|DICT|INTERRES
    91   44  169 1    
    92   45   46 2    
    93   45   47 1    
    94   47   48 1    
    95   47   49 1    
    96   47  170 1    
    97   48  171 1    
    98   48  172 1    
    99   48  173 1    
   100   49   50 am   BACKBONE|DICT|INTERRES
   101   49  174 1    
   102   50   51 2    
   103   50   52 1    
   104   52   53 1    
   105   52   54 1    
   106   52  175 1    
   107   53  176 1    
   108   53  177 1    
   109   53  178 1    
   110   54   55 am   BACKBONE|DICT|INTERRES
   111   54  179 1    
   112   55   56 2    
   113   55   57 1    
   114   57   58 1    
   115   57   59 1    
   116   57  180 1    
   117   58  181 1    
   118   58  182 1    
   119   58  183 1    
   120   59   60 am   BACKBONE|DICT|INTERRES
   121   59  184 1    
   122   60   61 2    
   123   60   62 1    
   124   62   63 1    
   125   62   64 1    
   126   62  185 1    
   127   63  186 1    
   128   63  187 1    
   129   63  188 1    
   130   64   65 am   BACKBONE|DICT|INTERRES
   131   64  189 1    
   132   65   66 2    
   133   67   68 2    
   134   67   69 am   BACKBONE|DICT|INTERRES
   135   69   70 1    
   136   69  190 1    
   137   70   71 1    
   138   70   72 1    
   139   70  191 1    
   140   71  192 1    
   141   71  193 1    
   142   71  194 1    
   143   72   73 2    
   144   72   74 am   BACKBONE|DICT|INTERRES
   145   74   75 1    
   146   74  195 1    
   147   75   76 1    
   148   75   77 1    
   149   75  196 1    
   150   76  197 1    
   151   76  198 1    
   152   76  199 1    
   153   77   78 2    
   154   77   79 am   BACKBONE|DICT|INTERRES
   155   79   80 1    
   156   79  200 1    
   157   80   81 1    
   158   80   82 1    
   159   80  201 1    
   160   81  202 1    
   161   81  203 1    
   162   81  204 1    
   163   82   83 2    
   164   82   84 am   BACKBONE|DICT|INTERRES
   165   84   85 1    
   166   84  205 1    
   167   85   86 1    
   168   85   87 1    
   169   85  206 1    
   170   86  207 1    
   171   86  208 1    
   172   86  209 1    
   173   87   88 2    
   174   87   89 am   BACKBONE|DICT|INTERRES
   175   89   90 1    
   176   89  210 1    
   177   90   91 1    
   178   90   92 1    
   179   90  211 1    
   180   91  212 1    
   181   91  213 1    
   182   91  214 1    
   183   92   93 2    
   184   92   94 am   BACKBONE|DICT|INTERRES
   185   94   95 1    
   186   94  215 1    
   187   95   96 1    
   188   95   97 1    
   189   95  216 1    
   190   96  217 1    
   191   96  218 1    
   192   96  219 1    
   193   97   98 2    
   194   97   99 am   BACKBONE|DICT|INTERRES
   195   99  100 1    
   196   99  220 1    
   197  100  101 1    
   198  100  102 1    
   199  100  221 1    
   200  101  222 1    
   201  101  223 1    
   202  101  224 1    
   203  102  103 2    
   204  102  104 am   BACKBONE|DICT|INTERRES
   205  104  105 1    
   206  104  225 1    
   207  105  106 1    
   208  105  107 1    
   209  105  226 1    
   210  106  227 1    
   211  106  228 1    
   212  106  229 1    
   213  107  108 2    
   214  107  109 am   BACKBONE|DICT|INTERRES
   215  109  110 1    
   216  109  230 1    
   217  110  111 1    
   218  110  112 1    
   219  110  231 1    
   220  111  232 1    
   221  111  233 1    
   222  111  234 1    
   223  112  113 2    
   224  112  114 am   BACKBONE|DICT|INTERRES
   225  114  115 1    
   226  114  235 1    
   227  115  116 1    
   228  115  117 1    
   229  115  236 1    
   230  116  237 1    
   231  116  238 1    
   232  116  239 1    
   233  117  118 2    
   234  117  119 am   BACKBONE|DICT|INTERRES
   235  119  120 1    
   236  119  240 1    
   237  120  121 1    
   238  120  124 1    
   239  120  241 1    
   240  121  122 am   BACKBONE|DICT|INTERRES
   241  121  123 2    
   242  122  242 1    
   243  122  243 1    
   244  124  125 1    
   245  124  244 1    
   246  124  245 1    
   247  125  126 1    
   248  126  246 1    
   249  126  247 1    
@<TRIPOS>SUBSTRUCTURE
     1 UNK         1 GROUP             0       ****    0 ROOT    
