@<TRIPOS>MOLECULE
3R540
247   249    1
SMALL
USER_CHARGES


@<TRIPOS>ATOM
      1 CA          0.1263  -11.2709  -47.7269 C.3       0 UNK        -0.1800 
      2 C           1.4158  -11.9993  -47.3809 C.2       0 UNK         0.5000 
      3 O           1.4736  -12.6934  -46.3671 O.2       0 UNK        -0.5000 
      4 N           2.4582  -11.8448  -48.2105 N.am      1 UNK        -0.5000 
      5 CA          3.7676  -12.4989  -48.0552 C.3       1 UNK         0.1400 
      6 C6          3.6584  -14.0391  -48.2206 C.3       23 UNK        -0.0398 
      7 S7          5.2052  -14.8285  -48.7785 S.3       23 UNK        -0.2404 
      8 C8          4.8321  -15.1800  -50.5245 C.3       23 UNK        -0.0205 
      9 C9          3.7987  -16.2862  -50.6917 C.ar      23 UNK        -0.0193 
     10 C10         2.5391  -16.0036  -51.2298 C.ar      23 UNK        -0.1150 
     11 C11         1.6126  -17.0280  -51.4491 C.ar      23 UNK        -0.0193 
     12 C12         1.9579  -18.3423  -51.1250 C.ar      23 UNK        -0.1150 
     13 C13         3.1977  -18.6342  -50.5483 C.ar      23 UNK        -0.0193 
     14 C14         4.1165  -17.6018  -50.3417 C.ar      23 UNK        -0.1150 
     15 C15         3.5523  -20.0636  -50.1625 C.3       23 UNK        -0.0205 
     16 S16         2.8811  -20.5113  -48.5281 S.3       23 UNK        -0.2404 
     17 C17         1.1075  -20.6726  -48.9162 C.3       23 UNK        -0.0398 
     18 CA          0.3790  -21.7035  -48.0270 C.3       11 UNK         0.1400 
     19 N           0.3101  -21.2987  -46.6209 N.am      11 UNK        -0.5000 
     20 C          -0.1859  -22.0520  -45.6285 C.2       10 UNK         0.5000 
     21 O          -0.5701  -23.2128  -45.7722 O.2       10 UNK        -0.5000 
     22 CA         -0.3456  -21.3683  -44.2603 C.3       10 UNK         0.1400 
     23 CB          0.9765  -21.3548  -43.4772 C.3       10 UNK        -0.1800 
     24 N          -0.8553  -20.0052  -44.4018 N.am      10 UNK        -0.5000 
     25 C          -2.1036  -19.7041  -44.7859 C.2       9 UNK         0.5000 
     26 O          -2.9690  -20.5475  -45.0175 O.2       9 UNK        -0.5000 
     27 CA         -2.4339  -18.2121  -44.9677 C.3       9 UNK         0.1400 
     28 CB         -2.8454  -17.6016  -43.6252 C.3       9 UNK        -0.1800 
     29 N          -1.3172  -17.4518  -45.5313 N.am      9 UNK        -0.5000 
     30 C          -0.8822  -17.6061  -46.7895 C.2       8 UNK         0.5000 
     31 O          -1.3785  -18.4007  -47.5864 O.2       8 UNK        -0.5000 
     32 CA          0.3413  -16.7764  -47.2168 C.3       8 UNK         0.1400 
     33 CB         -0.0948  -15.3695  -47.6476 C.3       8 UNK        -0.1800 
     34 N           1.3903  -16.6730  -46.1975 N.am      8 UNK        -0.5000 
     35 C           1.9840  -17.7116  -45.5924 C.2       7 UNK         0.5000 
     36 O           1.6393  -18.8816  -45.7504 O.2       7 UNK        -0.5000 
     37 CA          3.1538  -17.4100  -44.6500 C.3       7 UNK         0.1400 
     38 CB          3.9952  -16.1946  -45.0765 C.3       7 UNK        -0.1800 
     39 N           2.6681  -17.2444  -43.2804 N.am      7 UNK        -0.5000 
     40 C           3.2762  -17.7651  -42.2042 C.2       6 UNK         0.5000 
     41 O           4.3151  -18.4239  -42.2728 O.2       6 UNK        -0.5000 
     42 CA          2.6502  -17.5266  -40.8142 C.3       6 UNK         0.1400 
     43 CB          3.6725  -16.9328  -39.8310 C.3       6 UNK        -0.1800 
     44 N           1.4839  -16.6464  -40.8457 N.am      6 UNK        -0.5000 
     45 C           0.2108  -17.0602  -40.8226 C.2       5 UNK         0.5000 
     46 O          -0.1288  -18.2433  -40.8097 O.2       5 UNK        -0.5000 
     47 CA         -0.8694  -15.9601  -40.8239 C.3       5 UNK         0.1400 
     48 CB         -1.2190  -15.5624  -39.3820 C.3       5 UNK        -0.1800 
     49 N          -0.4947  -14.7558  -41.5658 N.am      5 UNK        -0.5000 
     50 C          -0.0754  -14.6900  -42.8373 C.2       4 UNK         0.5000 
     51 O           0.0275  -15.6668  -43.5831 O.2       4 UNK        -0.5000 
     52 CA          0.3372  -13.2970  -43.3490 C.3       4 UNK         0.1400 
     53 CB         -0.4107  -12.1403  -42.6513 C.3       4 UNK        -0.1800 
     54 N           1.7863  -13.0608  -43.2878 N.am      4 UNK        -0.5000 
     55 C           2.5957  -13.1851  -42.2211 C.2       3 UNK         0.5000 
     56 O           2.2386  -13.6572  -41.1404 O.2       3 UNK        -0.5000 
     57 CA          4.0511  -12.6946  -42.3548 C.3       3 UNK         0.1400 
     58 CB          5.0473  -13.8507  -42.1886 C.3       3 UNK        -0.1800 
     59 N           4.3342  -11.9998  -43.6115 N.am      3 UNK        -0.5000 
     60 C           4.1794  -10.6859  -43.8091 C.2       2 UNK         0.5000 
     61 O           3.6651   -9.9308  -42.9833 O.2       2 UNK        -0.5000 
     62 CA          4.7001  -10.1033  -45.1392 C.3       2 UNK         0.1400 
     63 CB          6.2347   -9.9654  -45.1219 C.3       2 UNK        -0.1800 
     64 N           4.2391  -10.8050  -46.3432 N.am      2 UNK        -0.5000 
     65 C           4.4901  -12.0581  -46.7541 C.2       1 UNK         0.5000 
     66 O           5.2144  -12.8428  -46.1394 O.2       1 UNK        -0.5000 
     67 C          -1.0215  -21.9929  -48.5999 C.2       11 UNK         0.5000 
     68 O          -1.2102  -23.0407  -49.2143 O.2       11 UNK        -0.5000 
     69 N          -1.9800  -21.0853  -48.3631 N.am      12 UNK        -0.5000 
     70 CA         -3.3778  -21.2302  -48.7682 C.3       12 UNK         0.1400 
     71 CB         -4.1499  -19.9468  -48.4328 C.3       12 UNK        -0.1800 
     72 C          -4.0574  -22.4548  -48.1324 C.2       12 UNK         0.5000 
     73 O          -4.7344  -23.2003  -48.8387 O.2       12 UNK        -0.5000 
     74 N          -3.8413  -22.6642  -46.8257 N.am      13 UNK        -0.5000 
     75 CA         -4.3322  -23.8252  -46.0819 C.3       13 UNK         0.1400 
     76 CB         -4.0147  -23.6619  -44.5882 C.3       13 UNK        -0.1800 
     77 C          -3.7742  -25.1539  -46.6222 C.2       13 UNK         0.5000 
     78 O          -4.5468  -26.0909  -46.8300 O.2       13 UNK        -0.5000 
     79 N          -2.4581  -25.1922  -46.8811 N.am      14 UNK        -0.5000 
     80 CA         -1.7610  -26.3253  -47.4931 C.3       14 UNK         0.1400 
     81 CB         -0.2456  -26.0765  -47.4649 C.3       14 UNK        -0.1800 
     82 C          -2.2431  -26.6169  -48.9263 C.2       14 UNK         0.5000 
     83 O          -2.4309  -27.7816  -49.2801 O.2       14 UNK        -0.5000 
     84 N          -2.4973  -25.5587  -49.7064 N.am      15 UNK        -0.5000 
     85 CA         -3.0692  -25.5931  -51.0532 C.3       15 UNK         0.1400 
     86 CB         -2.6829  -24.3003  -51.7911 C.3       15 UNK        -0.1800 
     87 C          -4.5959  -25.8298  -51.0516 C.2       15 UNK         0.5000 
     88 O          -5.3293  -25.1150  -51.7363 O.2       15 UNK        -0.5000 
     89 N          -5.0420  -26.8349  -50.2842 N.am      16 UNK        -0.5000 
     90 CA         -6.4092  -27.3548  -50.1792 C.3       16 UNK         0.1400 
     91 CB         -6.7400  -28.1996  -51.4260 C.3       16 UNK        -0.1800 
     92 C          -7.4744  -26.2783  -49.8756 C.2       16 UNK         0.5000 
     93 O          -8.5532  -26.2944  -50.4712 O.2       16 UNK        -0.5000 
     94 N          -7.1402  -25.3669  -48.9499 N.am      17 UNK        -0.5000 
     95 CA         -7.9356  -24.2110  -48.5232 C.3       17 UNK         0.1400 
     96 CB         -9.2249  -24.6583  -47.8025 C.3       17 UNK        -0.1800 
     97 C          -8.1888  -23.2214  -49.6803 C.2       17 UNK         0.5000 
     98 O          -9.3378  -22.9349  -50.0224 O.2       17 UNK        -0.5000 
     99 N          -7.0834  -22.7181  -50.2441 N.am      18 UNK        -0.5000 
    100 CA        -6.9860  -21.7259  -51.3159 C.3       18 UNK         0.1400 
    101 CB        -7.5610  -20.3679  -50.8588 C.3       18 UNK        -0.1800 
    102 C         -7.5959  -22.2140  -52.6437 C.2       18 UNK         0.5000 
    103 O         -8.3824  -21.4954  -53.2666 O.2       18 UNK        -0.5000 
    104 N         -7.2125  -23.4230  -53.0759 N.am      19 UNK        -0.5000 
    105 CA        -7.5644  -23.9934  -54.3773 C.3       19 UNK         0.1400 
    106 CB        -7.3613  -25.5168  -54.3373 C.3       19 UNK        -0.1800 
    107 C         -6.7534  -23.3142  -55.4996 C.2       19 UNK         0.5000 
    108 O         -5.7854  -23.8850  -56.0067 O.2       19 UNK        -0.5000 
    109 N         -7.1412  -22.0714  -55.8155 N.am      20 UNK        -0.5000 
    110 CA        -6.5307  -21.1056  -56.7354 C.3       20 UNK         0.1400 
    111 CB        -6.4300  -21.6542  -58.1720 C.3       20 UNK        -0.1800 
    112 C         -5.1811  -20.5602  -56.2335 C.2       20 UNK         0.5000 
    113 O         -5.0326  -19.3435  -56.1043 O.2       20 UNK        -0.5000 
    114 N         -4.2350  -21.4598  -55.9370 N.am      21 UNK        -0.5000 
    115 CA        -2.9062  -21.1657  -55.4033 C.3       21 UNK         0.1400 
    116 CB        -2.0906  -22.4656  -55.3368 C.3       21 UNK        -0.1800 
    117 C         -2.9895  -20.4711  -54.0311 C.2       21 UNK         0.5000 
    118 O         -3.3781  -21.0991  -53.0447 O.2       21 UNK        -0.5000 
    119 N         -2.6637  -19.1731  -54.0200 N.am      22 UNK        -0.5000 
    120 CA        -2.8079  -18.2566  -52.8781 C.3       22 UNK         0.1400 
    121 C         -4.2854  -18.0067  -52.4351 C.2       22 UNK         0.5000 
    122 N         -5.2702  -18.2135  -53.3034 N.am      22 UNK        -0.7600 
    123 O         -4.5502  -17.5932  -51.3105 O.2       22 UNK        -0.5000 
    124 C124       -1.8306  -18.5963  -51.7127 C.3       23 UNK        -0.0398 
    125 S125       -1.1285  -17.0958  -50.9415 S.3       23 UNK        -0.2404 
    126 C126        0.2560  -16.7181  -52.0677 C.3       23 UNK        -0.0205 
    127 H127       -0.1519  -10.5976  -46.9163 H         1 UNK         0.0600 
    128 H128       -0.6809  -11.9898  -47.8670 H         1 UNK         0.0600 
    129 H129        0.2241  -10.6845  -48.6407 H         1 UNK         0.0600 
    130 H130        2.3580  -11.2557  -49.0260 H         1 UNK         0.3000 
    131 H131        4.3769  -12.1173  -48.8759 H         1 UNK         0.0600 
    132 H132        3.3274  -14.5052  -47.2941 H         1 UNK         0.0800 
    133 H133        2.8820  -14.2727  -48.9482 H         1 UNK         0.0800 
    134 H134        4.5067  -14.2615  -51.0157 H         1 UNK         0.0800 
    135 H135        5.7535  -15.4814  -51.0245 H         1 UNK         0.0800 
    136 H136        2.2874  -14.9869  -51.4975 H         1 UNK         0.1150 
    137 H137        1.2512  -19.1356  -51.3132 H         1 UNK         0.1150 
    138 H138        5.0848  -17.8204  -49.9135 H         1 UNK         0.1150 
    139 H139        3.1924  -20.7607  -50.9206 H         1 UNK         0.0800 
    140 H140        4.6364  -20.1835  -50.1363 H         1 UNK         0.0800 
    141 H141        1.0193  -20.9722  -49.9617 H         1 UNK         0.0800 
    142 H142        0.6423  -19.6893  -48.8353 H         1 UNK         0.0800 
    143 H143        0.9397  -22.6399  -48.0657 H         1 UNK         0.0600 
    144 H144        0.6571  -20.3690  -46.3973 H         1 UNK         0.3000 
    145 H145       -1.0718  -21.9432  -43.6817 H         1 UNK         0.0600 
    146 H146        0.8521  -20.8825  -42.5023 H         1 UNK         0.0600 
    147 H147        1.3333  -22.3707  -43.3041 H         1 UNK         0.0600 
    148 H148        1.7635  -20.8202  -44.0088 H         1 UNK         0.0600 
    149 H149       -0.1824  -19.2575  -44.3093 H         1 UNK         0.3000 
    150 H150       -3.2793  -18.1293  -45.6537 H         1 UNK         0.0600 
    151 H151       -3.7775  -18.0403  -43.2674 H         1 UNK         0.0600 
    152 H152       -2.9929  -16.5239  -43.6979 H         1 UNK         0.0600 
    153 H153       -2.0840  -17.7963  -42.8724 H         1 UNK         0.0600 
    154 H154       -0.8362  -16.8003  -44.9168 H         1 UNK         0.3000 
    155 H155        0.7813  -17.2728  -48.0845 H         1 UNK         0.0600 
    156 H156       -0.9195  -15.4127  -48.3599 H         1 UNK         0.0600 
    157 H157       -0.4261  -14.7726  -46.7969 H         1 UNK         0.0600 
    158 H158        0.7208  -14.8406  -48.1370 H         1 UNK         0.0600 
    159 H159        1.6931  -15.7392  -45.9639 H         1 UNK         0.3000 
    160 H160        3.8014  -18.2873  -44.7139 H         1 UNK         0.0600 
    161 H161        3.4741  -15.2501  -44.9158 H         1 UNK         0.0600 
    162 H162        4.2657  -16.2625  -46.1303 H         1 UNK         0.0600 
    163 H163        4.9324  -16.1641  -44.5225 H         1 UNK         0.0600 
    164 H164        1.7875  -16.7533  -43.1703 H         1 UNK         0.3000 
    165 H165        2.3642  -18.5091  -40.4332 H         1 UNK         0.0600 
    166 H166        3.2524  -16.8588  -38.8279 H         1 UNK         0.0600 
    167 H167        4.5667  -17.5531  -39.7600 H         1 UNK         0.0600 
    168 H168        3.9846  -15.9348  -40.1334 H         1 UNK         0.0600 
    169 H169        1.6690  -15.6484  -40.8758 H         1 UNK         0.3000 
    170 H170       -1.7726  -16.3605  -41.2794 H         1 UNK         0.0600 
    171 H171       -0.3667  -15.1116  -38.8715 H         1 UNK         0.0600 
    172 H172       -2.0421  -14.8480  -39.3572 H         1 UNK         0.0600 
    173 H173       -1.5281  -16.4320  -38.8003 H         1 UNK         0.0600 
    174 H174       -0.4873  -13.8978  -41.0340 H         1 UNK         0.3000 
    175 H175        0.0470  -13.2770  -44.3984 H         1 UNK         0.0600 
    176 H176       -0.2155  -11.1954  -43.1586 H         1 UNK         0.0600 
    177 H177       -0.1106  -12.0192  -41.6100 H         1 UNK         0.0600 
    178 H178       -1.4899  -12.2981  -42.6727 H         1 UNK         0.0600 
    179 H179        2.1894  -12.7120  -44.1480 H         1 UNK         0.3000 
    180 H180        4.2254  -12.0001  -41.5301 H         1 UNK         0.0600 
    181 H181        5.0426  -14.2163  -41.1627 H         1 UNK         0.0600 
    182 H182        6.0674  -13.5353  -42.4086 H         1 UNK         0.0600 
    183 H183        4.8055  -14.6892  -42.8369 H         1 UNK         0.0600 
    184 H184        4.7464  -12.5420  -44.3677 H         1 UNK         0.3000 
    185 H185        4.2884   -9.0957  -45.2163 H         1 UNK         0.0600 
    186 H186        6.5602   -9.3589  -44.2758 H         1 UNK         0.0600 
    187 H187        6.7330  -10.9315  -45.0384 H         1 UNK         0.0600 
    188 H188        6.5964   -9.4793  -46.0279 H         1 UNK         0.0600 
    189 H189        3.5948  -10.2743  -46.9126 H         1 UNK         0.3000 
    190 H190       -1.7353  -20.2153  -47.8956 H         1 UNK         0.3000 
    191 H191       -3.3976  -21.3644  -49.8519 H         1 UNK         0.0600 
    192 H192       -3.7348  -19.0852  -48.9557 H         1 UNK         0.0600 
    193 H193       -5.1944  -20.0322  -48.7275 H         1 UNK         0.0600 
    194 H194       -4.1292  -19.7302  -47.3652 H         1 UNK         0.0600 
    195 H195       -3.3156  -21.9746  -46.2961 H         1 UNK         0.3000 
    196 H196       -5.4177  -23.8531  -46.1926 H         1 UNK         0.0600 
    197 H197       -4.3808  -24.5146  -44.0151 H         1 UNK         0.0600 
    198 H198       -4.4891  -22.7690  -44.1807 H         1 UNK         0.0600 
    199 H199       -2.9425  -23.5811  -44.4093 H         1 UNK         0.0600 
    200 H200       -1.8894  -24.3821  -46.6513 H         1 UNK         0.3000 
    201 H201       -1.9706  -27.2093  -46.8875 H         1 UNK         0.0600 
    202 H202        0.1132  -25.9492  -46.4434 H         1 UNK         0.0600 
    203 H203        0.0272  -25.1833  -48.0274 H         1 UNK         0.0600 
    204 H204        0.2970  -26.9173  -47.8986 H         1 UNK         0.0600 
    205 H205       -2.2794  -24.6333  -49.3466 H         1 UNK         0.3000 
    206 H206       -2.6219  -26.4274  -51.5969 H         1 UNK         0.0600 
    207 H207       -1.6013  -24.1733  -51.8341 H         1 UNK         0.0600 
    208 H208       -3.0505  -24.3153  -52.8163 H         1 UNK         0.0600 
    209 H209       -3.1055  -23.4200  -51.3054 H         1 UNK         0.0600 
    210 H210       -4.3403  -27.3402  -49.7535 H         1 UNK         0.3000 
    211 H211       -6.4134  -28.0260  -49.3193 H         1 UNK         0.0600 
    212 H212       -6.7343  -27.5964  -52.3329 H         1 UNK         0.0600 
    213 H213       -7.7240  -28.6623  -51.3422 H         1 UNK         0.0600 
    214 H214       -6.0165  -29.0041  -51.5578 H         1 UNK         0.0600 
    215 H215       -6.2098  -25.4254  -48.5553 H         1 UNK         0.3000 
    216 H216       -7.3291  -23.6763  -47.7912 H         1 UNK         0.0600 
    217 H217       -9.7576  -23.7990  -47.3937 H         1 UNK         0.0600 
    218 H218       -8.9995  -25.3259  -46.9710 H         1 UNK         0.0600 
    219 H219       -9.9114  -25.1766  -48.4722 H         1 UNK         0.0600 
    220 H220       -6.1899  -23.0436  -49.8767 H         1 UNK         0.3000 
    221 H221       -5.9197  -21.5852  -51.5018 H         1 UNK         0.0600 
    222 H222       -8.6439  -20.4053  -50.7372 H         1 UNK         0.0600 
    223 H223       -7.1333  -20.0497  -49.9100 H         1 UNK         0.0600 
    224 H224       -7.3421  -19.5889  -51.5894 H         1 UNK         0.0600 
    225 H225       -6.5516  -23.9618  -52.5176 H         1 UNK         0.3000 
    226 H226       -8.6237  -23.8100  -54.5692 H         1 UNK         0.0600 
    227 H227       -7.9802  -25.9708  -53.5633 H         1 UNK         0.0600 
    228 H228       -7.6407  -25.9726  -55.2877 H         1 UNK         0.0600 
    229 H229       -6.3228  -25.7833  -54.1384 H         1 UNK         0.0600 
    230 H230       -7.8836  -21.6878  -55.2386 H         1 UNK         0.3000 
    231 H231       -7.2177  -20.2583  -56.7633 H         1 UNK         0.0600 
    232 H232       -5.7366  -22.4919  -58.2477 H         1 UNK         0.0600 
    233 H233       -6.0779  -20.8813  -58.8561 H         1 UNK         0.0600 
    234 H234       -7.4018  -21.9900  -58.5338 H         1 UNK         0.0600 
    235 H235       -4.4893  -22.4398  -56.0194 H         1 UNK         0.3000 
    236 H236       -2.4052  -20.4961  -56.1054 H         1 UNK         0.0600 
    237 H237       -1.9115  -22.8675  -56.3341 H         1 UNK         0.0600 
    238 H238       -1.1180  -22.2976  -54.8725 H         1 UNK         0.0600 
    239 H239       -2.6060  -23.2317  -54.7594 H         1 UNK         0.0600 
    240 H240       -2.4008  -18.7373  -54.8925 H         1 UNK         0.3000 
    241 H241       -2.5007  -17.2956  -53.2917 H         1 UNK         0.0600 
    242 H242       -5.0774  -18.5375  -54.2448 H         1 UNK         0.3800 
    243 H243       -6.2188  -18.0259  -53.0236 H         1 UNK         0.3800 
    244 H244       -2.3228  -19.1982  -50.9479 H         1 UNK         0.0800 
    245 H245       -1.0024  -19.2088  -52.0696 H         1 UNK         0.0800 
    246 H246        0.1521  -17.2695  -53.0030 H         1 UNK         0.0800 
    247 H247        0.1939  -15.6622  -52.3349 H         1 UNK         0.0800 
@<TRIPOS>BOND
     1    1    2 1    
     2    1  127 1    
     3    1  128 1    
     4    1  129 1    
     5    2    3 2    
     6    2    4 am   BACKBONE|DICT|INTERRES
     7    4    5 1    
     8    4  130 1    
     9    5    6 1    
    10    5   65 1    
    11    5  131 1    
    12    6    7 1    
    13    6  132 1    
    14    6  133 1    
    15    7    8 1    
    16    8    9 1    
    17    8  134 1    
    18    8  135 1    
    19    9   10 ar   
    20    9   14 ar   
    21   10   11 ar   
    22   10  136 1    
    23   11   12 ar   
    24   11  126 1    
    25   12   13 ar   
    26   12  137 1    
    27   13   14 ar   
    28   13   15 1    
    29   14  138 1    
    30   15   16 1    
    31   15  139 1    
    32   15  140 1    
    33   16   17 1    
    34   17   18 1    
    35   17  141 1    
    36   17  142 1    
    37   18   19 1    
    38   18   67 1    
    39   18  143 1    
    40   19   20 am   BACKBONE|DICT|INTERRES
    41   19  144 1    
    42   20   21 2    
    43   20   22 1    
    44   22   23 1    
    45   22   24 1    
    46   22  145 1    
    47   23  146 1    
    48   23  147 1    
    49   23  148 1    
    50   24   25 am   BACKBONE|DICT|INTERRES
    51   24  149 1    
    52   25   26 2    
    53   25   27 1    
    54   27   28 1    
    55   27   29 1    
    56   27  150 1    
    57   28  151 1    
    58   28  152 1    
    59   28  153 1    
    60   29   30 am   BACKBONE|DICT|INTERRES
    61   29  154 1    
    62   30   31 2    
    63   30   32 1    
    64   32   33 1    
    65   32   34 1    
    66   32  155 1    
    67   33  156 1    
    68   33  157 1    
    69   33  158 1    
    70   34   35 am   BACKBONE|DICT|INTERRES
    71   34  159 1    
    72   35   36 2    
    73   35   37 1    
    74   37   38 1    
    75   37   39 1    
    76   37  160 1    
    77   38  161 1    
    78   38  162 1    
    79   38  163 1    
    80   39   40 am   BACKBONE|DICT|INTERRES
    81   39  164 1    
    82   40   41 2    
    83   40   42 1    
    84   42   43 1    
    85   42   44 1    
    86   42  165 1    
    87   43  166 1    
    88   43  167 1    
    89   43  168 1    
    90   44   45 am   BACKBONE|DICT|INTERRES
    91   44  169 1    
    92   45   46 2    
    93   45   47 1    
    94   47   48 1    
    95   47   49 1    
    96   47  170 1    
    97   48  171 1    
    98   48  172 1    
    99   48  173 1    
   100   49   50 am   BACKBONE|DICT|INTERRES
   101   49  174 1    
   102   50   51 2    
   103   50   52 1    
   104   52   53 1    
   105   52   54 1    
   106   52  175 1    
   107   53  176 1    
   108   53  177 1    
   109   53  178 1    
   110   54   55 am   BACKBONE|DICT|INTERRES
   111   54  179 1    
   112   55   56 2    
   113   55   57 1    
   114   57   58 1    
   115   57   59 1    
   116   57  180 1    
   117   58  181 1    
   118   58  182 1    
   119   58  183 1    
   120   59   60 am   BACKBONE|DICT|INTERRES
   121   59  184 1    
   122   60   61 2    
   123   60   62 1    
   124   62   63 1    
   125   62   64 1    
   126   62  185 1    
   127   63  186 1    
   128   63  187 1    
   129   63  188 1    
   130   64   65 am   BACKBONE|DICT|INTERRES
   131   64  189 1    
   132   65   66 2    
   133   67   68 2    
   134   67   69 am   BACKBONE|DICT|INTERRES
   135   69   70 1    
   136   69  190 1    
   137   70   71 1    
   138   70   72 1    
   139   70  191 1    
   140   71  192 1    
   141   71  193 1    
   142   71  194 1    
   143   72   73 2    
   144   72   74 am   BACKBONE|DICT|INTERRES
   145   74   75 1    
   146   74  195 1    
   147   75   76 1    
   148   75   77 1    
   149   75  196 1    
   150   76  197 1    
   151   76  198 1    
   152   76  199 1    
   153   77   78 2    
   154   77   79 am   BACKBONE|DICT|INTERRES
   155   79   80 1    
   156   79  200 1    
   157   80   81 1    
   158   80   82 1    
   159   80  201 1    
   160   81  202 1    
   161   81  203 1    
   162   81  204 1    
   163   82   83 2    
   164   82   84 am   BACKBONE|DICT|INTERRES
   165   84   85 1    
   166   84  205 1    
   167   85   86 1    
   168   85   87 1    
   169   85  206 1    
   170   86  207 1    
   171   86  208 1    
   172   86  209 1    
   173   87   88 2    
   174   87   89 am   BACKBONE|DICT|INTERRES
   175   89   90 1    
   176   89  210 1    
   177   90   91 1    
   178   90   92 1    
   179   90  211 1    
   180   91  212 1    
   181   91  213 1    
   182   91  214 1    
   183   92   93 2    
   184   92   94 am   BACKBONE|DICT|INTERRES
   185   94   95 1    
   186   94  215 1    
   187   95   96 1    
   188   95   97 1    
   189   95  216 1    
   190   96  217 1    
   191   96  218 1    
   192   96  219 1    
   193   97   98 2    
   194   97   99 am   BACKBONE|DICT|INTERRES
   195   99  100 1    
   196   99  220 1    
   197  100  101 1    
   198  100  102 1    
   199  100  221 1    
   200  101  222 1    
   201  101  223 1    
   202  101  224 1    
   203  102  103 2    
   204  102  104 am   BACKBONE|DICT|INTERRES
   205  104  105 1    
   206  104  225 1    
   207  105  106 1    
   208  105  107 1    
   209  105  226 1    
   210  106  227 1    
   211  106  228 1    
   212  106  229 1    
   213  107  108 2    
   214  107  109 am   BACKBONE|DICT|INTERRES
   215  109  110 1    
   216  109  230 1    
   217  110  111 1    
   218  110  112 1    
   219  110  231 1    
   220  111  232 1    
   221  111  233 1    
   222  111  234 1    
   223  112  113 2    
   224  112  114 am   BACKBONE|DICT|INTERRES
   225  114  115 1    
   226  114  235 1    
   227  115  116 1    
   228  115  117 1    
   229  115  236 1    
   230  116  237 1    
   231  116  238 1    
   232  116  239 1    
   233  117  118 2    
   234  117  119 am   BACKBONE|DICT|INTERRES
   235  119  120 1    
   236  119  240 1    
   237  120  121 1    
   238  120  124 1    
   239  120  241 1    
   240  121  122 am   BACKBONE|DICT|INTERRES
   241  121  123 2    
   242  122  242 1    
   243  122  243 1    
   244  124  125 1    
   245  124  244 1    
   246  124  245 1    
   247  125  126 1    
   248  126  246 1    
   249  126  247 1    
@<TRIPOS>SUBSTRUCTURE
     1 UNK         1 GROUP             0       ****    0 ROOT    
