@<TRIPOS>MOLECULE
3R540
247   249    1
SMALL
USER_CHARGES


@<TRIPOS>ATOM
      1 CA         -1.8671  -12.1898  -51.7932 C.3       0 UNK        -0.1800 
      2 C          -0.5783  -12.7847  -51.2431 C.2       0 UNK         0.5000 
      3 O           0.4996  -12.4984  -51.7633 O.2       0 UNK        -0.5000 
      4 N          -0.6868  -13.6025  -50.1903 N.am      1 UNK        -0.5000 
      5 CA          0.4483  -14.1850  -49.4695 C.3       1 UNK         0.1400 
      6 C6          1.0853  -15.4005  -50.1969 C.3       23 UNK        -0.0398 
      7 S7          2.8373  -15.6272  -49.7362 S.3       23 UNK        -0.2404 
      8 C8          2.7268  -16.9483  -48.4827 C.3       23 UNK        -0.0205 
      9 C9          3.0939  -18.3324  -49.0055 C.ar      23 UNK        -0.0193 
     10 C10         2.6292  -18.7978  -50.2397 C.ar      23 UNK        -0.1150 
     11 C11         2.9595  -20.0788  -50.6938 C.ar      23 UNK        -0.0193 
     12 C12         3.7676  -20.8982  -49.8993 C.ar      23 UNK        -0.1150 
     13 C13         4.2469  -20.4435  -48.6676 C.ar      23 UNK        -0.0193 
     14 C14         3.9021  -19.1638  -48.2263 C.ar      23 UNK        -0.1150 
     15 C15         5.1646  -21.3180  -47.8252 C.3       23 UNK        -0.0205 
     16 S16         4.2910  -22.7099  -47.0447 S.3       23 UNK        -0.2404 
     17 C17         3.1373  -21.8575  -45.9148 C.3       23 UNK        -0.0398 
     18 CA          1.7874  -22.5994  -45.7928 C.3       11 UNK         0.1400 
     19 N           1.0363  -22.1665  -44.6156 N.am      11 UNK        -0.5000 
     20 C           0.0203  -22.8521  -44.0752 C.2       10 UNK         0.5000 
     21 O          -0.3366  -23.9648  -44.4622 O.2       10 UNK        -0.5000 
     22 CA         -0.7447  -22.1695  -42.9263 C.3       10 UNK         0.1400 
     23 CB         -0.0578  -22.4424  -41.5800 C.3       10 UNK        -0.1800 
     24 N          -0.8960  -20.7254  -43.1152 N.am      10 UNK        -0.5000 
     25 C          -1.5681  -20.1580  -44.1268 C.2       9 UNK         0.5000 
     26 O          -2.1521  -20.7938  -45.0023 O.2       9 UNK        -0.5000 
     27 CA         -1.5497  -18.6229  -44.2004 C.3       9 UNK         0.1400 
     28 CB         -2.5263  -18.0211  -43.1791 C.3       9 UNK        -0.1800 
     29 N          -0.2110  -18.0640  -44.0075 N.am      9 UNK        -0.5000 
     30 C           0.8388  -18.3027  -44.8079 C.2       8 UNK         0.5000 
     31 O           0.7808  -18.9750  -45.8354 O.2       8 UNK        -0.5000 
     32 CA          2.1987  -17.7531  -44.3499 C.3       8 UNK         0.1400 
     33 CB          2.3464  -16.2647  -44.6996 C.3       8 UNK        -0.1800 
     34 N           2.4029  -17.9537  -42.9160 N.am      8 UNK        -0.5000 
     35 C           2.5592  -19.1526  -42.3355 C.2       7 UNK         0.5000 
     36 O           2.6048  -20.2130  -42.9591 O.2       7 UNK        -0.5000 
     37 CA          2.6332  -19.1690  -40.7973 C.3       7 UNK         0.1400 
     38 CB          4.0681  -18.8966  -40.3225 C.3       7 UNK        -0.1800 
     39 N           1.7268  -18.1962  -40.1843 N.am      7 UNK        -0.5000 
     40 C           0.3886  -18.2756  -40.2258 C.2       6 UNK         0.5000 
     41 O          -0.2218  -19.2150  -40.7337 O.2       6 UNK        -0.5000 
     42 CA         -0.3953  -17.0770  -39.6547 C.3       6 UNK         0.1400 
     43 CB         -0.6349  -17.2554  -38.1484 C.3       6 UNK        -0.1800 
     44 N           0.2738  -15.7939  -39.8952 N.am      6 UNK        -0.5000 
     45 C           0.5027  -15.2832  -41.1120 C.2       5 UNK         0.5000 
     46 O           0.1281  -15.8204  -42.1561 O.2       5 UNK        -0.5000 
     47 CA          1.3671  -14.0176  -41.1725 C.3       5 UNK         0.1400 
     48 CB          2.8455  -14.3946  -40.9309 C.3       5 UNK        -0.1800 
     49 N           1.2080  -13.3836  -42.4804 N.am      5 UNK        -0.5000 
     50 C           1.7101  -12.1944  -42.8361 C.2       4 UNK         0.5000 
     51 O           2.3237  -11.4535  -42.0665 O.2       4 UNK        -0.5000 
     52 CA          1.5039  -11.7478  -44.2957 C.3       4 UNK         0.1400 
     53 CB          2.6214  -12.3056  -45.1902 C.3       4 UNK        -0.1800 
     54 N           0.2022  -12.1155  -44.8560 N.am      4 UNK        -0.5000 
     55 C          -0.9647  -11.5764  -44.4681 C.2       3 UNK         0.5000 
     56 O          -1.0604  -10.7566  -43.5537 O.2       3 UNK        -0.5000 
     57 CA         -2.2411  -11.9794  -45.2381 C.3       3 UNK         0.1400 
     58 CB         -2.7040  -10.8289  -46.1464 C.3       3 UNK        -0.1800 
     59 N          -2.0893  -13.1820  -46.0565 N.am      3 UNK        -0.5000 
     60 C          -1.9711  -14.4245  -45.5728 C.2       2 UNK         0.5000 
     61 O          -2.0244  -14.6877  -44.3739 O.2       2 UNK        -0.5000 
     62 CA         -1.7341  -15.5582  -46.5929 C.3       2 UNK         0.1400 
     63 CB         -3.0439  -16.3145  -46.8655 C.3       2 UNK        -0.1800 
     64 N          -1.1651  -15.1277  -47.8761 N.am      2 UNK        -0.5000 
     65 C           0.0238  -14.5226  -48.0304 C.2       1 UNK         0.5000 
     66 O           0.7432  -14.1944  -47.0879 O.2       1 UNK        -0.5000 
     67 C           0.9297  -22.5006  -47.0736 C.2       11 UNK         0.5000 
     68 O           0.8630  -23.4711  -47.8280 O.2       11 UNK        -0.5000 
     69 N           0.2459  -21.3631  -47.2734 N.am      12 UNK        -0.5000 
     70 CA         -0.6406  -21.1172  -48.4145 C.3       12 UNK         0.1400 
     71 CB         -1.1247  -19.6593  -48.3947 C.3       12 UNK        -0.1800 
     72 C          -1.8326  -22.0902  -48.4875 C.2       12 UNK         0.5000 
     73 O          -2.2134  -22.5020  -49.5831 O.2       12 UNK        -0.5000 
     74 N          -2.3617  -22.4887  -47.3210 N.am      13 UNK        -0.5000 
     75 CA         -3.4428  -23.4644  -47.1542 C.3       13 UNK         0.1400 
     76 CB         -3.7923  -23.5917  -45.6642 C.3       13 UNK        -0.1800 
     77 C          -3.1614  -24.8537  -47.7612 C.2       13 UNK         0.5000 
     78 O          -4.1132  -25.5713  -48.0706 O.2       13 UNK        -0.5000 
     79 N          -1.8821  -25.2013  -47.9720 N.am      14 UNK        -0.5000 
     80 CA         -1.4540  -26.4288  -48.6493 C.3       14 UNK         0.1400 
     81 CB          0.0685  -26.5798  -48.5196 C.3       14 UNK        -0.1800 
     82 C          -1.8795  -26.4990  -50.1315 C.2       14 UNK         0.5000 
     83 O          -1.9660  -27.5994  -50.6774 O.2       14 UNK        -0.5000 
     84 N          -2.1693  -25.3431  -50.7489 N.am      15 UNK        -0.5000 
     85 CA         -2.7236  -25.2386  -52.1003 C.3       15 UNK         0.1400 
     86 CB         -2.3437  -23.8722  -52.6902 C.3       15 UNK        -0.1800 
     87 C          -4.2501  -25.4796  -52.1538 C.2       15 UNK         0.5000 
     88 O          -4.8130  -25.4884  -53.2498 O.2       15 UNK        -0.5000 
     89 N          -4.8930  -25.6860  -50.9916 N.am      16 UNK        -0.5000 
     90 CA         -6.2992  -26.0510  -50.7973 C.3       16 UNK         0.1400 
     91 CB         -6.5383  -27.5066  -51.2564 C.3       16 UNK        -0.1800 
     92 C          -7.2602  -25.0273  -51.4325 C.2       16 UNK         0.5000 
     93 O          -7.3551  -23.9046  -50.9383 O.2       16 UNK        -0.5000 
     94 N          -7.9336  -25.4050  -52.5271 N.am      17 UNK        -0.5000 
     95 CA         -8.8363  -24.5432  -53.2951 C.3       17 UNK         0.1400 
     96 CB         -9.5454  -25.3913  -54.3617 C.3       17 UNK        -0.1800 
     97 C          -8.1367  -23.3320  -53.9467 C.2       17 UNK         0.5000 
     98 O          -8.7950  -22.3242  -54.2062 O.2       17 UNK        -0.5000 
     99 N          -6.8223  -23.4415  -54.1815 N.am      18 UNK        -0.5000 
    100 CA        -5.9799  -22.3928  -54.7520 C.3       18 UNK         0.1400 
    101 CB        -5.0277  -23.0307  -55.7784 C.3       18 UNK        -0.1800 
    102 C         -5.2114  -21.5977  -53.6768 C.2       18 UNK         0.5000 
    103 O         -4.3140  -20.8354  -54.0338 O.2       18 UNK        -0.5000 
    104 N         -5.5529  -21.7624  -52.3876 N.am      19 UNK        -0.5000 
    105 CA        -4.9066  -21.0744  -51.2613 C.3       19 UNK         0.1400 
    106 CB        -5.4214  -21.6487  -49.9363 C.3       19 UNK        -0.1800 
    107 C         -5.0542  -19.5427  -51.2735 C.2       19 UNK         0.5000 
    108 O         -4.2060  -18.8579  -50.7012 O.2       19 UNK        -0.5000 
    109 N         -6.0924  -19.0287  -51.9482 N.am      20 UNK        -0.5000 
    110 CA        -6.3146  -17.6081  -52.2179 C.3       20 UNK         0.1400 
    111 CB        -7.6706  -17.4409  -52.9233 C.3       20 UNK        -0.1800 
    112 C         -5.1594  -17.0187  -53.0526 C.2       20 UNK         0.5000 
    113 O         -5.1115  -17.2285  -54.2653 O.2       20 UNK        -0.5000 
    114 N         -4.2251  -16.3525  -52.3587 N.am      21 UNK        -0.5000 
    115 CA        -2.9468  -15.8172  -52.8466 C.3       21 UNK         0.1400 
    116 CB        -3.1590  -14.7820  -53.9714 C.3       21 UNK        -0.1800 
    117 C         -1.9040  -16.8946  -53.2245 C.2       21 UNK         0.5000 
    118 O         -0.8697  -16.5460  -53.7936 O.2       21 UNK        -0.5000 
    119 N         -2.1635  -18.1605  -52.8638 N.am      22 UNK        -0.5000 
    120 CA        -1.3240  -19.3419  -53.1191 C.3       22 UNK         0.1400 
    121 C         -1.0450  -19.5738  -54.6354 C.2       22 UNK         0.5000 
    122 N         -2.0449  -20.0069  -55.3885 N.am      22 UNK        -0.7600 
    123 O          0.0571  -19.3636  -55.1366 O.2       22 UNK        -0.5000 
    124 C124       -0.0478  -19.3311  -52.2401 C.3       23 UNK        -0.0398 
    125 S125        0.7058  -20.9840  -52.0566 S.3       23 UNK        -0.2404 
    126 C126        2.4783  -20.5665  -52.0551 C.3       23 UNK        -0.0205 
    127 H127       -1.8711  -12.2372  -52.8819 H         1 UNK         0.0600 
    128 H128       -1.9494  -11.1434  -51.5001 H         1 UNK         0.0600 
    129 H129       -2.7474  -12.7182  -51.4270 H         1 UNK         0.0600 
    130 H130       -1.5949  -13.7477  -49.7747 H         1 UNK         0.3000 
    131 H131        1.2026  -13.3986  -49.3848 H         1 UNK         0.0600 
    132 H132        1.0715  -15.2383  -51.2755 H         1 UNK         0.0800 
    133 H133        0.5173  -16.3183  -50.0350 H         1 UNK         0.0800 
    134 H134        1.7294  -16.9883  -48.0438 H         1 UNK         0.0800 
    135 H135        3.4063  -16.6729  -47.6756 H         1 UNK         0.0800 
    136 H136        2.0175  -18.1544  -50.8516 H         1 UNK         0.1150 
    137 H137        4.0356  -21.8879  -50.2417 H         1 UNK         0.1150 
    138 H138        4.2691  -18.8122  -47.2722 H         1 UNK         0.1150 
    139 H139        5.9588  -21.7142  -48.4594 H         1 UNK         0.0800 
    140 H140        5.6603  -20.7293  -47.0516 H         1 UNK         0.0800 
    141 H141        2.9798  -20.8219  -46.2155 H         1 UNK         0.0800 
    142 H142        3.6252  -21.8134  -44.9402 H         1 UNK         0.0800 
    143 H143        2.0145  -23.6577  -45.6433 H         1 UNK         0.0600 
    144 H144        1.3060  -21.2821  -44.1998 H         1 UNK         0.3000 
    145 H145       -1.7455  -22.6050  -42.8926 H         1 UNK         0.0600 
    146 H146       -0.6358  -22.0314  -40.7521 H         1 UNK         0.0600 
    147 H147        0.9398  -22.0042  -41.5418 H         1 UNK         0.0600 
    148 H148        0.0462  -23.5137  -41.4040 H         1 UNK         0.0600 
    149 H149       -0.4902  -20.1281  -42.3999 H         1 UNK         0.3000 
    150 H150       -1.8830  -18.3416  -45.1994 H         1 UNK         0.0600 
    151 H151       -3.5451  -18.3595  -43.3709 H         1 UNK         0.0600 
    152 H152       -2.5316  -16.9336  -43.2243 H         1 UNK         0.0600 
    153 H153       -2.2745  -18.3066  -42.1584 H         1 UNK         0.0600 
    154 H154       -0.0844  -17.4452  -43.2117 H         1 UNK         0.3000 
    155 H155        2.9769  -18.3034  -44.8835 H         1 UNK         0.0600 
    156 H156        2.2373  -16.1028  -45.7701 H         1 UNK         0.0600 
    157 H157        3.3257  -15.8834  -44.4103 H         1 UNK         0.0600 
    158 H158        1.5899  -15.6507  -44.2161 H         1 UNK         0.0600 
    159 H159        2.3228  -17.1387  -42.3284 H         1 UNK         0.3000 
    160 H160        2.3441  -20.1663  -40.4593 H         1 UNK         0.0600 
    161 H161        4.4073  -17.9006  -40.6101 H         1 UNK         0.0600 
    162 H162        4.7644  -19.6178  -40.7525 H         1 UNK         0.0600 
    163 H163        4.1464  -18.9781  -39.2382 H         1 UNK         0.0600 
    164 H164        2.1486  -17.3973  -39.7352 H         1 UNK         0.3000 
    165 H165       -1.3660  -17.0487  -40.1541 H         1 UNK         0.0600 
    166 H166       -1.2562  -16.4530  -37.7503 H         1 UNK         0.0600 
    167 H167       -1.1499  -18.1951  -37.9444 H         1 UNK         0.0600 
    168 H168        0.3012  -17.2657  -37.5887 H         1 UNK         0.0600 
    169 H169        0.6143  -15.3025  -39.0812 H         1 UNK         0.3000 
    170 H170        1.0259  -13.3260  -40.3998 H         1 UNK         0.0600 
    171 H171        3.2315  -15.0329  -41.7266 H         1 UNK         0.0600 
    172 H172        3.4836  -13.5132  -40.8758 H         1 UNK         0.0600 
    173 H173        2.9726  -14.9296  -39.9892 H         1 UNK         0.0600 
    174 H174        0.6651  -13.9235  -43.1438 H         1 UNK         0.3000 
    175 H175        1.5763  -10.6582  -44.3162 H         1 UNK         0.0600 
    176 H176        2.6044  -13.3950  -45.2234 H         1 UNK         0.0600 
    177 H177        2.5295  -11.9394  -46.2129 H         1 UNK         0.0600 
    178 H178        3.6034  -12.0045  -44.8233 H         1 UNK         0.0600 
    179 H179        0.2103  -12.7928  -45.6106 H         1 UNK         0.3000 
    180 H180       -3.0221  -12.1651  -44.4976 H         1 UNK         0.0600 
    181 H181       -3.6445  -11.0705  -46.6420 H         1 UNK         0.0600 
    182 H182       -1.9655  -10.6026  -46.9166 H         1 UNK         0.0600 
    183 H183       -2.8679   -9.9167  -45.5711 H         1 UNK         0.0600 
    184 H184       -2.0344  -13.0468  -47.0540 H         1 UNK         0.3000 
    185 H185       -1.0228  -16.2496  -46.1389 H         1 UNK         0.0600 
    186 H186       -3.7731  -15.6832  -47.3745 H         1 UNK         0.0600 
    187 H187       -2.8722  -17.1953  -47.4844 H         1 UNK         0.0600 
    188 H188       -3.5028  -16.6558  -45.9365 H         1 UNK         0.0600 
    189 H189       -1.6887  -15.3966  -48.6950 H         1 UNK         0.3000 
    190 H190        0.3683  -20.5873  -46.6261 H         1 UNK         0.3000 
    191 H191       -0.0467  -21.2647  -49.3161 H         1 UNK         0.0600 
    192 H192       -0.2868  -18.9653  -48.4657 H         1 UNK         0.0600 
    193 H193       -1.6718  -19.4331  -47.4794 H         1 UNK         0.0600 
    194 H194       -1.7902  -19.4555  -49.2348 H         1 UNK         0.0600 
    195 H195       -2.0301  -22.0414  -46.4706 H         1 UNK         0.3000 
    196 H196       -4.3192  -23.0669  -47.6658 H         1 UNK         0.0600 
    197 H197       -4.1200  -22.6374  -45.2522 H         1 UNK         0.0600 
    198 H198       -2.9398  -23.9362  -45.0796 H         1 UNK         0.0600 
    199 H199       -4.6044  -24.3036  -45.5108 H         1 UNK         0.0600 
    200 H200       -1.1511  -24.5468  -47.7199 H         1 UNK         0.3000 
    201 H201       -1.9233  -27.2694  -48.1343 H         1 UNK         0.0600 
    202 H202        0.3867  -26.5264  -47.4782 H         1 UNK         0.0600 
    203 H203        0.5967  -25.8032  -49.0737 H         1 UNK         0.0600 
    204 H204        0.3989  -27.5419  -48.9128 H         1 UNK         0.0600 
    205 H205       -2.0788  -24.4721  -50.2348 H         1 UNK         0.3000 
    206 H206       -2.2617  -26.0045  -52.7266 H         1 UNK         0.0600 
    207 H207       -2.8078  -23.0578  -52.1401 H         1 UNK         0.0600 
    208 H208       -1.2650  -23.7162  -52.6660 H         1 UNK         0.0600 
    209 H209       -2.6577  -23.7879  -53.7299 H         1 UNK         0.0600 
    210 H210       -4.3565  -25.6211  -50.1343 H         1 UNK         0.3000 
    211 H211       -6.4818  -26.0113  -49.7225 H         1 UNK         0.0600 
    212 H212       -6.3194  -27.6502  -52.3150 H         1 UNK         0.0600 
    213 H213       -7.5716  -27.8102  -51.0833 H         1 UNK         0.0600 
    214 H214       -5.9056  -28.1957  -50.6967 H         1 UNK         0.0600 
    215 H215       -7.7785  -26.3348  -52.8885 H         1 UNK         0.3000 
    216 H216       -9.5910  -24.1536  -52.6089 H         1 UNK         0.0600 
    217 H217      -10.2496  -24.7881  -54.9365 H         1 UNK         0.0600 
    218 H218      -10.1119  -26.2045  -53.9077 H         1 UNK         0.0600 
    219 H219       -8.8354  -25.8270  -55.0658 H         1 UNK         0.0600 
    220 H220       -6.3420  -24.2930  -53.9056 H         1 UNK         0.3000 
    221 H221       -6.5974  -21.6689  -55.2873 H         1 UNK         0.0600 
    222 H222       -4.3728  -23.7697  -55.3186 H         1 UNK         0.0600 
    223 H223       -5.5856  -23.5303  -56.5704 H         1 UNK         0.0600 
    224 H224       -4.3956  -22.2809  -56.2554 H         1 UNK         0.0600 
    225 H225       -6.2910  -22.4151  -52.1521 H         1 UNK         0.3000 
    226 H226       -3.8367  -21.2723  -51.3191 H         1 UNK         0.0600 
    227 H227       -5.1937  -22.7118  -49.8609 H         1 UNK         0.0600 
    228 H228       -4.9485  -21.1548  -49.0864 H         1 UNK         0.0600 
    229 H229       -6.4996  -21.5228  -49.8332 H         1 UNK         0.0600 
    230 H230       -6.7198  -19.6736  -52.4048 H         1 UNK         0.3000 
    231 H231       -6.3651  -17.0825  -51.2620 H         1 UNK         0.0600 
    232 H232       -7.8646  -16.3919  -53.1505 H         1 UNK         0.0600 
    233 H233       -8.4882  -17.7934  -52.2943 H         1 UNK         0.0600 
    234 H234       -7.7096  -17.9933  -53.8632 H         1 UNK         0.0600 
    235 H235       -4.3493  -16.3024  -51.3566 H         1 UNK         0.3000 
    236 H236       -2.5136  -15.2855  -51.9991 H         1 UNK         0.0600 
    237 H237       -3.5212  -15.2449  -54.8893 H         1 UNK         0.0600 
    238 H238       -3.8756  -14.0163  -53.6744 H         1 UNK         0.0600 
    239 H239       -2.2257  -14.2744  -54.2169 H         1 UNK         0.0600 
    240 H240       -3.0262  -18.3388  -52.3650 H         1 UNK         0.3000 
    241 H241       -1.9261  -20.1895  -52.7879 H         1 UNK         0.0600 
    242 H242       -1.9000  -20.1607  -56.3729 H         1 UNK         0.3800 
    243 H243       -2.9483  -20.2226  -54.9654 H         1 UNK         0.3800 
    244 H244       -0.2912  -18.9793  -51.2372 H         1 UNK         0.0800 
    245 H245        0.6758  -18.6214  -52.6429 H         1 UNK         0.0800 
    246 H246        2.6896  -19.8150  -52.8171 H         1 UNK         0.0800 
    247 H247        3.0364  -21.4556  -52.3520 H         1 UNK         0.0800 
@<TRIPOS>BOND
     1    1    2 1    
     2    1  127 1    
     3    1  128 1    
     4    1  129 1    
     5    2    3 2    
     6    2    4 am   BACKBONE|DICT|INTERRES
     7    4    5 1    
     8    4  130 1    
     9    5    6 1    
    10    5   65 1    
    11    5  131 1    
    12    6    7 1    
    13    6  132 1    
    14    6  133 1    
    15    7    8 1    
    16    8    9 1    
    17    8  134 1    
    18    8  135 1    
    19    9   10 ar   
    20    9   14 ar   
    21   10   11 ar   
    22   10  136 1    
    23   11   12 ar   
    24   11  126 1    
    25   12   13 ar   
    26   12  137 1    
    27   13   14 ar   
    28   13   15 1    
    29   14  138 1    
    30   15   16 1    
    31   15  139 1    
    32   15  140 1    
    33   16   17 1    
    34   17   18 1    
    35   17  141 1    
    36   17  142 1    
    37   18   19 1    
    38   18   67 1    
    39   18  143 1    
    40   19   20 am   BACKBONE|DICT|INTERRES
    41   19  144 1    
    42   20   21 2    
    43   20   22 1    
    44   22   23 1    
    45   22   24 1    
    46   22  145 1    
    47   23  146 1    
    48   23  147 1    
    49   23  148 1    
    50   24   25 am   BACKBONE|DICT|INTERRES
    51   24  149 1    
    52   25   26 2    
    53   25   27 1    
    54   27   28 1    
    55   27   29 1    
    56   27  150 1    
    57   28  151 1    
    58   28  152 1    
    59   28  153 1    
    60   29   30 am   BACKBONE|DICT|INTERRES
    61   29  154 1    
    62   30   31 2    
    63   30   32 1    
    64   32   33 1    
    65   32   34 1    
    66   32  155 1    
    67   33  156 1    
    68   33  157 1    
    69   33  158 1    
    70   34   35 am   BACKBONE|DICT|INTERRES
    71   34  159 1    
    72   35   36 2    
    73   35   37 1    
    74   37   38 1    
    75   37   39 1    
    76   37  160 1    
    77   38  161 1    
    78   38  162 1    
    79   38  163 1    
    80   39   40 am   BACKBONE|DICT|INTERRES
    81   39  164 1    
    82   40   41 2    
    83   40   42 1    
    84   42   43 1    
    85   42   44 1    
    86   42  165 1    
    87   43  166 1    
    88   43  167 1    
    89   43  168 1    
    90   44   45 am   BACKBONE|DICT|INTERRES
    91   44  169 1    
    92   45   46 2    
    93   45   47 1    
    94   47   48 1    
    95   47   49 1    
    96   47  170 1    
    97   48  171 1    
    98   48  172 1    
    99   48  173 1    
   100   49   50 am   BACKBONE|DICT|INTERRES
   101   49  174 1    
   102   50   51 2    
   103   50   52 1    
   104   52   53 1    
   105   52   54 1    
   106   52  175 1    
   107   53  176 1    
   108   53  177 1    
   109   53  178 1    
   110   54   55 am   BACKBONE|DICT|INTERRES
   111   54  179 1    
   112   55   56 2    
   113   55   57 1    
   114   57   58 1    
   115   57   59 1    
   116   57  180 1    
   117   58  181 1    
   118   58  182 1    
   119   58  183 1    
   120   59   60 am   BACKBONE|DICT|INTERRES
   121   59  184 1    
   122   60   61 2    
   123   60   62 1    
   124   62   63 1    
   125   62   64 1    
   126   62  185 1    
   127   63  186 1    
   128   63  187 1    
   129   63  188 1    
   130   64   65 am   BACKBONE|DICT|INTERRES
   131   64  189 1    
   132   65   66 2    
   133   67   68 2    
   134   67   69 am   BACKBONE|DICT|INTERRES
   135   69   70 1    
   136   69  190 1    
   137   70   71 1    
   138   70   72 1    
   139   70  191 1    
   140   71  192 1    
   141   71  193 1    
   142   71  194 1    
   143   72   73 2    
   144   72   74 am   BACKBONE|DICT|INTERRES
   145   74   75 1    
   146   74  195 1    
   147   75   76 1    
   148   75   77 1    
   149   75  196 1    
   150   76  197 1    
   151   76  198 1    
   152   76  199 1    
   153   77   78 2    
   154   77   79 am   BACKBONE|DICT|INTERRES
   155   79   80 1    
   156   79  200 1    
   157   80   81 1    
   158   80   82 1    
   159   80  201 1    
   160   81  202 1    
   161   81  203 1    
   162   81  204 1    
   163   82   83 2    
   164   82   84 am   BACKBONE|DICT|INTERRES
   165   84   85 1    
   166   84  205 1    
   167   85   86 1    
   168   85   87 1    
   169   85  206 1    
   170   86  207 1    
   171   86  208 1    
   172   86  209 1    
   173   87   88 2    
   174   87   89 am   BACKBONE|DICT|INTERRES
   175   89   90 1    
   176   89  210 1    
   177   90   91 1    
   178   90   92 1    
   179   90  211 1    
   180   91  212 1    
   181   91  213 1    
   182   91  214 1    
   183   92   93 2    
   184   92   94 am   BACKBONE|DICT|INTERRES
   185   94   95 1    
   186   94  215 1    
   187   95   96 1    
   188   95   97 1    
   189   95  216 1    
   190   96  217 1    
   191   96  218 1    
   192   96  219 1    
   193   97   98 2    
   194   97   99 am   BACKBONE|DICT|INTERRES
   195   99  100 1    
   196   99  220 1    
   197  100  101 1    
   198  100  102 1    
   199  100  221 1    
   200  101  222 1    
   201  101  223 1    
   202  101  224 1    
   203  102  103 2    
   204  102  104 am   BACKBONE|DICT|INTERRES
   205  104  105 1    
   206  104  225 1    
   207  105  106 1    
   208  105  107 1    
   209  105  226 1    
   210  106  227 1    
   211  106  228 1    
   212  106  229 1    
   213  107  108 2    
   214  107  109 am   BACKBONE|DICT|INTERRES
   215  109  110 1    
   216  109  230 1    
   217  110  111 1    
   218  110  112 1    
   219  110  231 1    
   220  111  232 1    
   221  111  233 1    
   222  111  234 1    
   223  112  113 2    
   224  112  114 am   BACKBONE|DICT|INTERRES
   225  114  115 1    
   226  114  235 1    
   227  115  116 1    
   228  115  117 1    
   229  115  236 1    
   230  116  237 1    
   231  116  238 1    
   232  116  239 1    
   233  117  118 2    
   234  117  119 am   BACKBONE|DICT|INTERRES
   235  119  120 1    
   236  119  240 1    
   237  120  121 1    
   238  120  124 1    
   239  120  241 1    
   240  121  122 am   BACKBONE|DICT|INTERRES
   241  121  123 2    
   242  122  242 1    
   243  122  243 1    
   244  124  125 1    
   245  124  244 1    
   246  124  245 1    
   247  125  126 1    
   248  126  246 1    
   249  126  247 1    
@<TRIPOS>SUBSTRUCTURE
     1 UNK         1 GROUP             0       ****    0 ROOT    
