@<TRIPOS>MOLECULE
3R540
247   249    1
SMALL
USER_CHARGES


@<TRIPOS>ATOM
      1 CA          0.5611  -12.8216  -43.2430 C.3       0 UNK        -0.1800 
      2 C           1.5864  -13.0841  -44.3324 C.2       0 UNK         0.5000 
      3 O           2.6191  -12.4148  -44.3775 O.2       0 UNK        -0.5000 
      4 N           1.2960  -14.0423  -45.2174 N.am      1 UNK        -0.5000 
      5 CA          2.1695  -14.4424  -46.3206 C.3       1 UNK         0.1400 
      6 C6          1.3581  -15.0127  -47.5080 C.3       23 UNK        -0.0398 
      7 S7          0.3695  -13.7129  -48.3282 S.3       23 UNK        -0.2404 
      8 C8         -1.2993  -14.4549  -48.3710 C.3       23 UNK        -0.0205 
      9 C9         -1.5307  -15.5310  -49.4372 C.ar      23 UNK        -0.0193 
     10 C10        -2.8471  -15.9197  -49.7096 C.ar      23 UNK        -0.1150 
     11 C11        -3.1224  -16.9201  -50.6468 C.ar      23 UNK        -0.0193 
     12 C12        -2.0691  -17.5212  -51.3360 C.ar      23 UNK        -0.1150 
     13 C13        -0.7488  -17.1555  -51.0739 C.ar      23 UNK        -0.0193 
     14 C14        -0.4869  -16.1596  -50.1314 C.ar      23 UNK        -0.1150 
     15 C15         0.3983  -17.8434  -51.7973 C.3       23 UNK        -0.0205 
     16 S16         1.1684  -19.1364  -50.7680 S.3       23 UNK        -0.2404 
     17 C17        -0.1522  -20.3960  -50.6967 C.3       23 UNK        -0.0398 
     18 CA         -0.6739  -20.6575  -49.2621 C.3       11 UNK         0.1400 
     19 N          -1.0812  -19.4336  -48.5502 N.am      11 UNK        -0.5000 
     20 C          -1.4221  -19.4035  -47.2542 C.2       10 UNK         0.5000 
     21 O          -1.4507  -20.4075  -46.5383 O.2       10 UNK        -0.5000 
     22 CA         -1.8585  -18.0563  -46.6680 C.3       10 UNK         0.1400 
     23 CB         -3.3517  -17.8134  -46.9425 C.3       10 UNK        -0.1800 
     24 N          -1.6581  -18.1131  -45.2284 N.am      10 UNK        -0.5000 
     25 C          -1.2025  -17.1401  -44.4382 C.2       9 UNK         0.5000 
     26 O          -0.8829  -16.0129  -44.8284 O.2       9 UNK        -0.5000 
     27 CA         -1.0460  -17.5428  -42.9626 C.3       9 UNK         0.1400 
     28 CB          0.2046  -18.4099  -42.7739 C.3       9 UNK        -0.1800 
     29 N          -0.9477  -16.3877  -42.0778 N.am      9 UNK        -0.5000 
     30 C          -1.9810  -15.7012  -41.5825 C.2       8 UNK         0.5000 
     31 O          -3.1567  -15.9837  -41.8224 O.2       8 UNK        -0.5000 
     32 CA         -1.6384  -14.5243  -40.6374 C.3       8 UNK         0.1400 
     33 CB         -2.8924  -13.8723  -40.0268 C.3       8 UNK        -0.1800 
     34 N          -0.7268  -14.8889  -39.5470 N.am      8 UNK        -0.5000 
     35 C           0.5839  -15.1410  -39.6534 C.2       7 UNK         0.5000 
     36 O           1.1976  -15.1625  -40.7250 O.2       7 UNK        -0.5000 
     37 CA          1.3246  -15.4451  -38.3440 C.3       7 UNK         0.1400 
     38 CB          1.0918  -16.9013  -37.9100 C.3       7 UNK        -0.1800 
     39 N           2.7504  -15.2358  -38.5638 N.am      7 UNK        -0.5000 
     40 C           3.5638  -14.4833  -37.8155 C.2       6 UNK         0.5000 
     41 O           3.2203  -13.9420  -36.7636 O.2       6 UNK        -0.5000 
     42 CA          5.0093  -14.3018  -38.3227 C.3       6 UNK         0.1400 
     43 CB          5.9863  -15.1203  -37.4643 C.3       6 UNK        -0.1800 
     44 N           5.1816  -14.6933  -39.7231 N.am      6 UNK        -0.5000 
     45 C           4.8024  -13.9822  -40.7908 C.2       5 UNK         0.5000 
     46 O           4.2969  -12.8624  -40.7138 O.2       5 UNK        -0.5000 
     47 CA          5.0038  -14.6350  -42.1747 C.3       5 UNK         0.1400 
     48 CB          6.4580  -14.4812  -42.6579 C.3       5 UNK        -0.1800 
     49 N           4.5496  -16.0315  -42.2704 N.am      5 UNK        -0.5000 
     50 C           5.0192  -17.1241  -41.6473 C.2       4 UNK         0.5000 
     51 O           5.9742  -17.1127  -40.8702 O.2       4 UNK        -0.5000 
     52 CA          4.2894  -18.4504  -41.9025 C.3       4 UNK         0.1400 
     53 CB          3.1210  -18.6104  -40.9166 C.3       4 UNK        -0.1800 
     54 N           3.8311  -18.5718  -43.2885 N.am      4 UNK        -0.5000 
     55 C           3.7170  -19.7366  -43.9455 C.2       3 UNK         0.5000 
     56 O           3.8318  -20.8374  -43.4050 O.2       3 UNK        -0.5000 
     57 CA          3.4771  -19.6766  -45.4725 C.3       3 UNK         0.1400 
     58 CB          1.9870  -19.8577  -45.8040 C.3       3 UNK        -0.1800 
     59 N           3.9434  -18.4337  -46.0881 N.am      3 UNK        -0.5000 
     60 C           5.2032  -17.9786  -46.0790 C.2       2 UNK         0.5000 
     61 O           6.1645  -18.6545  -45.7110 O.2       2 UNK        -0.5000 
     62 CA          5.4347  -16.5120  -46.5062 C.3       2 UNK         0.1400 
     63 CB          6.2807  -16.4546  -47.7884 C.3       2 UNK        -0.1800 
     64 N           4.2359  -15.6839  -46.7066 N.am      2 UNK        -0.5000 
     65 C           3.2430  -15.4392  -45.8376 C.2       1 UNK         0.5000 
     66 O           3.1471  -15.9836  -44.7328 O.2       1 UNK        -0.5000 
     67 C          -1.7959  -21.7189  -49.2911 C.2       11 UNK         0.5000 
     68 O          -1.5046  -22.9138  -49.2620 O.2       11 UNK        -0.5000 
     69 N          -3.0565  -21.2594  -49.2745 N.am      12 UNK        -0.5000 
     70 CA         -4.2741  -22.0709  -49.1937 C.3       12 UNK         0.1400 
     71 CB         -5.4859  -21.1639  -49.4666 C.3       12 UNK        -0.1800 
     72 C          -4.4507  -22.8375  -47.8623 C.2       12 UNK         0.5000 
     73 O          -5.3620  -23.6592  -47.7623 O.2       12 UNK        -0.5000 
     74 N          -3.5982  -22.5718  -46.8606 N.am      13 UNK        -0.5000 
     75 CA         -3.5153  -23.3637  -45.6324 C.3       13 UNK         0.1400 
     76 CB         -2.8638  -22.5184  -44.5265 C.3       13 UNK        -0.1800 
     77 C          -2.7337  -24.6792  -45.8329 C.2       13 UNK         0.5000 
     78 O          -2.9137  -25.6045  -45.0399 O.2       13 UNK        -0.5000 
     79 N          -1.8791  -24.7388  -46.8647 N.am      14 UNK        -0.5000 
     80 CA         -1.0350  -25.8878  -47.1919 C.3       14 UNK         0.1400 
     81 CB          0.4320  -25.4304  -47.2543 C.3       14 UNK        -0.1800 
     82 C          -1.4643  -26.5275  -48.5216 C.2       14 UNK         0.5000 
     83 O          -1.6570  -27.7429  -48.5789 O.2       14 UNK        -0.5000 
     84 N          -1.6087  -25.7008  -49.5632 N.am      15 UNK        -0.5000 
     85 CA         -2.0820  -26.0880  -50.8894 C.3       15 UNK         0.1400 
     86 CB         -1.4512  -25.1333  -51.9192 C.3       15 UNK        -0.1800 
     87 C          -3.6176  -26.0198  -50.9642 C.2       15 UNK         0.5000 
     88 O          -4.2648  -25.5046  -50.0509 O.2       15 UNK        -0.5000 
     89 N          -4.1793  -26.5044  -52.0780 N.am      16 UNK        -0.5000 
     90 CA         -5.5756  -26.2689  -52.4496 C.3       16 UNK         0.1400 
     91 CB         -5.9330  -27.1736  -53.6389 C.3       16 UNK        -0.1800 
     92 C          -5.7920  -24.7909  -52.8241 C.2       16 UNK         0.5000 
     93 O          -4.8667  -24.1556  -53.3332 O.2       16 UNK        -0.5000 
     94 N          -7.0109  -24.2752  -52.6205 N.am      17 UNK        -0.5000 
     95 CA         -7.3726  -22.8797  -52.9007 C.3       17 UNK         0.1400 
     96 CB         -8.8056  -22.6162  -52.4181 C.3       17 UNK        -0.1800 
     97 C          -7.2167  -22.4763  -54.3811 C.2       17 UNK         0.5000 
     98 O          -6.8950  -21.3209  -54.6653 O.2       17 UNK        -0.5000 
     99 N          -7.4192  -23.4374  -55.2924 N.am      18 UNK        -0.5000 
    100 CA        -7.2116  -23.2735  -56.7314 C.3       18 UNK         0.1400 
    101 CB        -7.9169  -24.4163  -57.4771 C.3       18 UNK        -0.1800 
    102 C         -5.7196  -23.2201  -57.1108 C.2       18 UNK         0.5000 
    103 O         -5.3504  -22.4571  -58.0029 O.2       18 UNK        -0.5000 
    104 N         -4.8881  -24.0081  -56.4138 N.am      19 UNK        -0.5000 
    105 CA        -3.4332  -24.0449  -56.5869 C.3       19 UNK         0.1400 
    106 CB        -2.8792  -25.3430  -55.9796 C.3       19 UNK        -0.1800 
    107 C         -2.7542  -22.8114  -55.9659 C.2       19 UNK         0.5000 
    108 O         -1.8170  -22.2668  -56.5495 O.2       19 UNK        -0.5000 
    109 N         -3.2775  -22.3708  -54.8143 N.am      20 UNK        -0.5000 
    110 CA        -2.9204  -21.1282  -54.1300 C.3       20 UNK         0.1400 
    111 CB        -3.5437  -21.1633  -52.7275 C.3       20 UNK        -0.1800 
    112 C         -3.3758  -19.8633  -54.8882 C.2       20 UNK         0.5000 
    113 O         -2.8379  -18.7863  -54.6349 O.2       20 UNK        -0.5000 
    114 N         -4.3483  -20.0282  -55.7975 N.am      21 UNK        -0.5000 
    115 CA        -4.9729  -19.0159  -56.6524 C.3       21 UNK         0.1400 
    116 CB        -3.9409  -18.3755  -57.6046 C.3       21 UNK        -0.1800 
    117 C         -5.8044  -17.9831  -55.8638 C.2       21 UNK         0.5000 
    118 O         -5.8793  -16.8194  -56.2644 O.2       21 UNK        -0.5000 
    119 N         -6.4352  -18.4389  -54.7749 N.am      22 UNK        -0.5000 
    120 CA        -7.3585  -17.6544  -53.9362 C.3       22 UNK         0.1400 
    121 C         -8.8150  -18.2007  -53.9611 C.2       22 UNK         0.5000 
    122 N         -9.0880  -19.3632  -54.5415 N.am      22 UNK        -0.7600 
    123 O         -9.7245  -17.5436  -53.4622 O.2       22 UNK        -0.5000 
    124 C124       -6.8476  -17.5136  -52.4793 C.3       23 UNK        -0.0398 
    125 S125       -5.2601  -16.6186  -52.3739 S.3       23 UNK        -0.2404 
    126 C126       -4.5481  -17.3867  -50.8914 C.3       23 UNK        -0.0205 
    127 H127       -0.2996  -13.4819  -43.3474 H         1 UNK         0.0600 
    128 H128        0.2091  -11.7916  -43.2965 H         1 UNK         0.0600 
    129 H129        1.0084  -12.9808  -42.2623 H         1 UNK         0.0600 
    130 H130        0.4614  -14.6091  -45.0920 H         1 UNK         0.3000 
    131 H131        2.7059  -13.5602  -46.6778 H         1 UNK         0.0600 
    132 H132        2.0192  -15.4332  -48.2669 H         1 UNK         0.0800 
    133 H133        0.7148  -15.8292  -47.1776 H         1 UNK         0.0800 
    134 H134       -1.5381  -14.8601  -47.3869 H         1 UNK         0.0800 
    135 H135       -2.0079  -13.6434  -48.5429 H         1 UNK         0.0800 
    136 H136       -3.6630  -15.4536  -49.1747 H         1 UNK         0.1150 
    137 H137       -2.2791  -18.2768  -52.0774 H         1 UNK         0.1150 
    138 H138        0.5414  -15.8904  -49.9531 H         1 UNK         0.1150 
    139 H139        0.0576  -18.2768  -52.7393 H         1 UNK         0.0800 
    140 H140        1.1563  -17.1044  -52.0607 H         1 UNK         0.0800 
    141 H141        0.2570  -21.3177  -51.1149 H         1 UNK         0.0800 
    142 H142       -0.9668  -20.1113  -51.3614 H         1 UNK         0.0800 
    143 H143        0.1497  -21.0920  -48.6910 H         1 UNK         0.0600 
    144 H144       -1.0655  -18.5781  -49.0887 H         1 UNK         0.3000 
    145 H145       -1.2518  -17.2680  -47.1143 H         1 UNK         0.0600 
    146 H146       -3.6436  -16.8043  -46.6513 H         1 UNK         0.0600 
    147 H147       -3.5915  -17.9348  -47.9975 H         1 UNK         0.0600 
    148 H148       -3.9798  -18.5150  -46.3918 H         1 UNK         0.0600 
    149 H149       -1.8027  -19.0377  -44.8426 H         1 UNK         0.3000 
    150 H150       -1.9181  -18.1336  -42.6737 H         1 UNK         0.0600 
    151 H151        1.1065  -17.8717  -43.0666 H         1 UNK         0.0600 
    152 H152        0.1525  -19.3211  -43.3705 H         1 UNK         0.0600 
    153 H153        0.3092  -18.7171  -41.7338 H         1 UNK         0.0600 
    154 H154       -0.0138  -16.0672  -41.8373 H         1 UNK         0.3000 
    155 H155       -1.1472  -13.7625  -41.2410 H         1 UNK         0.0600 
    156 H156       -3.4434  -14.5718  -39.3969 H         1 UNK         0.0600 
    157 H157       -3.5724  -13.5230  -40.8050 H         1 UNK         0.0600 
    158 H158       -2.6308  -13.0065  -39.4181 H         1 UNK         0.0600 
    159 H159       -1.1485  -14.9399  -38.6309 H         1 UNK         0.3000 
    160 H160        0.9498  -14.7701  -37.5718 H         1 UNK         0.0600 
    161 H161        1.4082  -17.6080  -38.6774 H         1 UNK         0.0600 
    162 H162        0.0364  -17.0875  -37.7084 H         1 UNK         0.0600 
    163 H163        1.6416  -17.1314  -36.9972 H         1 UNK         0.0600 
    164 H164        3.0903  -15.5561  -39.4598 H         1 UNK         0.3000 
    165 H165        5.2639  -13.2449  -38.2215 H         1 UNK         0.0600 
    166 H166        5.9138  -14.8409  -36.4124 H         1 UNK         0.0600 
    167 H167        5.7840  -16.1898  -37.5359 H         1 UNK         0.0600 
    168 H168        7.0181  -14.9527  -37.7736 H         1 UNK         0.0600 
    169 H169        5.5934  -15.6070  -39.8999 H         1 UNK         0.3000 
    170 H170        4.3727  -14.0802  -42.8706 H         1 UNK         0.0600 
    171 H171        6.7501  -13.4306  -42.6779 H         1 UNK         0.0600 
    172 H172        7.1632  -15.0018  -42.0097 H         1 UNK         0.0600 
    173 H173        6.5802  -14.8706  -43.6679 H         1 UNK         0.0600 
    174 H174        3.7559  -16.1411  -42.8934 H         1 UNK         0.3000 
    175 H175        5.0131  -19.2448  -41.7064 H         1 UNK         0.0600 
    176 H176        2.5902  -19.5491  -41.0745 H         1 UNK         0.0600 
    177 H177        3.4810  -18.6113  -39.8871 H         1 UNK         0.0600 
    178 H178        2.4065  -17.7925  -41.0086 H         1 UNK         0.0600 
    179 H179        3.7274  -17.7123  -43.8168 H         1 UNK         0.3000 
    180 H180        4.0327  -20.5020  -45.9218 H         1 UNK         0.0600 
    181 H181        1.3937  -19.0097  -45.4619 H         1 UNK         0.0600 
    182 H182        1.5821  -20.7550  -45.3339 H         1 UNK         0.0600 
    183 H183        1.8325  -19.9590  -46.8785 H         1 UNK         0.0600 
    184 H184        3.2267  -17.7953  -46.3966 H         1 UNK         0.3000 
    185 H185        6.0084  -16.0476  -45.7028 H         1 UNK         0.0600 
    186 H186        6.5563  -15.4292  -48.0356 H         1 UNK         0.0600 
    187 H187        7.2088  -17.0168  -47.6754 H         1 UNK         0.0600 
    188 H188        5.7447  -16.8746  -48.6405 H         1 UNK         0.0600 
    189 H189        4.2134  -15.1949  -47.5900 H         1 UNK         0.3000 
    190 H190       -3.1899  -20.2601  -49.2617 H         1 UNK         0.3000 
    191 H191       -4.2266  -22.8190  -49.9871 H         1 UNK         0.0600 
    192 H192       -5.4199  -20.6972  -50.4485 H         1 UNK         0.0600 
    193 H193       -6.4153  -21.7349  -49.4480 H         1 UNK         0.0600 
    194 H194       -5.5713  -20.3723  -48.7212 H         1 UNK         0.0600 
    195 H195       -2.8907  -21.8556  -46.9800 H         1 UNK         0.3000 
    196 H196       -4.5255  -23.6205  -45.3067 H         1 UNK         0.0600 
    197 H197       -2.8945  -23.0415  -43.5699 H         1 UNK         0.0600 
    198 H198       -3.3818  -21.5683  -44.3951 H         1 UNK         0.0600 
    199 H199       -1.8172  -22.3050  -44.7457 H         1 UNK         0.0600 
    200 H200       -1.8296  -23.9518  -47.5005 H         1 UNK         0.3000 
    201 H201       -1.1116  -26.6555  -46.4192 H         1 UNK         0.0600 
    202 H202        1.0894  -26.2601  -47.5170 H         1 UNK         0.0600 
    203 H203        0.5814  -24.6436  -47.9950 H         1 UNK         0.0600 
    204 H204        0.7631  -25.0459  -46.2895 H         1 UNK         0.0600 
    205 H205       -1.4903  -24.7005  -49.4204 H         1 UNK         0.3000 
    206 H206       -1.7647  -27.1089  -51.1114 H         1 UNK         0.0600 
    207 H207       -0.3645  -25.1228  -51.8345 H         1 UNK         0.0600 
    208 H208       -1.6911  -25.4346  -52.9387 H         1 UNK         0.0600 
    209 H209       -1.8062  -24.1100  -51.7899 H         1 UNK         0.0600 
    210 H210       -3.5852  -26.8916  -52.7956 H         1 UNK         0.3000 
    211 H211       -6.2167  -26.5213  -51.6024 H         1 UNK         0.0600 
    212 H212       -5.3175  -26.9558  -54.5128 H         1 UNK         0.0600 
    213 H213       -6.9759  -27.0445  -53.9311 H         1 UNK         0.0600 
    214 H214       -5.7964  -28.2256  -53.3876 H         1 UNK         0.0600 
    215 H215       -7.7304  -24.8550  -52.2129 H         1 UNK         0.3000 
    216 H216       -6.7023  -22.2444  -52.3193 H         1 UNK         0.0600 
    217 H217       -9.0869  -21.5745  -52.5781 H         1 UNK         0.0600 
    218 H218       -8.9051  -22.8156  -51.3510 H         1 UNK         0.0600 
    219 H219       -9.5298  -23.2377  -52.9462 H         1 UNK         0.0600 
    220 H220       -7.6990  -24.3520  -54.9709 H         1 UNK         0.3000 
    221 H221       -7.6689  -22.3314  -57.0418 H         1 UNK         0.0600 
    222 H222       -7.5164  -25.3910  -57.1952 H         1 UNK         0.0600 
    223 H223       -8.9872  -24.4202  -57.2699 H         1 UNK         0.0600 
    224 H224       -7.7962  -24.3111  -58.5561 H         1 UNK         0.0600 
    225 H225       -5.2638  -24.5552  -55.6538 H         1 UNK         0.3000 
    226 H226       -3.2092  -24.0480  -57.6558 H         1 UNK         0.0600 
    227 H227       -1.7965  -25.3990  -56.0995 H         1 UNK         0.0600 
    228 H228       -3.0952  -25.4155  -54.9141 H         1 UNK         0.0600 
    229 H229       -3.3062  -26.2191  -56.4677 H         1 UNK         0.0600 
    230 H230       -3.9884  -22.9427  -54.3622 H         1 UNK         0.3000 
    231 H231       -1.8339  -21.0885  -54.0303 H         1 UNK         0.0600 
    232 H232       -4.6315  -21.1928  -52.7787 H         1 UNK         0.0600 
    233 H233       -3.2708  -20.2848  -52.1469 H         1 UNK         0.0600 
    234 H234       -3.2111  -22.0394  -52.1713 H         1 UNK         0.0600 
    235 H235       -4.7320  -20.9582  -55.8885 H         1 UNK         0.3000 
    236 H236       -5.6888  -19.5579  -57.2718 H         1 UNK         0.0600 
    237 H237       -3.3779  -19.1374  -58.1439 H         1 UNK         0.0600 
    238 H238       -4.4329  -17.7491  -58.3494 H         1 UNK         0.0600 
    239 H239       -3.2292  -17.7467  -57.0692 H         1 UNK         0.0600 
    240 H240       -6.3541  -19.4252  -54.5519 H         1 UNK         0.3000 
    241 H241       -7.4421  -16.6447  -54.3417 H         1 UNK         0.0600 
    242 H242       -8.3464  -19.9465  -54.9072 H         1 UNK         0.3800 
    243 H243      -10.0411  -19.6887  -54.5654 H         1 UNK         0.3800 
    244 H244       -7.5679  -16.9685  -51.8666 H         1 UNK         0.0800 
    245 H245       -6.7444  -18.5010  -52.0264 H         1 UNK         0.0800 
    246 H246       -4.5568  -18.4707  -51.0059 H         1 UNK         0.0800 
    247 H247       -5.1780  -17.1607  -50.0295 H         1 UNK         0.0800 
@<TRIPOS>BOND
     1    1    2 1    
     2    1  127 1    
     3    1  128 1    
     4    1  129 1    
     5    2    3 2    
     6    2    4 am   BACKBONE|DICT|INTERRES
     7    4    5 1    
     8    4  130 1    
     9    5    6 1    
    10    5   65 1    
    11    5  131 1    
    12    6    7 1    
    13    6  132 1    
    14    6  133 1    
    15    7    8 1    
    16    8    9 1    
    17    8  134 1    
    18    8  135 1    
    19    9   10 ar   
    20    9   14 ar   
    21   10   11 ar   
    22   10  136 1    
    23   11   12 ar   
    24   11  126 1    
    25   12   13 ar   
    26   12  137 1    
    27   13   14 ar   
    28   13   15 1    
    29   14  138 1    
    30   15   16 1    
    31   15  139 1    
    32   15  140 1    
    33   16   17 1    
    34   17   18 1    
    35   17  141 1    
    36   17  142 1    
    37   18   19 1    
    38   18   67 1    
    39   18  143 1    
    40   19   20 am   BACKBONE|DICT|INTERRES
    41   19  144 1    
    42   20   21 2    
    43   20   22 1    
    44   22   23 1    
    45   22   24 1    
    46   22  145 1    
    47   23  146 1    
    48   23  147 1    
    49   23  148 1    
    50   24   25 am   BACKBONE|DICT|INTERRES
    51   24  149 1    
    52   25   26 2    
    53   25   27 1    
    54   27   28 1    
    55   27   29 1    
    56   27  150 1    
    57   28  151 1    
    58   28  152 1    
    59   28  153 1    
    60   29   30 am   BACKBONE|DICT|INTERRES
    61   29  154 1    
    62   30   31 2    
    63   30   32 1    
    64   32   33 1    
    65   32   34 1    
    66   32  155 1    
    67   33  156 1    
    68   33  157 1    
    69   33  158 1    
    70   34   35 am   BACKBONE|DICT|INTERRES
    71   34  159 1    
    72   35   36 2    
    73   35   37 1    
    74   37   38 1    
    75   37   39 1    
    76   37  160 1    
    77   38  161 1    
    78   38  162 1    
    79   38  163 1    
    80   39   40 am   BACKBONE|DICT|INTERRES
    81   39  164 1    
    82   40   41 2    
    83   40   42 1    
    84   42   43 1    
    85   42   44 1    
    86   42  165 1    
    87   43  166 1    
    88   43  167 1    
    89   43  168 1    
    90   44   45 am   BACKBONE|DICT|INTERRES
    91   44  169 1    
    92   45   46 2    
    93   45   47 1    
    94   47   48 1    
    95   47   49 1    
    96   47  170 1    
    97   48  171 1    
    98   48  172 1    
    99   48  173 1    
   100   49   50 am   BACKBONE|DICT|INTERRES
   101   49  174 1    
   102   50   51 2    
   103   50   52 1    
   104   52   53 1    
   105   52   54 1    
   106   52  175 1    
   107   53  176 1    
   108   53  177 1    
   109   53  178 1    
   110   54   55 am   BACKBONE|DICT|INTERRES
   111   54  179 1    
   112   55   56 2    
   113   55   57 1    
   114   57   58 1    
   115   57   59 1    
   116   57  180 1    
   117   58  181 1    
   118   58  182 1    
   119   58  183 1    
   120   59   60 am   BACKBONE|DICT|INTERRES
   121   59  184 1    
   122   60   61 2    
   123   60   62 1    
   124   62   63 1    
   125   62   64 1    
   126   62  185 1    
   127   63  186 1    
   128   63  187 1    
   129   63  188 1    
   130   64   65 am   BACKBONE|DICT|INTERRES
   131   64  189 1    
   132   65   66 2    
   133   67   68 2    
   134   67   69 am   BACKBONE|DICT|INTERRES
   135   69   70 1    
   136   69  190 1    
   137   70   71 1    
   138   70   72 1    
   139   70  191 1    
   140   71  192 1    
   141   71  193 1    
   142   71  194 1    
   143   72   73 2    
   144   72   74 am   BACKBONE|DICT|INTERRES
   145   74   75 1    
   146   74  195 1    
   147   75   76 1    
   148   75   77 1    
   149   75  196 1    
   150   76  197 1    
   151   76  198 1    
   152   76  199 1    
   153   77   78 2    
   154   77   79 am   BACKBONE|DICT|INTERRES
   155   79   80 1    
   156   79  200 1    
   157   80   81 1    
   158   80   82 1    
   159   80  201 1    
   160   81  202 1    
   161   81  203 1    
   162   81  204 1    
   163   82   83 2    
   164   82   84 am   BACKBONE|DICT|INTERRES
   165   84   85 1    
   166   84  205 1    
   167   85   86 1    
   168   85   87 1    
   169   85  206 1    
   170   86  207 1    
   171   86  208 1    
   172   86  209 1    
   173   87   88 2    
   174   87   89 am   BACKBONE|DICT|INTERRES
   175   89   90 1    
   176   89  210 1    
   177   90   91 1    
   178   90   92 1    
   179   90  211 1    
   180   91  212 1    
   181   91  213 1    
   182   91  214 1    
   183   92   93 2    
   184   92   94 am   BACKBONE|DICT|INTERRES
   185   94   95 1    
   186   94  215 1    
   187   95   96 1    
   188   95   97 1    
   189   95  216 1    
   190   96  217 1    
   191   96  218 1    
   192   96  219 1    
   193   97   98 2    
   194   97   99 am   BACKBONE|DICT|INTERRES
   195   99  100 1    
   196   99  220 1    
   197  100  101 1    
   198  100  102 1    
   199  100  221 1    
   200  101  222 1    
   201  101  223 1    
   202  101  224 1    
   203  102  103 2    
   204  102  104 am   BACKBONE|DICT|INTERRES
   205  104  105 1    
   206  104  225 1    
   207  105  106 1    
   208  105  107 1    
   209  105  226 1    
   210  106  227 1    
   211  106  228 1    
   212  106  229 1    
   213  107  108 2    
   214  107  109 am   BACKBONE|DICT|INTERRES
   215  109  110 1    
   216  109  230 1    
   217  110  111 1    
   218  110  112 1    
   219  110  231 1    
   220  111  232 1    
   221  111  233 1    
   222  111  234 1    
   223  112  113 2    
   224  112  114 am   BACKBONE|DICT|INTERRES
   225  114  115 1    
   226  114  235 1    
   227  115  116 1    
   228  115  117 1    
   229  115  236 1    
   230  116  237 1    
   231  116  238 1    
   232  116  239 1    
   233  117  118 2    
   234  117  119 am   BACKBONE|DICT|INTERRES
   235  119  120 1    
   236  119  240 1    
   237  120  121 1    
   238  120  124 1    
   239  120  241 1    
   240  121  122 am   BACKBONE|DICT|INTERRES
   241  121  123 2    
   242  122  242 1    
   243  122  243 1    
   244  124  125 1    
   245  124  244 1    
   246  124  245 1    
   247  125  126 1    
   248  126  246 1    
   249  126  247 1    
@<TRIPOS>SUBSTRUCTURE
     1 UNK         1 GROUP             0       ****    0 ROOT    
