@<TRIPOS>MOLECULE
3R540
247   249    1
SMALL
USER_CHARGES


@<TRIPOS>ATOM
      1 CA          1.0454  -12.6656  -43.2645 C.3       0 UNK        -0.1800 
      2 C           1.4352  -14.1365  -43.3971 C.2       0 UNK         0.5000 
      3 O           2.4739  -14.5269  -42.8728 O.2       0 UNK        -0.5000 
      4 N           0.6414  -14.9856  -44.0680 N.am      1 UNK        -0.5000 
      5 CA         -0.6341  -14.6739  -44.7331 C.3       1 UNK         0.1400 
      6 C6         -1.5975  -15.9048  -44.7068 C.3       23 UNK        -0.0398 
      7 S7         -2.0336  -16.7444  -46.2779 S.3       23 UNK        -0.2404 
      8 C8         -3.7852  -16.2698  -46.4501 C.3       23 UNK        -0.0205 
      9 C9         -4.5278  -17.1180  -47.4738 C.ar      23 UNK        -0.0193 
     10 C10        -5.1639  -16.5255  -48.5682 C.ar      23 UNK        -0.1150 
     11 C11        -5.8878  -17.3033  -49.4802 C.ar      23 UNK        -0.0193 
     12 C12        -6.0038  -18.6820  -49.2672 C.ar      23 UNK        -0.1150 
     13 C13        -5.3846  -19.2835  -48.1693 C.ar      23 UNK        -0.0193 
     14 C14        -4.6305  -18.4987  -47.2950 C.ar      23 UNK        -0.1150 
     15 C15        -5.5301  -20.7732  -47.9002 C.3       23 UNK        -0.0205 
     16 S16        -6.3996  -21.0471  -46.3200 S.3       23 UNK        -0.2404 
     17 C17        -5.7205  -22.6336  -45.7233 C.3       23 UNK        -0.0398 
     18 CA         -4.1869  -22.6551  -45.4828 C.3       11 UNK         0.1400 
     19 N          -3.6822  -21.4641  -44.7917 N.am      11 UNK        -0.5000 
     20 C          -2.3921  -21.1098  -44.7132 C.2       10 UNK         0.5000 
     21 O          -1.4750  -21.7863  -45.1886 O.2       10 UNK        -0.5000 
     22 CA         -2.0593  -19.8050  -43.9594 C.3       10 UNK         0.1400 
     23 CB         -3.2953  -18.9937  -43.5001 C.3       10 UNK        -0.1800 
     24 N          -1.1880  -20.0434  -42.8093 N.am      10 UNK        -0.5000 
     25 C          -1.4644  -20.8162  -41.7464 C.2       9 UNK         0.5000 
     26 O          -2.4500  -21.5522  -41.6762 O.2       9 UNK        -0.5000 
     27 CA         -0.5006  -20.7390  -40.5431 C.3       9 UNK         0.1400 
     28 CB          0.3881  -21.9893  -40.4770 C.3       9 UNK        -0.1800 
     29 N           0.3644  -19.5579  -40.5542 N.am      9 UNK        -0.5000 
     30 C          -0.0301  -18.2824  -40.4205 C.2       8 UNK         0.5000 
     31 O          -1.1851  -17.9465  -40.1595 O.2       8 UNK        -0.5000 
     32 CA          1.0467  -17.2004  -40.6490 C.3       8 UNK         0.1400 
     33 CB          1.5041  -16.5966  -39.3130 C.3       8 UNK        -0.1800 
     34 N           2.2196  -17.7049  -41.3708 N.am      8 UNK        -0.5000 
     35 C           2.2269  -18.0595  -42.6617 C.2       7 UNK         0.5000 
     36 O           1.2558  -17.9308  -43.4119 O.2       7 UNK        -0.5000 
     37 CA          3.5263  -18.6980  -43.1810 C.3       7 UNK         0.1400 
     38 CB          3.2418  -19.9845  -43.9711 C.3       7 UNK        -0.1800 
     39 N           4.2697  -17.7533  -44.0093 N.am      7 UNK        -0.5000 
     40 C           4.9873  -16.7350  -43.5108 C.2       6 UNK         0.5000 
     41 O           5.1446  -16.5570  -42.3013 O.2       6 UNK        -0.5000 
     42 CA          5.6813  -15.7719  -44.4979 C.3       6 UNK         0.1400 
     43 CB          7.2010  -15.7459  -44.2608 C.3       6 UNK        -0.1800 
     44 N           5.4436  -16.0859  -45.9071 N.am      6 UNK        -0.5000 
     45 C           4.3441  -15.7576  -46.5934 C.2       5 UNK         0.5000 
     46 O           3.3855  -15.1603  -46.1007 O.2       5 UNK        -0.5000 
     47 CA          4.2880  -16.1655  -48.0805 C.3       5 UNK         0.1400 
     48 CB          5.5174  -16.9558  -48.5850 C.3       5 UNK        -0.1800 
     49 N           3.0462  -16.8831  -48.3700 N.am      5 UNK        -0.5000 
     50 C           2.6340  -18.0369  -47.8228 C.2       4 UNK         0.5000 
     51 O           3.3363  -18.7126  -47.0701 O.2       4 UNK        -0.5000 
     52 CA          1.1906  -18.4933  -48.1308 C.3       4 UNK         0.1400 
     53 CB          0.5141  -19.0699  -46.8739 C.3       4 UNK        -0.1800 
     54 N           0.3655  -17.3945  -48.6356 N.am      4 UNK        -0.5000 
     55 C           0.1995  -17.0595  -49.9221 C.2       3 UNK         0.5000 
     56 O           0.6597  -17.7014  -50.8645 O.2       3 UNK        -0.5000 
     57 CA         -0.5447  -15.7352  -50.1833 C.3       3 UNK         0.1400 
     58 CB         -2.0606  -15.9539  -50.1986 C.3       3 UNK        -0.1800 
     59 N          -0.2083  -14.7173  -49.1824 N.am      3 UNK        -0.5000 
     60 C           0.9976  -14.1453  -49.0710 C.2       2 UNK         0.5000 
     61 O           1.9182  -14.3532  -49.8611 O.2       2 UNK        -0.5000 
     62 CA          1.2587  -13.2618  -47.8409 C.3       2 UNK         0.1400 
     63 CB          0.7370  -11.8252  -48.0362 C.3       2 UNK        -0.1800 
     64 N           0.7990  -13.8718  -46.5868 N.am      2 UNK        -0.5000 
     65 C          -0.4504  -13.9875  -46.1113 C.2       1 UNK         0.5000 
     66 O          -1.4408  -13.5695  -46.7112 O.2       1 UNK        -0.5000 
     67 C          -3.7668  -23.9808  -44.8125 C.2       11 UNK         0.5000 
     68 O          -3.8177  -25.0163  -45.4736 O.2       11 UNK        -0.5000 
     69 N          -3.3312  -23.9453  -43.5442 N.am      12 UNK        -0.5000 
     70 CA         -2.7640  -25.1102  -42.8607 C.3       12 UNK         0.1400 
     71 CB         -2.8193  -24.8937  -41.3410 C.3       12 UNK        -0.1800 
     72 C          -1.3257  -25.4282  -43.3203 C.2       12 UNK         0.5000 
     73 O          -0.8729  -26.5556  -43.1181 O.2       12 UNK        -0.5000 
     74 N          -0.6384  -24.4472  -43.9239 N.am      13 UNK        -0.5000 
     75 CA          0.7122  -24.5878  -44.4593 C.3       13 UNK         0.1400 
     76 CB          1.5614  -23.3754  -44.0407 C.3       13 UNK        -0.1800 
     77 C           0.6819  -24.7450  -45.9863 C.2       13 UNK         0.5000 
     78 O           1.1057  -25.7819  -46.4980 O.2       13 UNK        -0.5000 
     79 N           0.2095  -23.7061  -46.6875 N.am      14 UNK        -0.5000 
     80 CA          0.2909  -23.6103  -48.1474 C.3       14 UNK         0.1400 
     81 CB          0.3932  -22.1317  -48.5345 C.3       14 UNK        -0.1800 
     82 C          -0.8922  -24.2686  -48.8731 C.2       14 UNK         0.5000 
     83 O          -0.7220  -24.7338  -50.0011 O.2       14 UNK        -0.5000 
     84 N          -2.0643  -24.2831  -48.2228 N.am      15 UNK        -0.5000 
     85 CA         -3.3322  -24.8422  -48.7032 C.3       15 UNK         0.1400 
     86 CB         -3.2918  -26.3838  -48.5972 C.3       15 UNK        -0.1800 
     87 C          -3.7151  -24.3152  -50.1033 C.2       15 UNK         0.5000 
     88 O          -3.9357  -23.1114  -50.2620 O.2       15 UNK        -0.5000 
     89 N          -3.7556  -25.2181  -51.0916 N.am      16 UNK        -0.5000 
     90 CA         -4.0858  -24.9486  -52.4887 C.3       16 UNK         0.1400 
     91 CB         -4.1296  -26.2772  -53.2577 C.3       16 UNK        -0.1800 
     92 C          -3.1347  -23.9585  -53.1852 C.2       16 UNK         0.5000 
     93 O          -3.5738  -23.2614  -54.0984 O.2       16 UNK        -0.5000 
     94 N          -1.8690  -23.8850  -52.7450 N.am      17 UNK        -0.5000 
     95 CA         -0.8792  -22.9540  -53.2917 C.3       17 UNK         0.1400 
     96 CB          0.5254  -23.3233  -52.7925 C.3       17 UNK        -0.1800 
     97 C          -1.2131  -21.4891  -52.9614 C.2       17 UNK         0.5000 
     98 O          -1.0662  -20.6252  -53.8257 O.2       17 UNK        -0.5000 
     99 N          -1.7054  -21.2434  -51.7388 N.am      18 UNK        -0.5000 
    100 CA        -2.1849  -19.9292  -51.3150 C.3       18 UNK         0.1400 
    101 CB        -2.2674  -19.8595  -49.7865 C.3       18 UNK        -0.1800 
    102 C         -3.5278  -19.5771  -51.9704 C.2       18 UNK         0.5000 
    103 O         -3.6990  -18.4457  -52.4174 O.2       18 UNK        -0.5000 
    104 N         -4.4303  -20.5629  -52.0846 N.am      19 UNK        -0.5000 
    105 CA        -5.7073  -20.4161  -52.7881 C.3       19 UNK         0.1400 
    106 CB        -6.5439  -21.6910  -52.6153 C.3       19 UNK        -0.1800 
    107 C         -5.5347  -20.0610  -54.2793 C.2       19 UNK         0.5000 
    108 O         -6.2799  -19.2257  -54.7914 O.2       19 UNK        -0.5000 
    109 N         -4.5298  -20.6637  -54.9316 N.am      20 UNK        -0.5000 
    110 CA        -4.1102  -20.3423  -56.2947 C.3       20 UNK         0.1400 
    111 CB        -3.1339  -21.4138  -56.8029 C.3       20 UNK        -0.1800 
    112 C         -3.4885  -18.9380  -56.4065 C.2       20 UNK         0.5000 
    113 O         -3.8170  -18.2099  -57.3442 O.2       20 UNK        -0.5000 
    114 N         -2.6337  -18.5639  -55.4409 N.am      21 UNK        -0.5000 
    115 CA        -1.9865  -17.2482  -55.3611 C.3       21 UNK         0.1400 
    116 CB        -0.9631  -17.2337  -54.2147 C.3       21 UNK        -0.1800 
    117 C         -2.9803  -16.0775  -55.2206 C.2       21 UNK         0.5000 
    118 O         -2.7133  -14.9942  -55.7426 O.2       21 UNK        -0.5000 
    119 N         -4.1195  -16.3260  -54.5631 N.am      22 UNK        -0.5000 
    120 CA        -5.2697  -15.4088  -54.4931 C.3       22 UNK         0.1400 
    121 C         -6.0635  -15.2535  -55.8270 C.2       22 UNK         0.5000 
    122 N         -5.7953  -16.0230  -56.8760 N.am      22 UNK        -0.7600 
    123 O         -6.9421  -14.4000  -55.9176 O.2       22 UNK        -0.5000 
    124 C124       -6.2279  -15.7691  -53.3292 C.3       23 UNK        -0.0398 
    125 S125       -5.4051  -15.7070  -51.7046 S.3       23 UNK        -0.2404 
    126 C126       -6.5720  -16.6567  -50.6777 C.3       23 UNK        -0.0205 
    127 H127        1.8306  -12.1099  -42.7515 H         1 UNK         0.0600 
    128 H128        0.1310  -12.5590  -42.6812 H         1 UNK         0.0600 
    129 H129        0.9003  -12.2015  -44.2393 H         1 UNK         0.0600 
    130 H130        0.9252  -15.9584  -44.1149 H         1 UNK         0.3000 
    131 H131       -1.1261  -13.9148  -44.1230 H         1 UNK         0.0600 
    132 H132       -2.5260  -15.5972  -44.2246 H         1 UNK         0.0800 
    133 H133       -1.2042  -16.6753  -44.0422 H         1 UNK         0.0800 
    134 H134       -3.8378  -15.2112  -46.7094 H         1 UNK         0.0800 
    135 H135       -4.2933  -16.3818  -45.4917 H         1 UNK         0.0800 
    136 H136       -5.0939  -15.4572  -48.7170 H         1 UNK         0.1150 
    137 H137       -6.5822  -19.2875  -49.9498 H         1 UNK         0.1150 
    138 H138       -4.1404  -18.9698  -46.4590 H         1 UNK         0.1150 
    139 H139       -6.0735  -21.2706  -48.7051 H         1 UNK         0.0800 
    140 H140       -4.5363  -21.2145  -47.8816 H         1 UNK         0.0800 
    141 H141       -6.0019  -23.4116  -46.4354 H         1 UNK         0.0800 
    142 H142       -6.2483  -22.8702  -44.7975 H         1 UNK         0.0800 
    143 H143       -3.7032  -22.6648  -46.4591 H         1 UNK         0.0600 
    144 H144       -4.3778  -20.8723  -44.3607 H         1 UNK         0.3000 
    145 H145       -1.4892  -19.1890  -44.6539 H         1 UNK         0.0600 
    146 H146       -2.9889  -18.0827  -42.9862 H         1 UNK         0.0600 
    147 H147       -3.9172  -18.6853  -44.3369 H         1 UNK         0.0600 
    148 H148       -3.9265  -19.5537  -42.8094 H         1 UNK         0.0600 
    149 H149       -0.3353  -19.4992  -42.7968 H         1 UNK         0.3000 
    150 H150       -1.1144  -20.7030  -39.6409 H         1 UNK         0.0600 
    151 H151       -0.2042  -22.9037  -40.5090 H         1 UNK         0.0600 
    152 H152        0.9660  -22.0117  -39.5529 H         1 UNK         0.0600 
    153 H153        1.0896  -22.0201  -41.3093 H         1 UNK         0.0600 
    154 H154        1.3414  -19.7240  -40.7413 H         1 UNK         0.3000 
    155 H155        0.5923  -16.4071  -41.2464 H         1 UNK         0.0600 
    156 H156        1.9799  -17.3427  -38.6753 H         1 UNK         0.0600 
    157 H157        0.6592  -16.1826  -38.7612 H         1 UNK         0.0600 
    158 H158        2.2154  -15.7856  -39.4719 H         1 UNK         0.0600 
    159 H159        3.0752  -17.7849  -40.8393 H         1 UNK         0.3000 
    160 H160        4.1488  -18.9790  -42.3286 H         1 UNK         0.0600 
    161 H161        2.5783  -19.8045  -44.8149 H         1 UNK         0.0600 
    162 H162        2.7630  -20.7290  -43.3348 H         1 UNK         0.0600 
    163 H163        4.1608  -20.4262  -44.3563 H         1 UNK         0.0600 
    164 H164        4.1527  -17.8365  -45.0109 H         1 UNK         0.3000 
    165 H165        5.2902  -14.7731  -44.2917 H         1 UNK         0.0600 
    166 H166        7.6910  -15.0279  -44.9187 H         1 UNK         0.0600 
    167 H167        7.4355  -15.4540  -43.2363 H         1 UNK         0.0600 
    168 H168        7.6513  -16.7240  -44.4347 H         1 UNK         0.0600 
    169 H169        6.1704  -16.6030  -46.3802 H         1 UNK         0.3000 
    170 H170        4.2445  -15.2340  -48.6460 H         1 UNK         0.0600 
    171 H171        6.4309  -16.3680  -48.4878 H         1 UNK         0.0600 
    172 H172        5.6627  -17.8913  -48.0440 H         1 UNK         0.0600 
    173 H173        5.4109  -17.2022  -49.6415 H         1 UNK         0.0600 
    174 H174        2.4008  -16.3893  -48.9713 H         1 UNK         0.3000 
    175 H175        1.2491  -19.2806  -48.8842 H         1 UNK         0.0600 
    176 H176        0.5372  -18.3600  -46.0465 H         1 UNK         0.0600 
    177 H177       -0.5272  -19.3292  -47.0635 H         1 UNK         0.0600 
    178 H178        1.0122  -19.9778  -46.5354 H         1 UNK         0.0600 
    179 H179       -0.0640  -16.8085  -47.9335 H         1 UNK         0.3000 
    180 H180       -0.2436  -15.3654  -51.1659 H         1 UNK         0.0600 
    181 H181       -2.5959  -15.0228  -50.3838 H         1 UNK         0.0600 
    182 H182       -2.4140  -16.3627  -49.2537 H         1 UNK         0.0600 
    183 H183       -2.3465  -16.6532  -50.9837 H         1 UNK         0.0600 
    184 H184       -0.9122  -14.4847  -48.4896 H         1 UNK         0.3000 
    185 H185        2.3425  -13.1896  -47.7378 H         1 UNK         0.0600 
    186 H186        0.9331  -11.2111  -47.1573 H         1 UNK         0.0600 
    187 H187        1.2324  -11.3490  -48.8830 H         1 UNK         0.0600 
    188 H188       -0.3343  -11.7971  -48.2355 H         1 UNK         0.0600 
    189 H189        1.5454  -14.3071  -46.0506 H         1 UNK         0.3000 
    190 H190       -3.2927  -23.0615  -43.0484 H         1 UNK         0.3000 
    191 H191       -3.3800  -25.9822  -43.0910 H         1 UNK         0.0600 
    192 H192       -2.4859  -25.7856  -40.8092 H         1 UNK         0.0600 
    193 H193       -3.8346  -24.6775  -41.0085 H         1 UNK         0.0600 
    194 H194       -2.1803  -24.0707  -41.0259 H         1 UNK         0.0600 
    195 H195       -1.0972  -23.5604  -44.0926 H         1 UNK         0.3000 
    196 H196        1.1960  -25.4778  -44.0511 H         1 UNK         0.0600 
    197 H197        1.0661  -22.4286  -44.2593 H         1 UNK         0.0600 
    198 H198        1.7723  -23.4074  -42.9733 H         1 UNK         0.0600 
    199 H199        2.5236  -23.3705  -44.5547 H         1 UNK         0.0600 
    200 H200       -0.1666  -22.9037  -46.1913 H         1 UNK         0.3000 
    201 H201        1.1999  -24.1071  -48.4941 H         1 UNK         0.0600 
    202 H202        1.3281  -21.7030  -48.1747 H         1 UNK         0.0600 
    203 H203       -0.4302  -21.5618  -48.1059 H         1 UNK         0.0600 
    204 H204        0.3694  -21.9939  -49.6158 H         1 UNK         0.0600 
    205 H205       -2.0791  -23.8866  -47.2960 H         1 UNK         0.3000 
    206 H206       -4.1158  -24.4855  -48.0358 H         1 UNK         0.0600 
    207 H207       -3.0999  -26.6946  -47.5701 H         1 UNK         0.0600 
    208 H208       -4.2447  -26.8274  -48.8887 H         1 UNK         0.0600 
    209 H209       -2.5095  -26.8208  -49.2191 H         1 UNK         0.0600 
    210 H210       -3.5244  -26.1744  -50.8654 H         1 UNK         0.3000 
    211 H211       -5.0860  -24.5142  -52.5074 H         1 UNK         0.0600 
    212 H212       -4.4029  -26.1157  -54.3015 H         1 UNK         0.0600 
    213 H213       -4.8682  -26.9566  -52.8319 H         1 UNK         0.0600 
    214 H214       -3.1620  -26.7807  -53.2458 H         1 UNK         0.0600 
    215 H215       -1.5807  -24.4534  -51.9561 H         1 UNK         0.3000 
    216 H216       -0.8851  -23.0579  -54.3790 H         1 UNK         0.0600 
    217 H217        0.6173  -23.2068  -51.7133 H         1 UNK         0.0600 
    218 H218        1.2804  -22.6855  -53.2538 H         1 UNK         0.0600 
    219 H219        0.7746  -24.3549  -53.0410 H         1 UNK         0.0600 
    220 H220       -1.8665  -22.0185  -51.1115 H         1 UNK         0.3000 
    221 H221       -1.4619  -19.1789  -51.6388 H         1 UNK         0.0600 
    222 H222       -1.2712  -19.8652  -49.3510 H         1 UNK         0.0600 
    223 H223       -2.8285  -20.6951  -49.3708 H         1 UNK         0.0600 
    224 H224       -2.7474  -18.9357  -49.4624 H         1 UNK         0.0600 
    225 H225       -4.2262  -21.4654  -51.6723 H         1 UNK         0.3000 
    226 H226       -6.2453  -19.5917  -52.3171 H         1 UNK         0.0600 
    227 H227       -6.0986  -22.5356  -53.1392 H         1 UNK         0.0600 
    228 H228       -6.6478  -21.9600  -51.5638 H         1 UNK         0.0600 
    229 H229       -7.5476  -21.5519  -53.0184 H         1 UNK         0.0600 
    230 H230       -4.0145  -21.4020  -54.4618 H         1 UNK         0.3000 
    231 H231       -4.9962  -20.3647  -56.9325 H         1 UNK         0.0600 
    232 H232       -2.2393  -21.4724  -56.1824 H         1 UNK         0.0600 
    233 H233       -2.8136  -21.1989  -57.8231 H         1 UNK         0.0600 
    234 H234       -3.6002  -22.3991  -56.8093 H         1 UNK         0.0600 
    235 H235       -2.3889  -19.2309  -54.7179 H         1 UNK         0.3000 
    236 H236       -1.4425  -17.1005  -56.2961 H         1 UNK         0.0600 
    237 H237       -1.4403  -17.3629  -53.2444 H         1 UNK         0.0600 
    238 H238       -0.2225  -18.0245  -54.3325 H         1 UNK         0.0600 
    239 H239       -0.4238  -16.2862  -54.1861 H         1 UNK         0.0600 
    240 H240       -4.2206  -17.2162  -54.0883 H         1 UNK         0.3000 
    241 H241       -4.8697  -14.4154  -54.2817 H         1 UNK         0.0600 
    242 H242       -6.3220  -15.8951  -57.7253 H         1 UNK         0.3800 
    243 H243       -5.0712  -16.7321  -56.8433 H         1 UNK         0.3800 
    244 H244       -6.6415  -16.7662  -53.4880 H         1 UNK         0.0800 
    245 H245       -7.0757  -15.0827  -53.2936 H         1 UNK         0.0800 
    246 H246       -7.3635  -15.9935  -50.3271 H         1 UNK         0.0800 
    247 H247       -7.0548  -17.4206  -51.2881 H         1 UNK         0.0800 
@<TRIPOS>BOND
     1    1    2 1    
     2    1  127 1    
     3    1  128 1    
     4    1  129 1    
     5    2    3 2    
     6    2    4 am   BACKBONE|DICT|INTERRES
     7    4    5 1    
     8    4  130 1    
     9    5    6 1    
    10    5   65 1    
    11    5  131 1    
    12    6    7 1    
    13    6  132 1    
    14    6  133 1    
    15    7    8 1    
    16    8    9 1    
    17    8  134 1    
    18    8  135 1    
    19    9   10 ar   
    20    9   14 ar   
    21   10   11 ar   
    22   10  136 1    
    23   11   12 ar   
    24   11  126 1    
    25   12   13 ar   
    26   12  137 1    
    27   13   14 ar   
    28   13   15 1    
    29   14  138 1    
    30   15   16 1    
    31   15  139 1    
    32   15  140 1    
    33   16   17 1    
    34   17   18 1    
    35   17  141 1    
    36   17  142 1    
    37   18   19 1    
    38   18   67 1    
    39   18  143 1    
    40   19   20 am   BACKBONE|DICT|INTERRES
    41   19  144 1    
    42   20   21 2    
    43   20   22 1    
    44   22   23 1    
    45   22   24 1    
    46   22  145 1    
    47   23  146 1    
    48   23  147 1    
    49   23  148 1    
    50   24   25 am   BACKBONE|DICT|INTERRES
    51   24  149 1    
    52   25   26 2    
    53   25   27 1    
    54   27   28 1    
    55   27   29 1    
    56   27  150 1    
    57   28  151 1    
    58   28  152 1    
    59   28  153 1    
    60   29   30 am   BACKBONE|DICT|INTERRES
    61   29  154 1    
    62   30   31 2    
    63   30   32 1    
    64   32   33 1    
    65   32   34 1    
    66   32  155 1    
    67   33  156 1    
    68   33  157 1    
    69   33  158 1    
    70   34   35 am   BACKBONE|DICT|INTERRES
    71   34  159 1    
    72   35   36 2    
    73   35   37 1    
    74   37   38 1    
    75   37   39 1    
    76   37  160 1    
    77   38  161 1    
    78   38  162 1    
    79   38  163 1    
    80   39   40 am   BACKBONE|DICT|INTERRES
    81   39  164 1    
    82   40   41 2    
    83   40   42 1    
    84   42   43 1    
    85   42   44 1    
    86   42  165 1    
    87   43  166 1    
    88   43  167 1    
    89   43  168 1    
    90   44   45 am   BACKBONE|DICT|INTERRES
    91   44  169 1    
    92   45   46 2    
    93   45   47 1    
    94   47   48 1    
    95   47   49 1    
    96   47  170 1    
    97   48  171 1    
    98   48  172 1    
    99   48  173 1    
   100   49   50 am   BACKBONE|DICT|INTERRES
   101   49  174 1    
   102   50   51 2    
   103   50   52 1    
   104   52   53 1    
   105   52   54 1    
   106   52  175 1    
   107   53  176 1    
   108   53  177 1    
   109   53  178 1    
   110   54   55 am   BACKBONE|DICT|INTERRES
   111   54  179 1    
   112   55   56 2    
   113   55   57 1    
   114   57   58 1    
   115   57   59 1    
   116   57  180 1    
   117   58  181 1    
   118   58  182 1    
   119   58  183 1    
   120   59   60 am   BACKBONE|DICT|INTERRES
   121   59  184 1    
   122   60   61 2    
   123   60   62 1    
   124   62   63 1    
   125   62   64 1    
   126   62  185 1    
   127   63  186 1    
   128   63  187 1    
   129   63  188 1    
   130   64   65 am   BACKBONE|DICT|INTERRES
   131   64  189 1    
   132   65   66 2    
   133   67   68 2    
   134   67   69 am   BACKBONE|DICT|INTERRES
   135   69   70 1    
   136   69  190 1    
   137   70   71 1    
   138   70   72 1    
   139   70  191 1    
   140   71  192 1    
   141   71  193 1    
   142   71  194 1    
   143   72   73 2    
   144   72   74 am   BACKBONE|DICT|INTERRES
   145   74   75 1    
   146   74  195 1    
   147   75   76 1    
   148   75   77 1    
   149   75  196 1    
   150   76  197 1    
   151   76  198 1    
   152   76  199 1    
   153   77   78 2    
   154   77   79 am   BACKBONE|DICT|INTERRES
   155   79   80 1    
   156   79  200 1    
   157   80   81 1    
   158   80   82 1    
   159   80  201 1    
   160   81  202 1    
   161   81  203 1    
   162   81  204 1    
   163   82   83 2    
   164   82   84 am   BACKBONE|DICT|INTERRES
   165   84   85 1    
   166   84  205 1    
   167   85   86 1    
   168   85   87 1    
   169   85  206 1    
   170   86  207 1    
   171   86  208 1    
   172   86  209 1    
   173   87   88 2    
   174   87   89 am   BACKBONE|DICT|INTERRES
   175   89   90 1    
   176   89  210 1    
   177   90   91 1    
   178   90   92 1    
   179   90  211 1    
   180   91  212 1    
   181   91  213 1    
   182   91  214 1    
   183   92   93 2    
   184   92   94 am   BACKBONE|DICT|INTERRES
   185   94   95 1    
   186   94  215 1    
   187   95   96 1    
   188   95   97 1    
   189   95  216 1    
   190   96  217 1    
   191   96  218 1    
   192   96  219 1    
   193   97   98 2    
   194   97   99 am   BACKBONE|DICT|INTERRES
   195   99  100 1    
   196   99  220 1    
   197  100  101 1    
   198  100  102 1    
   199  100  221 1    
   200  101  222 1    
   201  101  223 1    
   202  101  224 1    
   203  102  103 2    
   204  102  104 am   BACKBONE|DICT|INTERRES
   205  104  105 1    
   206  104  225 1    
   207  105  106 1    
   208  105  107 1    
   209  105  226 1    
   210  106  227 1    
   211  106  228 1    
   212  106  229 1    
   213  107  108 2    
   214  107  109 am   BACKBONE|DICT|INTERRES
   215  109  110 1    
   216  109  230 1    
   217  110  111 1    
   218  110  112 1    
   219  110  231 1    
   220  111  232 1    
   221  111  233 1    
   222  111  234 1    
   223  112  113 2    
   224  112  114 am   BACKBONE|DICT|INTERRES
   225  114  115 1    
   226  114  235 1    
   227  115  116 1    
   228  115  117 1    
   229  115  236 1    
   230  116  237 1    
   231  116  238 1    
   232  116  239 1    
   233  117  118 2    
   234  117  119 am   BACKBONE|DICT|INTERRES
   235  119  120 1    
   236  119  240 1    
   237  120  121 1    
   238  120  124 1    
   239  120  241 1    
   240  121  122 am   BACKBONE|DICT|INTERRES
   241  121  123 2    
   242  122  242 1    
   243  122  243 1    
   244  124  125 1    
   245  124  244 1    
   246  124  245 1    
   247  125  126 1    
   248  126  246 1    
   249  126  247 1    
@<TRIPOS>SUBSTRUCTURE
     1 UNK         1 GROUP             0       ****    0 ROOT    
