@<TRIPOS>MOLECULE
3R540
247   249    1
SMALL
USER_CHARGES


@<TRIPOS>ATOM
      1 CA          2.0821  -13.2264  -46.4517 C.3       0 UNK        -0.1800 
      2 C           0.8108  -13.5867  -45.6969 C.2       0 UNK         0.5000 
      3 O           0.8137  -13.5832  -44.4659 O.2       0 UNK        -0.5000 
      4 N          -0.2622  -13.8919  -46.4382 N.am      1 UNK        -0.5000 
      5 CA         -1.5939  -14.2694  -45.9518 C.3       1 UNK         0.1400 
      6 C6         -2.5381  -14.6403  -47.1222 C.3       23 UNK        -0.0398 
      7 S7         -2.0233  -16.1781  -47.9539 S.3       23 UNK        -0.2404 
      8 C8         -1.2703  -15.5402  -49.4863 C.3       23 UNK        -0.0205 
      9 C9         -0.7413  -16.6828  -50.3381 C.ar      23 UNK        -0.0193 
     10 C10        -1.3526  -17.0192  -51.5489 C.ar      23 UNK        -0.1150 
     11 C11        -0.8999  -18.1136  -52.2919 C.ar      23 UNK        -0.0193 
     12 C12         0.1672  -18.8791  -51.8121 C.ar      23 UNK        -0.1150 
     13 C13         0.7985  -18.5385  -50.6122 C.ar      23 UNK        -0.0193 
     14 C14         0.3552  -17.4241  -49.8955 C.ar      23 UNK        -0.1150 
     15 C15         1.9562  -19.3733  -50.0869 C.3       23 UNK        -0.0205 
     16 S16         1.3834  -20.8096  -49.1218 S.3       23 UNK        -0.2404 
     17 C17         0.6596  -20.0190  -47.6374 C.3       23 UNK        -0.0398 
     18 CA         -0.8204  -20.3478  -47.2992 C.3       11 UNK         0.1400 
     19 N          -1.3386  -19.4291  -46.2823 N.am      11 UNK        -0.5000 
     20 C          -2.4511  -19.6144  -45.5639 C.2       10 UNK         0.5000 
     21 O          -3.1921  -20.5885  -45.7091 O.2       10 UNK        -0.5000 
     22 CA         -2.7688  -18.5327  -44.5095 C.3       10 UNK         0.1400 
     23 CB         -4.1197  -18.7710  -43.8116 C.3       10 UNK        -0.1800 
     24 N          -1.7182  -18.4515  -43.4927 N.am      10 UNK        -0.5000 
     25 C          -0.5132  -17.8914  -43.6616 C.2       9 UNK         0.5000 
     26 O          -0.1858  -17.3040  -44.6949 O.2       9 UNK        -0.5000 
     27 CA          0.4979  -18.0004  -42.4988 C.3       9 UNK         0.1400 
     28 CB          0.1305  -19.0751  -41.4498 C.3       9 UNK        -0.1800 
     29 N           1.8680  -18.1988  -42.9865 N.am      9 UNK        -0.5000 
     30 C           2.2964  -19.2027  -43.7675 C.2       8 UNK         0.5000 
     31 O           1.6048  -20.1722  -44.0816 O.2       8 UNK        -0.5000 
     32 CA          3.7286  -19.1114  -44.3125 C.3       8 UNK         0.1400 
     33 CB          3.7524  -18.3122  -45.6290 C.3       8 UNK        -0.1800 
     34 N           4.6720  -18.5174  -43.3627 N.am      8 UNK        -0.5000 
     35 C           5.9764  -18.8209  -43.3284 C.2       7 UNK         0.5000 
     36 O           6.4914  -19.7020  -44.0187 O.2       7 UNK        -0.5000 
     37 CA          6.8714  -17.9949  -42.3928 C.3       7 UNK         0.1400 
     38 CB          7.2476  -16.6637  -43.0604 C.3       7 UNK        -0.1800 
     39 N           6.2379  -17.7193  -41.1040 N.am      7 UNK        -0.5000 
     40 C           6.5264  -18.3708  -39.9689 C.2       6 UNK         0.5000 
     41 O           7.2859  -19.3390  -39.9111 O.2       6 UNK        -0.5000 
     42 CA          5.8970  -17.8398  -38.6662 C.3       6 UNK         0.1400 
     43 CB          6.9185  -16.9961  -37.8873 C.3       6 UNK        -0.1800 
     44 N           4.6989  -17.0321  -38.8918 N.am      6 UNK        -0.5000 
     45 C           3.4832  -17.5406  -39.1240 C.2       5 UNK         0.5000 
     46 O           3.2389  -18.7466  -39.1552 O.2       5 UNK        -0.5000 
     47 CA          2.3520  -16.5293  -39.3789 C.3       5 UNK         0.1400 
     48 CB          1.6699  -16.1346  -38.0612 C.3       5 UNK        -0.1800 
     49 N           2.7657  -15.3135  -40.0839 N.am      5 UNK        -0.5000 
     50 C           3.3178  -15.2481  -41.3022 C.2       4 UNK         0.5000 
     51 O           3.6636  -16.2430  -41.9447 O.2       4 UNK        -0.5000 
     52 CA          3.4723  -13.8363  -41.9054 C.3       4 UNK         0.1400 
     53 CB          3.9870  -13.8666  -43.3546 C.3       4 UNK        -0.1800 
     54 N           2.2014  -13.1092  -41.8724 N.am      4 UNK        -0.5000 
     55 C           1.7159  -12.4507  -40.8094 C.2       3 UNK         0.5000 
     56 O           2.3103  -12.3757  -39.7332 O.2       3 UNK        -0.5000 
     57 CA          0.3244  -11.8062  -40.9480 C.3       3 UNK         0.1400 
     58 CB          0.4528  -10.3407  -41.3896 C.3       3 UNK        -0.1800 
     59 N          -0.5375  -12.5144  -41.8925 N.am      3 UNK        -0.5000 
     60 C          -1.0664  -13.7308  -41.6980 C.2       2 UNK         0.5000 
     61 O          -0.9327  -14.3745  -40.6567 O.2       2 UNK        -0.5000 
     62 CA         -1.8565  -14.3284  -42.8770 C.3       2 UNK         0.1400 
     63 CB         -3.0363  -15.2051  -42.4255 C.3       2 UNK        -0.1800 
     64 N          -2.3509  -13.2680  -43.7650 N.am      2 UNK        -0.5000 
     65 C          -2.2155  -13.1400  -45.0934 C.2       1 UNK         0.5000 
     66 O          -2.5874  -12.1148  -45.6644 O.2       1 UNK        -0.5000 
     67 C          -1.7851  -20.4965  -48.5028 C.2       11 UNK         0.5000 
     68 O          -1.8540  -21.5805  -49.0793 O.2       11 UNK        -0.5000 
     69 N          -2.5945  -19.4645  -48.7945 N.am      12 UNK        -0.5000 
     70 CA         -3.7037  -19.5301  -49.7514 C.3       12 UNK         0.1400 
     71 CB         -4.3785  -18.1554  -49.8743 C.3       12 UNK        -0.1800 
     72 C          -4.7602  -20.5823  -49.3678 C.2       12 UNK         0.5000 
     73 O          -5.1934  -21.3490  -50.2272 O.2       12 UNK        -0.5000 
     74 N          -5.1389  -20.6182  -48.0822 N.am      13 UNK        -0.5000 
     75 CA         -6.0992  -21.5767  -47.5344 C.3       13 UNK         0.1400 
     76 CB         -6.5559  -21.1258  -46.1390 C.3       13 UNK        -0.1800 
     77 C          -5.5258  -23.0026  -47.4983 C.2       13 UNK         0.5000 
     78 O          -6.2382  -23.9477  -47.8390 O.2       13 UNK        -0.5000 
     79 N          -4.2350  -23.1236  -47.1515 N.am      14 UNK        -0.5000 
     80 CA         -3.4732  -24.3759  -47.2025 C.3       14 UNK         0.1400 
     81 CB         -2.0851  -24.1625  -46.5816 C.3       14 UNK        -0.1800 
     82 C          -3.3518  -24.9412  -48.6328 C.2       14 UNK         0.5000 
     83 O          -3.3924  -26.1580  -48.8125 O.2       14 UNK        -0.5000 
     84 N          -3.2752  -24.0457  -49.6264 N.am      15 UNK        -0.5000 
     85 CA         -3.3022  -24.3343  -51.0603 C.3       15 UNK         0.1400 
     86 CB         -2.5561  -23.2156  -51.8079 C.3       15 UNK        -0.1800 
     87 C          -4.7274  -24.5415  -51.6231 C.2       15 UNK         0.5000 
     88 O          -4.9296  -24.3679  -52.8275 O.2       15 UNK        -0.5000 
     89 N          -5.6866  -24.9058  -50.7593 N.am      16 UNK        -0.5000 
     90 CA         -7.0854  -25.2258  -51.0575 C.3       16 UNK         0.1400 
     91 CB         -7.1799  -26.5145  -51.9010 C.3       16 UNK        -0.1800 
     92 C          -7.8538  -24.0343  -51.6622 C.2       16 UNK         0.5000 
     93 O          -8.5526  -24.1888  -52.6644 O.2       16 UNK        -0.5000 
     94 N          -7.6916  -22.8648  -51.0268 N.am      17 UNK        -0.5000 
     95 CA         -8.2294  -21.5574  -51.4185 C.3       17 UNK         0.1400 
     96 CB         -9.7727  -21.5492  -51.3931 C.3       17 UNK        -0.1800 
     97 C          -7.6275  -21.0742  -52.7531 C.2       17 UNK         0.5000 
     98 O          -8.3583  -20.6714  -53.6600 O.2       17 UNK        -0.5000 
     99 N          -6.2896  -21.1346  -52.8248 N.am      18 UNK        -0.5000 
    100 CA        -5.4318  -20.7583  -53.9511 C.3       18 UNK         0.1400 
    101 CB        -5.4409  -19.2281  -54.1438 C.3       18 UNK        -0.1800 
    102 C         -5.7621  -21.5422  -55.2388 C.2       18 UNK         0.5000 
    103 O         -5.9406  -20.9475  -56.3041 O.2       18 UNK        -0.5000 
    104 N         -5.8517  -22.8707  -55.1031 N.am      19 UNK        -0.5000 
    105 CA        -6.0679  -23.8079  -56.2035 C.3       19 UNK         0.1400 
    106 CB        -7.2091  -24.7668  -55.8344 C.3       19 UNK        -0.1800 
    107 C         -4.7824  -24.5913  -56.5134 C.2       19 UNK         0.5000 
    108 O         -4.4670  -24.7979  -57.6857 O.2       19 UNK        -0.5000 
    109 N         -4.0554  -25.0045  -55.4655 N.am      20 UNK        -0.5000 
    110 CA        -2.8035  -25.7603  -55.5674 C.3       20 UNK         0.1400 
    111 CB        -2.6473  -26.6271  -54.3088 C.3       20 UNK        -0.1800 
    112 C         -1.5668  -24.8592  -55.7591 C.2       20 UNK         0.5000 
    113 O         -0.4942  -25.3680  -56.0873 O.2       20 UNK        -0.5000 
    114 N         -1.7293  -23.5492  -55.5504 N.am      21 UNK        -0.5000 
    115 CA        -0.7196  -22.5133  -55.7288 C.3       21 UNK         0.1400 
    116 CB         0.0202  -22.2714  -54.4014 C.3       21 UNK        -0.1800 
    117 C         -1.4298  -21.2399  -56.2032 C.2       21 UNK         0.5000 
    118 O         -2.6303  -21.0933  -55.9645 O.2       21 UNK        -0.5000 
    119 N         -0.6738  -20.3442  -56.8483 N.am      22 UNK        -0.5000 
    120 CA        -1.1431  -19.0717  -57.4337 C.3       22 UNK         0.1400 
    121 C         -2.0279  -19.2300  -58.7103 C.2       22 UNK         0.5000 
    122 N         -2.0821  -20.3967  -59.3414 N.am      22 UNK        -0.7600 
    123 O         -2.6486  -18.2719  -59.1636 O.2       22 UNK        -0.5000 
    124 C124       -1.7783  -18.0974  -56.3991 C.3       23 UNK        -0.0398 
    125 S125       -0.6736  -17.7013  -55.0017 S.3       23 UNK        -0.2404 
    126 C126       -1.5641  -18.4653  -53.6117 C.3       23 UNK        -0.0205 
    127 H127        2.5134  -12.3113  -46.0458 H         1 UNK         0.0600 
    128 H128        1.8923  -13.0696  -47.5138 H         1 UNK         0.0600 
    129 H129        2.8162  -14.0254  -46.3510 H         1 UNK         0.0600 
    130 H130       -0.1766  -13.8514  -47.4417 H         1 UNK         0.3000 
    131 H131       -1.4869  -15.1782  -45.3689 H         1 UNK         0.0600 
    132 H132       -2.6089  -13.8269  -47.8466 H         1 UNK         0.0800 
    133 H133       -3.5526  -14.8061  -46.7548 H         1 UNK         0.0800 
    134 H134       -0.4509  -14.8625  -49.2456 H         1 UNK         0.0800 
    135 H135       -2.0100  -14.9583  -50.0384 H         1 UNK         0.0800 
    136 H136       -2.1883  -16.4365  -51.9099 H         1 UNK         0.1150 
    137 H137        0.5109  -19.7349  -52.3760 H         1 UNK         0.1150 
    138 H138        0.8407  -17.1430  -48.9723 H         1 UNK         0.1150 
    139 H139        2.5574  -19.7303  -50.9244 H         1 UNK         0.0800 
    140 H140        2.6225  -18.7638  -49.4742 H         1 UNK         0.0800 
    141 H141        0.7908  -18.9419  -47.7030 H         1 UNK         0.0800 
    142 H142        1.2777  -20.3186  -46.7909 H         1 UNK         0.0800 
    143 H143       -0.8035  -21.3320  -46.8286 H         1 UNK         0.0600 
    144 H144       -0.7736  -18.6143  -46.0625 H         1 UNK         0.3000 
    145 H145       -2.8287  -17.5754  -45.0318 H         1 UNK         0.0600 
    146 H146       -4.3399  -17.9832  -43.0916 H         1 UNK         0.0600 
    147 H147       -4.1369  -19.7232  -43.2798 H         1 UNK         0.0600 
    148 H148       -4.9356  -18.7839  -44.5353 H         1 UNK         0.0600 
    149 H149       -1.8971  -18.9488  -42.6325 H         1 UNK         0.3000 
    150 H150        0.4863  -17.0268  -42.0081 H         1 UNK         0.0600 
    151 H151       -0.0171  -20.0557  -41.9039 H         1 UNK         0.0600 
    152 H152       -0.7834  -18.8118  -40.9161 H         1 UNK         0.0600 
    153 H153        0.9155  -19.1822  -40.7018 H         1 UNK         0.0600 
    154 H154        2.5056  -17.4338  -42.7905 H         1 UNK         0.3000 
    155 H155        4.0359  -20.1371  -44.5290 H         1 UNK         0.0600 
    156 H156        3.0581  -18.7300  -46.3577 H         1 UNK         0.0600 
    157 H157        4.7428  -18.3266  -46.0839 H         1 UNK         0.0600 
    158 H158        3.4725  -17.2701  -45.4686 H         1 UNK         0.0600 
    159 H159        4.3212  -17.7767  -42.7627 H         1 UNK         0.3000 
    160 H160        7.7970  -18.5554  -42.2438 H         1 UNK         0.0600 
    161 H161        6.3665  -16.0597  -43.2719 H         1 UNK         0.0600 
    162 H162        7.7628  -16.8334  -44.0067 H         1 UNK         0.0600 
    163 H163        7.9141  -16.0779  -42.4272 H         1 UNK         0.0600 
    164 H164        5.5517  -16.9773  -41.0813 H         1 UNK         0.3000 
    165 H165        5.6332  -18.7032  -38.0514 H         1 UNK         0.0600 
    166 H166        6.5097  -16.6637  -36.9328 H         1 UNK         0.0600 
    167 H167        7.8183  -17.5732  -37.6700 H         1 UNK         0.0600 
    168 H168        7.2234  -16.1123  -38.4492 H         1 UNK         0.0600 
    169 H169        4.8097  -16.0287  -38.8769 H         1 UNK         0.3000 
    170 H170        1.6085  -17.0263  -39.9988 H         1 UNK         0.0600 
    171 H171        2.3485  -15.5886  -37.4046 H         1 UNK         0.0600 
    172 H172        0.7988  -15.5045  -38.2435 H         1 UNK         0.0600 
    173 H173        1.3243  -17.0160  -37.5192 H         1 UNK         0.0600 
    174 H174        2.5246  -14.4332  -39.6421 H         1 UNK         0.3000 
    175 H175        4.2078  -13.2995  -41.3029 H         1 UNK         0.0600 
    176 H176        3.3720  -14.5070  -43.9873 H         1 UNK         0.0600 
    177 H177        3.9952  -12.8690  -43.7939 H         1 UNK         0.0600 
    178 H178        5.0075  -14.2436  -43.3977 H         1 UNK         0.0600 
    179 H179        1.6318  -13.1739  -42.7120 H         1 UNK         0.3000 
    180 H180       -0.1523  -11.8293  -39.9657 H         1 UNK         0.0600 
    181 H181       -0.5213   -9.8527  -41.4261 H         1 UNK         0.0600 
    182 H182        0.9088  -10.2563  -42.3770 H         1 UNK         0.0600 
    183 H183        1.0725   -9.7755  -40.6921 H         1 UNK         0.0600 
    184 H184       -0.6480  -12.0945  -42.8047 H         1 UNK         0.3000 
    185 H185       -1.1267  -14.9670  -43.3667 H         1 UNK         0.0600 
    186 H186       -3.7613  -14.6329  -41.8456 H         1 UNK         0.0600 
    187 H187       -3.5560  -15.6322  -43.2828 H         1 UNK         0.0600 
    188 H188       -2.6983  -16.0360  -41.8050 H         1 UNK         0.0600 
    189 H189       -2.7921  -12.5022  -43.2755 H         1 UNK         0.3000 
    190 H190       -2.4674  -18.5922  -48.3001 H         1 UNK         0.3000 
    191 H191       -3.2915  -19.8027  -50.7252 H         1 UNK         0.0600 
    192 H192       -3.6846  -17.3969  -50.2274 H         1 UNK         0.0600 
    193 H193       -4.7803  -17.8148  -48.9192 H         1 UNK         0.0600 
    194 H194       -5.2049  -18.1886  -50.5856 H         1 UNK         0.0600 
    195 H195       -4.6792  -20.0107  -47.4191 H         1 UNK         0.3000 
    196 H196       -6.9759  -21.5854  -48.1855 H         1 UNK         0.0600 
    197 H197       -6.9718  -20.1185  -46.1652 H         1 UNK         0.0600 
    198 H198       -5.7380  -21.1331  -45.4187 H         1 UNK         0.0600 
    199 H199       -7.3324  -21.7879  -45.7540 H         1 UNK         0.0600 
    200 H200       -3.7381  -22.2909  -46.8550 H         1 UNK         0.3000 
    201 H201       -4.0080  -25.1104  -46.5969 H         1 UNK         0.0600 
    202 H202       -2.1551  -23.7123  -45.5911 H         1 UNK         0.0600 
    203 H203       -1.4619  -23.5203  -47.2027 H         1 UNK         0.0600 
    204 H204       -1.5612  -25.1128  -46.4726 H         1 UNK         0.0600 
    205 H205       -3.1720  -23.0667  -49.3790 H         1 UNK         0.3000 
    206 H206       -2.7597  -25.2658  -51.2279 H         1 UNK         0.0600 
    207 H207       -1.5375  -23.1045  -51.4358 H         1 UNK         0.0600 
    208 H208       -3.0573  -22.2538  -51.6988 H         1 UNK         0.0600 
    209 H209       -2.4864  -23.4310  -52.8731 H         1 UNK         0.0600 
    210 H210       -5.4325  -24.9715  -49.7825 H         1 UNK         0.3000 
    211 H211       -7.5612  -25.4314  -50.0975 H         1 UNK         0.0600 
    212 H212       -6.7128  -26.3986  -52.8782 H         1 UNK         0.0600 
    213 H213       -8.2193  -26.8006  -52.0659 H         1 UNK         0.0600 
    214 H214       -6.6916  -27.3484  -51.3970 H         1 UNK         0.0600 
    215 H215       -7.0310  -22.8447  -50.2613 H         1 UNK         0.3000 
    216 H216       -7.8931  -20.8492  -50.6599 H         1 UNK         0.0600 
    217 H217      -10.1568  -20.5413  -51.5540 H         1 UNK         0.0600 
    218 H218      -10.1527  -21.8913  -50.4306 H         1 UNK         0.0600 
    219 H219      -10.1995  -22.1856  -52.1685 H         1 UNK         0.0600 
    220 H220       -5.8034  -21.4525  -51.9898 H         1 UNK         0.3000 
    221 H221       -4.4164  -21.0460  -53.6739 H         1 UNK         0.0600 
    222 H222       -6.4273  -18.8605  -54.4273 H         1 UNK         0.0600 
    223 H223       -5.1398  -18.7146  -53.2308 H         1 UNK         0.0600 
    224 H224       -4.7455  -18.9317  -54.9285 H         1 UNK         0.0600 
    225 H225       -5.6935  -23.2815  -54.1870 H         1 UNK         0.3000 
    226 H226       -6.3591  -23.2761  -57.1115 H         1 UNK         0.0600 
    227 H227       -8.1345  -24.2215  -55.6478 H         1 UNK         0.0600 
    228 H228       -7.4028  -25.4750  -56.6408 H         1 UNK         0.0600 
    229 H229       -6.9777  -25.3419  -54.9383 H         1 UNK         0.0600 
    230 H230       -4.3853  -24.8014  -54.5247 H         1 UNK         0.3000 
    231 H231       -2.8596  -26.4282  -56.4295 H         1 UNK         0.0600 
    232 H232       -1.7791  -27.2822  -54.3914 H         1 UNK         0.0600 
    233 H233       -2.5104  -26.0161  -53.4184 H         1 UNK         0.0600 
    234 H234       -3.5201  -27.2614  -54.1522 H         1 UNK         0.0600 
    235 H235       -2.6581  -23.1939  -55.3638 H         1 UNK         0.3000 
    236 H236       -0.0074  -22.8203  -56.4975 H         1 UNK         0.0600 
    237 H237       -0.6534  -21.9085  -53.6249 H         1 UNK         0.0600 
    238 H238        0.4893  -23.1855  -54.0372 H         1 UNK         0.0600 
    239 H239        0.8079  -21.5271  -54.5227 H         1 UNK         0.0600 
    240 H240        0.3059  -20.5455  -56.9890 H         1 UNK         0.3000 
    241 H241       -0.2390  -18.5858  -57.8019 H         1 UNK         0.0600 
    242 H242       -2.6470  -20.4845  -60.1716 H         1 UNK         0.3800 
    243 H243       -1.5701  -21.1925  -58.9974 H         1 UNK         0.3800 
    244 H244       -2.7244  -18.4921  -56.0307 H         1 UNK         0.0800 
    245 H245       -2.0239  -17.1482  -56.8777 H         1 UNK         0.0800 
    246 H246       -1.5944  -19.5475  -53.7397 H         1 UNK         0.0800 
    247 H247       -2.6001  -18.1240  -53.6093 H         1 UNK         0.0800 
@<TRIPOS>BOND
     1    1    2 1    
     2    1  127 1    
     3    1  128 1    
     4    1  129 1    
     5    2    3 2    
     6    2    4 am   BACKBONE|DICT|INTERRES
     7    4    5 1    
     8    4  130 1    
     9    5    6 1    
    10    5   65 1    
    11    5  131 1    
    12    6    7 1    
    13    6  132 1    
    14    6  133 1    
    15    7    8 1    
    16    8    9 1    
    17    8  134 1    
    18    8  135 1    
    19    9   10 ar   
    20    9   14 ar   
    21   10   11 ar   
    22   10  136 1    
    23   11   12 ar   
    24   11  126 1    
    25   12   13 ar   
    26   12  137 1    
    27   13   14 ar   
    28   13   15 1    
    29   14  138 1    
    30   15   16 1    
    31   15  139 1    
    32   15  140 1    
    33   16   17 1    
    34   17   18 1    
    35   17  141 1    
    36   17  142 1    
    37   18   19 1    
    38   18   67 1    
    39   18  143 1    
    40   19   20 am   BACKBONE|DICT|INTERRES
    41   19  144 1    
    42   20   21 2    
    43   20   22 1    
    44   22   23 1    
    45   22   24 1    
    46   22  145 1    
    47   23  146 1    
    48   23  147 1    
    49   23  148 1    
    50   24   25 am   BACKBONE|DICT|INTERRES
    51   24  149 1    
    52   25   26 2    
    53   25   27 1    
    54   27   28 1    
    55   27   29 1    
    56   27  150 1    
    57   28  151 1    
    58   28  152 1    
    59   28  153 1    
    60   29   30 am   BACKBONE|DICT|INTERRES
    61   29  154 1    
    62   30   31 2    
    63   30   32 1    
    64   32   33 1    
    65   32   34 1    
    66   32  155 1    
    67   33  156 1    
    68   33  157 1    
    69   33  158 1    
    70   34   35 am   BACKBONE|DICT|INTERRES
    71   34  159 1    
    72   35   36 2    
    73   35   37 1    
    74   37   38 1    
    75   37   39 1    
    76   37  160 1    
    77   38  161 1    
    78   38  162 1    
    79   38  163 1    
    80   39   40 am   BACKBONE|DICT|INTERRES
    81   39  164 1    
    82   40   41 2    
    83   40   42 1    
    84   42   43 1    
    85   42   44 1    
    86   42  165 1    
    87   43  166 1    
    88   43  167 1    
    89   43  168 1    
    90   44   45 am   BACKBONE|DICT|INTERRES
    91   44  169 1    
    92   45   46 2    
    93   45   47 1    
    94   47   48 1    
    95   47   49 1    
    96   47  170 1    
    97   48  171 1    
    98   48  172 1    
    99   48  173 1    
   100   49   50 am   BACKBONE|DICT|INTERRES
   101   49  174 1    
   102   50   51 2    
   103   50   52 1    
   104   52   53 1    
   105   52   54 1    
   106   52  175 1    
   107   53  176 1    
   108   53  177 1    
   109   53  178 1    
   110   54   55 am   BACKBONE|DICT|INTERRES
   111   54  179 1    
   112   55   56 2    
   113   55   57 1    
   114   57   58 1    
   115   57   59 1    
   116   57  180 1    
   117   58  181 1    
   118   58  182 1    
   119   58  183 1    
   120   59   60 am   BACKBONE|DICT|INTERRES
   121   59  184 1    
   122   60   61 2    
   123   60   62 1    
   124   62   63 1    
   125   62   64 1    
   126   62  185 1    
   127   63  186 1    
   128   63  187 1    
   129   63  188 1    
   130   64   65 am   BACKBONE|DICT|INTERRES
   131   64  189 1    
   132   65   66 2    
   133   67   68 2    
   134   67   69 am   BACKBONE|DICT|INTERRES
   135   69   70 1    
   136   69  190 1    
   137   70   71 1    
   138   70   72 1    
   139   70  191 1    
   140   71  192 1    
   141   71  193 1    
   142   71  194 1    
   143   72   73 2    
   144   72   74 am   BACKBONE|DICT|INTERRES
   145   74   75 1    
   146   74  195 1    
   147   75   76 1    
   148   75   77 1    
   149   75  196 1    
   150   76  197 1    
   151   76  198 1    
   152   76  199 1    
   153   77   78 2    
   154   77   79 am   BACKBONE|DICT|INTERRES
   155   79   80 1    
   156   79  200 1    
   157   80   81 1    
   158   80   82 1    
   159   80  201 1    
   160   81  202 1    
   161   81  203 1    
   162   81  204 1    
   163   82   83 2    
   164   82   84 am   BACKBONE|DICT|INTERRES
   165   84   85 1    
   166   84  205 1    
   167   85   86 1    
   168   85   87 1    
   169   85  206 1    
   170   86  207 1    
   171   86  208 1    
   172   86  209 1    
   173   87   88 2    
   174   87   89 am   BACKBONE|DICT|INTERRES
   175   89   90 1    
   176   89  210 1    
   177   90   91 1    
   178   90   92 1    
   179   90  211 1    
   180   91  212 1    
   181   91  213 1    
   182   91  214 1    
   183   92   93 2    
   184   92   94 am   BACKBONE|DICT|INTERRES
   185   94   95 1    
   186   94  215 1    
   187   95   96 1    
   188   95   97 1    
   189   95  216 1    
   190   96  217 1    
   191   96  218 1    
   192   96  219 1    
   193   97   98 2    
   194   97   99 am   BACKBONE|DICT|INTERRES
   195   99  100 1    
   196   99  220 1    
   197  100  101 1    
   198  100  102 1    
   199  100  221 1    
   200  101  222 1    
   201  101  223 1    
   202  101  224 1    
   203  102  103 2    
   204  102  104 am   BACKBONE|DICT|INTERRES
   205  104  105 1    
   206  104  225 1    
   207  105  106 1    
   208  105  107 1    
   209  105  226 1    
   210  106  227 1    
   211  106  228 1    
   212  106  229 1    
   213  107  108 2    
   214  107  109 am   BACKBONE|DICT|INTERRES
   215  109  110 1    
   216  109  230 1    
   217  110  111 1    
   218  110  112 1    
   219  110  231 1    
   220  111  232 1    
   221  111  233 1    
   222  111  234 1    
   223  112  113 2    
   224  112  114 am   BACKBONE|DICT|INTERRES
   225  114  115 1    
   226  114  235 1    
   227  115  116 1    
   228  115  117 1    
   229  115  236 1    
   230  116  237 1    
   231  116  238 1    
   232  116  239 1    
   233  117  118 2    
   234  117  119 am   BACKBONE|DICT|INTERRES
   235  119  120 1    
   236  119  240 1    
   237  120  121 1    
   238  120  124 1    
   239  120  241 1    
   240  121  122 am   BACKBONE|DICT|INTERRES
   241  121  123 2    
   242  122  242 1    
   243  122  243 1    
   244  124  125 1    
   245  124  244 1    
   246  124  245 1    
   247  125  126 1    
   248  126  246 1    
   249  126  247 1    
@<TRIPOS>SUBSTRUCTURE
     1 UNK         1 GROUP             0       ****    0 ROOT    
