@<TRIPOS>MOLECULE
3R540
247   249    1
SMALL
USER_CHARGES


@<TRIPOS>ATOM
      1 CA          7.5237  -14.9301  -43.8634 C.3       0 UNK        -0.1800 
      2 C           6.0145  -14.7913  -43.7230 C.2       0 UNK         0.5000 
      3 O           5.5125  -14.6522  -42.6078 O.2       0 UNK        -0.5000 
      4 N           5.2913  -14.8306  -44.8489 N.am      1 UNK        -0.5000 
      5 CA          3.8319  -14.6913  -44.9163 C.3       1 UNK         0.1400 
      6 C6          3.2630  -15.1957  -46.2665 C.3       23 UNK        -0.0398 
      7 S7          4.0242  -14.3958  -47.7254 S.3       23 UNK        -0.2404 
      8 C8          2.9006  -14.9125  -49.0683 C.3       23 UNK        -0.0205 
      9 C9          2.9046  -16.4026  -49.4194 C.ar      23 UNK        -0.0193 
     10 C10         1.8641  -16.8929  -50.2148 C.ar      23 UNK        -0.1150 
     11 C11         1.8041  -18.2415  -50.5740 C.ar      23 UNK        -0.0193 
     12 C12         2.8053  -19.1098  -50.1304 C.ar      23 UNK        -0.1150 
     13 C13         3.8614  -18.6416  -49.3435 C.ar      23 UNK        -0.0193 
     14 C14         3.9126  -17.2854  -49.0053 C.ar      23 UNK        -0.1150 
     15 C15         4.9515  -19.6089  -48.8871 C.3       23 UNK        -0.0205 
     16 S16         5.3171  -19.5499  -47.0957 S.3       23 UNK        -0.2404 
     17 C17         3.6711  -19.7589  -46.3357 C.3       23 UNK        -0.0398 
     18 CA          3.3195  -21.1964  -45.8755 C.3       11 UNK         0.1400 
     19 N           2.1061  -21.1930  -45.0556 N.am      11 UNK        -0.5000 
     20 C           1.6119  -22.2294  -44.3657 C.2       10 UNK         0.5000 
     21 O           2.1707  -23.3225  -44.2742 O.2       10 UNK        -0.5000 
     22 CA          0.2559  -22.0088  -43.6644 C.3       10 UNK         0.1400 
     23 CB          0.4568  -21.3830  -42.2761 C.3       10 UNK        -0.1800 
     24 N          -0.6687  -21.1786  -44.4405 N.am      10 UNK        -0.5000 
     25 C          -1.2031  -21.5400  -45.6160 C.2       9 UNK         0.5000 
     26 O          -1.0007  -22.6270  -46.1551 O.2       9 UNK        -0.5000 
     27 CA         -2.0726  -20.4949  -46.3391 C.3       9 UNK         0.1400 
     28 CB         -3.4745  -20.4197  -45.7158 C.3       9 UNK        -0.1800 
     29 N          -1.4685  -19.1646  -46.3490 N.am      9 UNK        -0.5000 
     30 C          -0.2740  -18.8792  -46.8864 C.2       8 UNK         0.5000 
     31 O           0.4396  -19.7109  -47.4462 O.2       8 UNK        -0.5000 
     32 CA          0.2422  -17.4431  -46.6899 C.3       8 UNK         0.1400 
     33 CB         -0.4857  -16.4610  -47.6197 C.3       8 UNK        -0.1800 
     34 N           0.1022  -16.9906  -45.3047 N.am      8 UNK        -0.5000 
     35 C           0.6636  -17.5759  -44.2374 C.2       7 UNK         0.5000 
     36 O           1.4516  -18.5149  -44.3117 O.2       7 UNK        -0.5000 
     37 CA          0.2318  -17.0711  -42.8509 C.3       7 UNK         0.1400 
     38 CB          1.0323  -15.8352  -42.4301 C.3       7 UNK        -0.1800 
     39 N          -1.1950  -16.7641  -42.8079 N.am      7 UNK        -0.5000 
     40 C          -2.1595  -17.6927  -42.7911 C.2       6 UNK         0.5000 
     41 O          -1.9423  -18.9050  -42.7876 O.2       6 UNK        -0.5000 
     42 CA         -3.6078  -17.1717  -42.8128 C.3       6 UNK         0.1400 
     43 CB         -4.0713  -16.7972  -41.3971 C.3       6 UNK        -0.1800 
     44 N          -3.7769  -16.0192  -43.7013 N.am      6 UNK        -0.5000 
     45 C          -3.6804  -16.0869  -45.0359 C.2       5 UNK         0.5000 
     46 O          -3.4417  -17.1261  -45.6491 O.2       5 UNK        -0.5000 
     47 CA         -3.8466  -14.7700  -45.8156 C.3       5 UNK         0.1400 
     48 CB         -5.3345  -14.4602  -46.0385 C.3       5 UNK        -0.1800 
     49 N          -3.1943  -13.6110  -45.1966 N.am      5 UNK        -0.5000 
     50 C          -1.8807  -13.5117  -44.9540 C.2       4 UNK         0.5000 
     51 O          -1.0850  -14.4411  -45.0973 O.2       4 UNK        -0.5000 
     52 CA         -1.3621  -12.1499  -44.4689 C.3       4 UNK         0.1400 
     53 CB         -0.9451  -12.2142  -42.9919 C.3       4 UNK        -0.1800 
     54 N          -0.2155  -11.7515  -45.2839 N.am      4 UNK        -0.5000 
     55 C          -0.3153  -11.1464  -46.4773 C.2       3 UNK         0.5000 
     56 O          -1.3944  -10.7958  -46.9586 O.2       3 UNK        -0.5000 
     57 CA          0.9807  -10.9114  -47.2909 C.3       3 UNK         0.1400 
     58 CB          0.9601   -9.5746  -48.0614 C.3       3 UNK        -0.1800 
     59 N           2.2211  -11.0523  -46.5207 N.am      3 UNK        -0.5000 
     60 C           2.6412  -10.3121  -45.4826 C.2       2 UNK         0.5000 
     61 O           2.0586   -9.3047  -45.0785 O.2       2 UNK        -0.5000 
     62 CA          3.9186  -10.8082  -44.7612 C.3       2 UNK         0.1400 
     63 CB          3.9272  -10.4353  -43.2643 C.3       2 UNK        -0.1800 
     64 N           4.1771  -12.2484  -44.9227 N.am      2 UNK        -0.5000 
     65 C           3.3478  -13.2579  -44.6084 C.2       1 UNK         0.5000 
     66 O           2.2244  -13.0899  -44.1369 O.2       1 UNK        -0.5000 
     67 C           3.1936  -22.1756  -47.0621 C.2       11 UNK         0.5000 
     68 O           4.1005  -22.9797  -47.2832 O.2       11 UNK        -0.5000 
     69 N           2.0736  -22.0959  -47.7933 N.am      12 UNK        -0.5000 
     70 CA          1.7758  -22.9529  -48.9371 C.3       12 UNK         0.1400 
     71 CB          0.6368  -22.3378  -49.7579 C.3       12 UNK        -0.1800 
     72 C           1.4253  -24.3918  -48.5282 C.2       12 UNK         0.5000 
     73 O           2.1479  -25.3198  -48.8945 O.2       12 UNK        -0.5000 
     74 N           0.3030  -24.5403  -47.8077 N.am      13 UNK        -0.5000 
     75 CA         -0.3252  -25.7935  -47.3776 C.3       13 UNK         0.1400 
     76 CB          0.4872  -26.4156  -46.2237 C.3       13 UNK        -0.1800 
     77 C          -0.5931  -26.7870  -48.5347 C.2       13 UNK         0.5000 
     78 O          -0.4310  -27.9952  -48.3509 O.2       13 UNK        -0.5000 
     79 N          -0.9656  -26.2660  -49.7138 N.am      14 UNK        -0.5000 
     80 CA         -1.1460  -27.0432  -50.9381 C.3       14 UNK         0.1400 
     81 CB         -0.7867  -26.1757  -52.1599 C.3       14 UNK        -0.1800 
     82 C          -2.5675  -27.6242  -51.0152 C.2       14 UNK         0.5000 
     83 O          -2.7615  -28.8017  -50.7094 O.2       14 UNK        -0.5000 
     84 N          -3.5342  -26.7957  -51.4210 N.am      15 UNK        -0.5000 
     85 CA         -4.9408  -27.1444  -51.5974 C.3       15 UNK         0.1400 
     86 CB         -5.1340  -27.9608  -52.8888 C.3       15 UNK        -0.1800 
     87 C          -5.7529  -25.8463  -51.6510 C.2       15 UNK         0.5000 
     88 O          -5.2142  -24.8151  -52.0556 O.2       15 UNK        -0.5000 
     89 N          -7.0228  -25.9127  -51.2353 N.am      16 UNK        -0.5000 
     90 CA         -7.9381  -24.7734  -51.1858 C.3       16 UNK         0.1400 
     91 CB         -9.2020  -25.1733  -50.4078 C.3       16 UNK        -0.1800 
     92 C          -8.2902  -24.2502  -52.5919 C.2       16 UNK         0.5000 
     93 O          -8.9356  -24.9640  -53.3632 O.2       16 UNK        -0.5000 
     94 N          -7.8693  -23.0182  -52.8876 N.am      17 UNK        -0.5000 
     95 CA         -8.1424  -22.2890  -54.1208 C.3       17 UNK         0.1400 
     96 CB         -7.2054  -22.7720  -55.2499 C.3       17 UNK        -0.1800 
     97 C          -8.0564  -20.7799  -53.8218 C.2       17 UNK         0.5000 
     98 O          -8.5480  -20.3416  -52.7779 O.2       17 UNK        -0.5000 
     99 N          -7.4510  -20.0036  -54.7309 N.am      18 UNK        -0.5000 
    100 CA        -7.1819  -18.5753  -54.5626 C.3       18 UNK         0.1400 
    101 CB        -6.6767  -17.9948  -55.8924 C.3       18 UNK        -0.1800 
    102 C         -6.1598  -18.3355  -53.4363 C.2       18 UNK         0.5000 
    103 O         -5.1172  -18.9916  -53.4179 O.2       18 UNK        -0.5000 
    104 N         -6.4890  -17.4102  -52.5231 N.am      19 UNK        -0.5000 
    105 CA        -5.7615  -17.1115  -51.2822 C.3       19 UNK         0.1400 
    106 CB        -4.4019  -16.4413  -51.5742 C.3       19 UNK        -0.1800 
    107 C         -5.6692  -18.3376  -50.3457 C.2       19 UNK         0.5000 
    108 O         -4.6156  -18.6111  -49.7690 O.2       19 UNK        -0.5000 
    109 N         -6.7978  -19.0536  -50.2242 N.am      20 UNK        -0.5000 
    110 CA        -6.9997  -20.2627  -49.4253 C.3       20 UNK         0.1400 
    111 CB        -6.9458  -19.9354  -47.9163 C.3       20 UNK        -0.1800 
    112 C         -6.0587  -21.3987  -49.8724 C.2       20 UNK         0.5000 
    113 O         -6.0950  -21.7749  -51.0450 O.2       20 UNK        -0.5000 
    114 N         -5.2414  -21.9338  -48.9552 N.am      21 UNK        -0.5000 
    115 CA        -4.3503  -23.0746  -49.1899 C.3       21 UNK         0.1400 
    116 CB        -3.9017  -23.6663  -47.8478 C.3       21 UNK        -0.1800 
    117 C         -3.1526  -22.7991  -50.1266 C.2       21 UNK         0.5000 
    118 O         -2.3891  -23.7278  -50.3951 O.2       21 UNK        -0.5000 
    119 N         -3.0174  -21.5622  -50.6258 N.am      22 UNK        -0.5000 
    120 CA        -2.1829  -21.2196  -51.7905 C.3       22 UNK         0.1400 
    121 C         -2.7265  -21.7700  -53.1436 C.2       22 UNK         0.5000 
    122 N         -3.9633  -22.2417  -53.2317 N.am      22 UNK        -0.7600 
    123 O         -1.9982  -21.7870  -54.1323 O.2       22 UNK        -0.5000 
    124 C124       -1.9283  -19.6945  -51.8934 C.3       23 UNK        -0.0398 
    125 S125       -0.8625  -19.0512  -50.5604 S.3       23 UNK        -0.2404 
    126 C126        0.6832  -18.7445  -51.4756 C.3       23 UNK        -0.0205 
    127 H127        7.8248  -15.0523  -44.9041 H         1 UNK         0.0600 
    128 H128        7.8742  -15.7976  -43.3043 H         1 UNK         0.0600 
    129 H129        8.0203  -14.0443  -43.4674 H         1 UNK         0.0600 
    130 H130        5.7565  -14.9486  -45.7383 H         1 UNK         0.3000 
    131 H131        3.4134  -15.3308  -44.1382 H         1 UNK         0.0600 
    132 H132        3.4254  -16.2715  -46.3421 H         1 UNK         0.0800 
    133 H133        2.1808  -15.0562  -46.3016 H         1 UNK         0.0800 
    134 H134        1.8881  -14.6001  -48.8094 H         1 UNK         0.0800 
    135 H135        3.1717  -14.3550  -49.9656 H         1 UNK         0.0800 
    136 H136        1.0920  -16.2198  -50.5607 H         1 UNK         0.1150 
    137 H137        2.7747  -20.1515  -50.4122 H         1 UNK         0.1150 
    138 H138        4.7437  -16.9313  -48.4138 H         1 UNK         0.1150 
    139 H139        4.6888  -20.6342  -49.1514 H         1 UNK         0.0800 
    140 H140        5.8665  -19.3812  -49.4350 H         1 UNK         0.0800 
    141 H141        3.6704  -19.1004  -45.4672 H         1 UNK         0.0800 
    142 H142        2.9027  -19.3624  -46.9955 H         1 UNK         0.0800 
    143 H143        4.1319  -21.5535  -45.2393 H         1 UNK         0.0600 
    144 H144        1.6097  -20.3082  -45.0066 H         1 UNK         0.3000 
    145 H145       -0.2085  -22.9881  -43.5309 H         1 UNK         0.0600 
    146 H146       -0.4911  -21.2859  -41.7464 H         1 UNK         0.0600 
    147 H147        1.1127  -21.9999  -41.6607 H         1 UNK         0.0600 
    148 H148        0.9051  -20.3914  -42.3425 H         1 UNK         0.0600 
    149 H149       -0.9134  -20.2762  -44.0483 H         1 UNK         0.3000 
    150 H150       -2.1758  -20.8087  -47.3801 H         1 UNK         0.0600 
    151 H151       -3.9614  -21.3947  -45.7052 H         1 UNK         0.0600 
    152 H152       -4.1126  -19.7392  -46.2772 H         1 UNK         0.0600 
    153 H153       -3.4395  -20.0639  -44.6864 H         1 UNK         0.0600 
    154 H154       -2.0184  -18.4131  -45.9426 H         1 UNK         0.3000 
    155 H155        1.3029  -17.4347  -46.9455 H         1 UNK         0.0600 
    156 H156       -0.0611  -15.4600  -47.5500 H         1 UNK         0.0600 
    157 H157       -1.5456  -16.3905  -47.3812 H         1 UNK         0.0600 
    158 H158       -0.4144  -16.7774  -48.6588 H         1 UNK         0.0600 
    159 H159       -0.4891  -16.1752  -45.1574 H         1 UNK         0.3000 
    160 H160        0.4348  -17.8635  -42.1271 H         1 UNK         0.0600 
    161 H161        0.9051  -15.0253  -43.1458 H         1 UNK         0.0600 
    162 H162        2.0962  -16.0634  -42.3643 H         1 UNK         0.0600 
    163 H163        0.7182  -15.4718  -41.4517 H         1 UNK         0.0600 
    164 H164       -1.4557  -15.7912  -42.8683 H         1 UNK         0.3000 
    165 H165       -4.2455  -17.9802  -43.1769 H         1 UNK         0.0600 
    166 H166       -3.4874  -15.9733  -40.9849 H         1 UNK         0.0600 
    167 H167       -5.1205  -16.5013  -41.3915 H         1 UNK         0.0600 
    168 H168       -3.9700  -17.6441  -40.7172 H         1 UNK         0.0600 
    169 H169       -3.9706  -15.1266  -43.2717 H         1 UNK         0.3000 
    170 H170       -3.3862  -14.9142  -46.7950 H         1 UNK         0.0600 
    171 H171       -5.8408  -15.3000  -46.5167 H         1 UNK         0.0600 
    172 H172       -5.8498  -14.2578  -45.0988 H         1 UNK         0.0600 
    173 H173       -5.4645  -13.5935  -46.6870 H         1 UNK         0.0600 
    174 H174       -3.7786  -12.8020  -45.0423 H         1 UNK         0.3000 
    175 H175       -2.1540  -11.4039  -44.5638 H         1 UNK         0.0600 
    176 H176       -0.5833  -11.2464  -42.6444 H         1 UNK         0.0600 
    177 H177       -1.7882  -12.4942  -42.3594 H         1 UNK         0.0600 
    178 H178       -0.1528  -12.9432  -42.8244 H         1 UNK         0.0600 
    179 H179        0.6907  -12.0797  -44.9647 H         1 UNK         0.3000 
    180 H180        1.0062  -11.7112  -48.0325 H         1 UNK         0.0600 
    181 H181        1.8758   -9.4361  -48.6362 H         1 UNK         0.0600 
    182 H182        0.1294   -9.5413  -48.7672 H         1 UNK         0.0600 
    183 H183        0.8511   -8.7214  -47.3916 H         1 UNK         0.0600 
    184 H184        2.7845  -11.8560  -46.7599 H         1 UNK         0.3000 
    185 H185        4.7531  -10.2914  -45.2368 H         1 UNK         0.0600 
    186 H186        4.8363  -10.7864  -42.7760 H         1 UNK         0.0600 
    187 H187        3.8843   -9.3543  -43.1271 H         1 UNK         0.0600 
    188 H188        3.0758  -10.8666  -42.7366 H         1 UNK         0.0600 
    189 H189        5.0708  -12.4902  -45.3275 H         1 UNK         0.3000 
    190 H190        1.3899  -21.3768  -47.5678 H         1 UNK         0.3000 
    191 H191        2.6606  -22.9938  -49.5760 H         1 UNK         0.0600 
    192 H192        0.3467  -23.0029  -50.5721 H         1 UNK         0.0600 
    193 H193        0.9370  -21.3938  -50.2029 H         1 UNK         0.0600 
    194 H194       -0.2490  -22.1455  -49.1511 H         1 UNK         0.0600 
    195 H195       -0.1754  -23.7017  -47.4878 H         1 UNK         0.3000 
    196 H196       -1.3028  -25.5209  -46.9788 H         1 UNK         0.0600 
    197 H197       -0.0276  -27.2782  -45.7994 H         1 UNK         0.0600 
    198 H198        0.6345  -25.6974  -45.4166 H         1 UNK         0.0600 
    199 H199        1.4702  -26.7491  -46.5576 H         1 UNK         0.0600 
    200 H200       -1.1571  -25.2720  -49.7843 H         1 UNK         0.3000 
    201 H201       -0.4508  -27.8856  -50.9333 H         1 UNK         0.0600 
    202 H202        0.2570  -25.8633  -52.1204 H         1 UNK         0.0600 
    203 H203       -1.3957  -25.2748  -52.2303 H         1 UNK         0.0600 
    204 H204       -0.9223  -26.7350  -53.0863 H         1 UNK         0.0600 
    205 H205       -3.3215  -25.8218  -51.6087 H         1 UNK         0.3000 
    206 H206       -5.2730  -27.7295  -50.7373 H         1 UNK         0.0600 
    207 H207       -4.5944  -28.9070  -52.8485 H         1 UNK         0.0600 
    208 H208       -6.1866  -28.1969  -53.0493 H         1 UNK         0.0600 
    209 H209       -4.7831  -27.4123  -53.7639 H         1 UNK         0.0600 
    210 H210       -7.4035  -26.8046  -50.9547 H         1 UNK         0.3000 
    211 H211       -7.4489  -23.9781  -50.6227 H         1 UNK         0.0600 
    212 H212       -9.7240  -26.0043  -50.8839 H         1 UNK         0.0600 
    213 H213       -9.9012  -24.3384  -50.3463 H         1 UNK         0.0600 
    214 H214       -8.9600  -25.4693  -49.3868 H         1 UNK         0.0600 
    215 H215       -7.3208  -22.5021  -52.2004 H         1 UNK         0.3000 
    216 H216       -9.1740  -22.4852  -54.4195 H         1 UNK         0.0600 
    217 H217       -7.4604  -22.3091  -56.2037 H         1 UNK         0.0600 
    218 H218       -7.2827  -23.8497  -55.3940 H         1 UNK         0.0600 
    219 H219       -6.1624  -22.5438  -55.0326 H         1 UNK         0.0600 
    220 H220       -7.0420  -20.4425  -55.5422 H         1 UNK         0.3000 
    221 H221       -8.1217  -18.0814  -54.3069 H         1 UNK         0.0600 
    222 H222       -5.7472  -18.4685  -56.2112 H         1 UNK         0.0600 
    223 H223       -7.4117  -18.1278  -56.6865 H         1 UNK         0.0600 
    224 H224       -6.4854  -16.9247  -55.8025 H         1 UNK         0.0600 
    225 H225       -7.3648  -16.9190  -52.6378 H         1 UNK         0.3000 
    226 H226       -6.3660  -16.3804  -50.7434 H         1 UNK         0.0600 
    227 H227       -4.5363  -15.5158  -52.1337 H         1 UNK         0.0600 
    228 H228       -3.8821  -16.1869  -50.6497 H         1 UNK         0.0600 
    229 H229       -3.7406  -17.0829  -52.1539 H         1 UNK         0.0600 
    230 H230       -7.5796  -18.7963  -50.8106 H         1 UNK         0.3000 
    231 H231       -8.0092  -20.6106  -49.6489 H         1 UNK         0.0600 
    232 H232       -7.1541  -20.8170  -47.3087 H         1 UNK         0.0600 
    233 H233       -7.6960  -19.1883  -47.6572 H         1 UNK         0.0600 
    234 H234       -5.9767  -19.5389  -47.6163 H         1 UNK         0.0600 
    235 H235       -5.2488  -21.5488  -48.0228 H         1 UNK         0.3000 
    236 H236       -4.9478  -23.8423  -49.6795 H         1 UNK         0.0600 
    237 H237       -4.7553  -23.9191  -47.2188 H         1 UNK         0.0600 
    238 H238       -3.3289  -24.5820  -47.9965 H         1 UNK         0.0600 
    239 H239       -3.2721  -22.9729  -47.2997 H         1 UNK         0.0600 
    240 H240       -3.6712  -20.8492  -50.3323 H         1 UNK         0.3000 
    241 H241       -1.2166  -21.7037  -51.6611 H         1 UNK         0.0600 
    242 H242       -4.5833  -22.2397  -52.4305 H         1 UNK         0.3800 
    243 H243       -4.2807  -22.6261  -54.1043 H         1 UNK         0.3800 
    244 H244       -1.4769  -19.4332  -52.8521 H         1 UNK         0.0800 
    245 H245       -2.8785  -19.1635  -51.8605 H         1 UNK         0.0800 
    246 H246        0.4950  -18.0107  -52.2607 H         1 UNK         0.0800 
    247 H247        0.9898  -19.6614  -51.9810 H         1 UNK         0.0800 
@<TRIPOS>BOND
     1    1    2 1    
     2    1  127 1    
     3    1  128 1    
     4    1  129 1    
     5    2    3 2    
     6    2    4 am   BACKBONE|DICT|INTERRES
     7    4    5 1    
     8    4  130 1    
     9    5    6 1    
    10    5   65 1    
    11    5  131 1    
    12    6    7 1    
    13    6  132 1    
    14    6  133 1    
    15    7    8 1    
    16    8    9 1    
    17    8  134 1    
    18    8  135 1    
    19    9   10 ar   
    20    9   14 ar   
    21   10   11 ar   
    22   10  136 1    
    23   11   12 ar   
    24   11  126 1    
    25   12   13 ar   
    26   12  137 1    
    27   13   14 ar   
    28   13   15 1    
    29   14  138 1    
    30   15   16 1    
    31   15  139 1    
    32   15  140 1    
    33   16   17 1    
    34   17   18 1    
    35   17  141 1    
    36   17  142 1    
    37   18   19 1    
    38   18   67 1    
    39   18  143 1    
    40   19   20 am   BACKBONE|DICT|INTERRES
    41   19  144 1    
    42   20   21 2    
    43   20   22 1    
    44   22   23 1    
    45   22   24 1    
    46   22  145 1    
    47   23  146 1    
    48   23  147 1    
    49   23  148 1    
    50   24   25 am   BACKBONE|DICT|INTERRES
    51   24  149 1    
    52   25   26 2    
    53   25   27 1    
    54   27   28 1    
    55   27   29 1    
    56   27  150 1    
    57   28  151 1    
    58   28  152 1    
    59   28  153 1    
    60   29   30 am   BACKBONE|DICT|INTERRES
    61   29  154 1    
    62   30   31 2    
    63   30   32 1    
    64   32   33 1    
    65   32   34 1    
    66   32  155 1    
    67   33  156 1    
    68   33  157 1    
    69   33  158 1    
    70   34   35 am   BACKBONE|DICT|INTERRES
    71   34  159 1    
    72   35   36 2    
    73   35   37 1    
    74   37   38 1    
    75   37   39 1    
    76   37  160 1    
    77   38  161 1    
    78   38  162 1    
    79   38  163 1    
    80   39   40 am   BACKBONE|DICT|INTERRES
    81   39  164 1    
    82   40   41 2    
    83   40   42 1    
    84   42   43 1    
    85   42   44 1    
    86   42  165 1    
    87   43  166 1    
    88   43  167 1    
    89   43  168 1    
    90   44   45 am   BACKBONE|DICT|INTERRES
    91   44  169 1    
    92   45   46 2    
    93   45   47 1    
    94   47   48 1    
    95   47   49 1    
    96   47  170 1    
    97   48  171 1    
    98   48  172 1    
    99   48  173 1    
   100   49   50 am   BACKBONE|DICT|INTERRES
   101   49  174 1    
   102   50   51 2    
   103   50   52 1    
   104   52   53 1    
   105   52   54 1    
   106   52  175 1    
   107   53  176 1    
   108   53  177 1    
   109   53  178 1    
   110   54   55 am   BACKBONE|DICT|INTERRES
   111   54  179 1    
   112   55   56 2    
   113   55   57 1    
   114   57   58 1    
   115   57   59 1    
   116   57  180 1    
   117   58  181 1    
   118   58  182 1    
   119   58  183 1    
   120   59   60 am   BACKBONE|DICT|INTERRES
   121   59  184 1    
   122   60   61 2    
   123   60   62 1    
   124   62   63 1    
   125   62   64 1    
   126   62  185 1    
   127   63  186 1    
   128   63  187 1    
   129   63  188 1    
   130   64   65 am   BACKBONE|DICT|INTERRES
   131   64  189 1    
   132   65   66 2    
   133   67   68 2    
   134   67   69 am   BACKBONE|DICT|INTERRES
   135   69   70 1    
   136   69  190 1    
   137   70   71 1    
   138   70   72 1    
   139   70  191 1    
   140   71  192 1    
   141   71  193 1    
   142   71  194 1    
   143   72   73 2    
   144   72   74 am   BACKBONE|DICT|INTERRES
   145   74   75 1    
   146   74  195 1    
   147   75   76 1    
   148   75   77 1    
   149   75  196 1    
   150   76  197 1    
   151   76  198 1    
   152   76  199 1    
   153   77   78 2    
   154   77   79 am   BACKBONE|DICT|INTERRES
   155   79   80 1    
   156   79  200 1    
   157   80   81 1    
   158   80   82 1    
   159   80  201 1    
   160   81  202 1    
   161   81  203 1    
   162   81  204 1    
   163   82   83 2    
   164   82   84 am   BACKBONE|DICT|INTERRES
   165   84   85 1    
   166   84  205 1    
   167   85   86 1    
   168   85   87 1    
   169   85  206 1    
   170   86  207 1    
   171   86  208 1    
   172   86  209 1    
   173   87   88 2    
   174   87   89 am   BACKBONE|DICT|INTERRES
   175   89   90 1    
   176   89  210 1    
   177   90   91 1    
   178   90   92 1    
   179   90  211 1    
   180   91  212 1    
   181   91  213 1    
   182   91  214 1    
   183   92   93 2    
   184   92   94 am   BACKBONE|DICT|INTERRES
   185   94   95 1    
   186   94  215 1    
   187   95   96 1    
   188   95   97 1    
   189   95  216 1    
   190   96  217 1    
   191   96  218 1    
   192   96  219 1    
   193   97   98 2    
   194   97   99 am   BACKBONE|DICT|INTERRES
   195   99  100 1    
   196   99  220 1    
   197  100  101 1    
   198  100  102 1    
   199  100  221 1    
   200  101  222 1    
   201  101  223 1    
   202  101  224 1    
   203  102  103 2    
   204  102  104 am   BACKBONE|DICT|INTERRES
   205  104  105 1    
   206  104  225 1    
   207  105  106 1    
   208  105  107 1    
   209  105  226 1    
   210  106  227 1    
   211  106  228 1    
   212  106  229 1    
   213  107  108 2    
   214  107  109 am   BACKBONE|DICT|INTERRES
   215  109  110 1    
   216  109  230 1    
   217  110  111 1    
   218  110  112 1    
   219  110  231 1    
   220  111  232 1    
   221  111  233 1    
   222  111  234 1    
   223  112  113 2    
   224  112  114 am   BACKBONE|DICT|INTERRES
   225  114  115 1    
   226  114  235 1    
   227  115  116 1    
   228  115  117 1    
   229  115  236 1    
   230  116  237 1    
   231  116  238 1    
   232  116  239 1    
   233  117  118 2    
   234  117  119 am   BACKBONE|DICT|INTERRES
   235  119  120 1    
   236  119  240 1    
   237  120  121 1    
   238  120  124 1    
   239  120  241 1    
   240  121  122 am   BACKBONE|DICT|INTERRES
   241  121  123 2    
   242  122  242 1    
   243  122  243 1    
   244  124  125 1    
   245  124  244 1    
   246  124  245 1    
   247  125  126 1    
   248  126  246 1    
   249  126  247 1    
@<TRIPOS>SUBSTRUCTURE
     1 UNK         1 GROUP             0       ****    0 ROOT    
