@<TRIPOS>MOLECULE
3R540
247   249    1
SMALL
USER_CHARGES


@<TRIPOS>ATOM
      1 CA         -2.7671  -16.3717  -48.2896 C.3       0 UNK        -0.1800 
      2 C          -2.6301  -14.8573  -48.2200 C.2       0 UNK         0.5000 
      3 O          -3.6294  -14.1448  -48.3124 O.2       0 UNK        -0.5000 
      4 N          -1.3913  -14.3701  -48.0771 N.am      1 UNK        -0.5000 
      5 CA         -1.0278  -12.9551  -47.9736 C.3       1 UNK         0.1400 
      6 C6          0.5086  -12.7622  -47.9880 C.3       23 UNK        -0.0398 
      7 S7          1.2539  -13.0558  -49.6286 S.3       23 UNK        -0.2404 
      8 C8          1.8038  -14.7999  -49.5435 C.3       23 UNK        -0.0205 
      9 C9          0.8875  -15.8322  -50.2097 C.ar      23 UNK        -0.0193 
     10 C10        -0.2873  -15.4879  -50.8969 C.ar      23 UNK        -0.1150 
     11 C11        -1.0791  -16.4707  -51.4962 C.ar      23 UNK        -0.0193 
     12 C12        -0.6835  -17.8044  -51.4324 C.ar      23 UNK        -0.1150 
     13 C13         0.4886  -18.1669  -50.7701 C.ar      23 UNK        -0.0193 
     14 C14         1.2635  -17.1800  -50.1536 C.ar      23 UNK        -0.1150 
     15 C15         0.9176  -19.6255  -50.7533 C.3       23 UNK        -0.0205 
     16 S16         0.6347  -20.4338  -49.1488 S.3       23 UNK        -0.2404 
     17 C17        -1.1013  -20.0052  -48.7863 C.3       23 UNK        -0.0398 
     18 CA         -1.8472  -21.1005  -47.9952 C.3       11 UNK         0.1400 
     19 N          -1.2043  -21.4306  -46.7179 N.am      11 UNK        -0.5000 
     20 C          -1.5578  -22.4566  -45.9315 C.2       10 UNK         0.5000 
     21 O          -2.4420  -23.2618  -46.2197 O.2       10 UNK        -0.5000 
     22 CA         -0.8529  -22.5735  -44.5692 C.3       10 UNK         0.1400 
     23 CB          0.5248  -23.2387  -44.7077 C.3       10 UNK        -0.1800 
     24 N          -0.7290  -21.2743  -43.9073 N.am      10 UNK        -0.5000 
     25 C          -1.7728  -20.5751  -43.4373 C.2       9 UNK         0.5000 
     26 O          -2.9315  -20.9911  -43.4521 O.2       9 UNK        -0.5000 
     27 CA         -1.4871  -19.1593  -42.9021 C.3       9 UNK         0.1400 
     28 CB         -1.0232  -19.2121  -41.4391 C.3       9 UNK        -0.1800 
     29 N          -0.4963  -18.4395  -43.7015 N.am      9 UNK        -0.5000 
     30 C          -0.6600  -18.0872  -44.9839 C.2       8 UNK         0.5000 
     31 O          -1.6953  -18.2770  -45.6182 O.2       8 UNK        -0.5000 
     32 CA          0.5552  -17.4702  -45.6981 C.3       8 UNK         0.1400 
     33 CB          0.6248  -15.9580  -45.4462 C.3       8 UNK        -0.1800 
     34 N           1.8231  -18.0953  -45.3142 N.am      8 UNK        -0.5000 
     35 C           2.1220  -19.3867  -45.5175 C.2       7 UNK         0.5000 
     36 O           1.3463  -20.1939  -46.0224 O.2       7 UNK        -0.5000 
     37 CA          3.4956  -19.8665  -45.0215 C.3       7 UNK         0.1400 
     38 CB          4.6150  -19.3783  -45.9536 C.3       7 UNK        -0.1800 
     39 N           3.7633  -19.4222  -43.6547 N.am      7 UNK        -0.5000 
     40 C           3.0973  -19.8543  -42.5737 C.2       6 UNK         0.5000 
     41 O           2.2297  -20.7277  -42.6047 O.2       6 UNK        -0.5000 
     42 CA          3.4238  -19.1456  -41.2440 C.3       6 UNK         0.1400 
     43 CB          4.6537  -19.7796  -40.5771 C.3       6 UNK        -0.1800 
     44 N           3.6429  -17.7031  -41.4068 N.am      6 UNK        -0.5000 
     45 C           2.7066  -16.8530  -41.8465 C.2       5 UNK         0.5000 
     46 O           1.5571  -17.1996  -42.1349 O.2       5 UNK        -0.5000 
     47 CA          3.1232  -15.3890  -42.0483 C.3       5 UNK         0.1400 
     48 CB          3.9857  -15.2566  -43.3216 C.3       5 UNK        -0.1800 
     49 N           1.8891  -14.6195  -42.1660 N.am      5 UNK        -0.5000 
     50 C           1.7385  -13.3035  -42.3278 C.2       4 UNK         0.5000 
     51 O           2.6757  -12.5042  -42.3709 O.2       4 UNK        -0.5000 
     52 CA          0.2743  -12.8375  -42.4560 C.3       4 UNK         0.1400 
     53 CB         -0.4028  -12.7109  -41.0769 C.3       4 UNK        -0.1800 
     54 N           0.1047  -11.6220  -43.2565 N.am      4 UNK        -0.5000 
     55 C           0.4505  -10.3572  -42.9653 C.2       3 UNK         0.5000 
     56 O           0.9595   -9.9979  -41.9028 O.2       3 UNK        -0.5000 
     57 CA          0.1603   -9.2938  -44.0474 C.3       3 UNK         0.1400 
     58 CB          1.4450   -8.9473  -44.8163 C.3       3 UNK        -0.1800 
     59 N          -0.8672   -9.7007  -45.0095 N.am      3 UNK        -0.5000 
     60 C          -2.1662   -9.8697  -44.7247 C.2       2 UNK         0.5000 
     61 O          -2.6644   -9.6032  -43.6305 O.2       2 UNK        -0.5000 
     62 CA         -3.0580  -10.4546  -45.8388 C.3       2 UNK         0.1400 
     63 CB         -3.8896   -9.3433  -46.4979 C.3       2 UNK        -0.1800 
     64 N          -2.3341  -11.1875  -46.8850 N.am      2 UNK        -0.5000 
     65 C          -1.6359  -12.3181  -46.7067 C.2       1 UNK         0.5000 
     66 O          -1.4328  -12.8349  -45.6054 O.2       1 UNK        -0.5000 
     67 C          -3.3307  -20.7187  -47.8130 C.2       11 UNK         0.5000 
     68 O          -4.1646  -21.1538  -48.6024 O.2       11 UNK        -0.5000 
     69 N          -3.6564  -19.9594  -46.7587 N.am      12 UNK        -0.5000 
     70 CA         -5.0324  -19.6146  -46.3944 C.3       12 UNK         0.1400 
     71 CB         -5.0199  -18.5897  -45.2497 C.3       12 UNK        -0.1800 
     72 C          -5.8833  -20.8430  -46.0127 C.2       12 UNK         0.5000 
     73 O          -7.0777  -20.8682  -46.3121 O.2       12 UNK        -0.5000 
     74 N          -5.2558  -21.8333  -45.3653 N.am      13 UNK        -0.5000 
     75 CA         -5.8938  -23.0720  -44.9318 C.3       13 UNK         0.1400 
     76 CB         -5.1027  -23.6633  -43.7535 C.3       13 UNK        -0.1800 
     77 C          -6.0374  -24.1027  -46.0665 C.2       13 UNK         0.5000 
     78 O          -7.1392  -24.6093  -46.2832 O.2       13 UNK        -0.5000 
     79 N          -4.9229  -24.4286  -46.7346 N.am      14 UNK        -0.5000 
     80 CA         -4.8016  -25.5916  -47.6189 C.3       14 UNK         0.1400 
     81 CB         -3.5928  -26.4198  -47.1576 C.3       14 UNK        -0.1800 
     82 C          -4.6791  -25.2389  -49.1119 C.2       14 UNK         0.5000 
     83 O          -4.7515  -26.1492  -49.9395 O.2       14 UNK        -0.5000 
     84 N          -4.5113  -23.9520  -49.4503 N.am      15 UNK        -0.5000 
     85 CA         -4.4513  -23.4154  -50.8145 C.3       15 UNK         0.1400 
     86 CB         -5.8574  -23.4687  -51.4528 C.3       15 UNK        -0.1800 
     87 C          -3.3387  -24.0714  -51.6580 C.2       15 UNK         0.5000 
     88 O          -2.1731  -24.0457  -51.2548 O.2       15 UNK        -0.5000 
     89 N          -3.7070  -24.6598  -52.8033 N.am      16 UNK        -0.5000 
     90 CA         -2.8080  -25.3295  -53.7443 C.3       16 UNK         0.1400 
     91 CB         -3.6087  -25.7380  -54.9892 C.3       16 UNK        -0.1800 
     92 C          -2.0574  -26.5414  -53.1567 C.2       16 UNK         0.5000 
     93 O          -0.9898  -26.8835  -53.6652 O.2       16 UNK        -0.5000 
     94 N          -2.6006  -27.1547  -52.0936 N.am      17 UNK        -0.5000 
     95 CA         -1.9443  -28.2376  -51.3590 C.3       17 UNK         0.1400 
     96 CB         -2.9867  -29.0246  -50.5515 C.3       17 UNK        -0.1800 
     97 C          -0.7997  -27.7362  -50.4556 C.2       17 UNK         0.5000 
     98 O           0.1080  -28.5149  -50.1610 O.2       17 UNK        -0.5000 
     99 N          -0.8388  -26.4562  -50.0540 N.am      18 UNK        -0.5000 
    100 CA         0.2768  -25.7772  -49.3966 C.3       18 UNK         0.1400 
    101 CB        -0.2303  -24.6673  -48.4630 C.3       18 UNK        -0.1800 
    102 C          1.2556  -25.2267  -50.4430 C.2       18 UNK         0.5000 
    103 O          2.4393  -25.5633  -50.3883 O.2       18 UNK        -0.5000 
    104 N          0.7470  -24.4244  -51.3900 N.am      19 UNK        -0.5000 
    105 CA         1.5351  -23.8719  -52.4922 C.3       19 UNK         0.1400 
    106 CB         2.5554  -22.8301  -51.9898 C.3       19 UNK        -0.1800 
    107 C          0.6578  -23.2745  -53.5994 C.2       19 UNK         0.5000 
    108 O          0.8583  -23.6107  -54.7671 O.2       19 UNK        -0.5000 
    109 N         -0.2779  -22.3878  -53.2375 N.am      20 UNK        -0.5000 
    110 CA        -1.0874  -21.6217  -54.1838 C.3       20 UNK         0.1400 
    111 CB        -0.2636  -20.4540  -54.7600 C.3       20 UNK        -0.1800 
    112 C         -2.3483  -21.0896  -53.4956 C.2       20 UNK         0.5000 
    113 O         -2.3365  -20.8670  -52.2836 O.2       20 UNK        -0.5000 
    114 N         -3.4032  -20.8862  -54.2924 N.am      21 UNK        -0.5000 
    115 CA        -4.6919  -20.3523  -53.8481 C.3       21 UNK         0.1400 
    116 CB        -5.8049  -21.0869  -54.6149 C.3       21 UNK        -0.1800 
    117 C         -4.8219  -18.8351  -54.0880 C.2       21 UNK         0.5000 
    118 O         -5.5988  -18.1836  -53.3902 O.2       21 UNK        -0.5000 
    119 N         -4.0989  -18.3131  -55.0908 N.am      22 UNK        -0.5000 
    120 CA        -4.2021  -16.9387  -55.6273 C.3       22 UNK         0.1400 
    121 C         -5.5541  -16.6197  -56.3423 C.2       22 UNK         0.5000 
    122 N         -6.3469  -17.6095  -56.7353 N.am      22 UNK        -0.7600 
    123 O         -5.8815  -15.4596  -56.5786 O.2       22 UNK        -0.5000 
    124 C124       -3.7946  -15.8294  -54.6155 C.3       23 UNK        -0.0398 
    125 S125       -2.0847  -16.0220  -54.0138 S.3       23 UNK        -0.2404 
    126 C126       -2.3624  -16.1086  -52.2211 C.3       23 UNK        -0.0205 
    127 H127       -1.7925  -16.8585  -48.2995 H         1 UNK         0.0600 
    128 H128       -3.3234  -16.7408  -47.4289 H         1 UNK         0.0600 
    129 H129       -3.3000  -16.6637  -49.1943 H         1 UNK         0.0600 
    130 H130       -0.6184  -15.0156  -48.0334 H         1 UNK         0.3000 
    131 H131       -1.4469  -12.4477  -48.8453 H         1 UNK         0.0600 
    132 H132        0.7629  -11.7336  -47.7248 H         1 UNK         0.0800 
    133 H133        0.9923  -13.3841  -47.2337 H         1 UNK         0.0800 
    134 H134        2.7765  -14.8562  -50.0342 H         1 UNK         0.0800 
    135 H135        1.9764  -15.0844  -48.5051 H         1 UNK         0.0800 
    136 H136       -0.6037  -14.4584  -50.9706 H         1 UNK         0.1150 
    137 H137       -1.2892  -18.5591  -51.9119 H         1 UNK         0.1150 
    138 H138        2.1714  -17.4644  -49.6399 H         1 UNK         0.1150 
    139 H139        0.3892  -20.1855  -51.5247 H         1 UNK         0.0800 
    140 H140        1.9778  -19.6900  -51.0010 H         1 UNK         0.0800 
    141 H141       -1.1063  -19.0641  -48.2372 H         1 UNK         0.0800 
    142 H142       -1.6197  -19.8230  -49.7290 H         1 UNK         0.0800 
    143 H143       -1.8345  -22.0038  -48.6063 H         1 UNK         0.0600 
    144 H144       -0.4178  -20.8491  -46.4396 H         1 UNK         0.3000 
    145 H145       -1.4672  -23.2145  -43.9332 H         1 UNK         0.0600 
    146 H146        1.0174  -23.3304  -43.7396 H         1 UNK         0.0600 
    147 H147        0.4285  -24.2431  -45.1218 H         1 UNK         0.0600 
    148 H148        1.1869  -22.6792  -45.3674 H         1 UNK         0.0600 
    149 H149        0.1960  -20.8654  -43.8692 H         1 UNK         0.3000 
    150 H150       -2.4210  -18.5951  -42.9427 H         1 UNK         0.0600 
    151 H151       -1.7523  -19.7314  -40.8160 H         1 UNK         0.0600 
    152 H152       -0.8994  -18.2096  -41.0291 H         1 UNK         0.0600 
    153 H153       -0.0711  -19.7338  -41.3376 H         1 UNK         0.0600 
    154 H154        0.3703  -18.1901  -43.2325 H         1 UNK         0.3000 
    155 H155        0.4216  -17.6296  -46.7704 H         1 UNK         0.0600 
    156 H156       -0.3053  -15.4696  -45.7369 H         1 UNK         0.0600 
    157 H157        0.7852  -15.7373  -44.3929 H         1 UNK         0.0600 
    158 H158        1.4326  -15.4973  -46.0138 H         1 UNK         0.0600 
    159 H159        2.4997  -17.5093  -44.8519 H         1 UNK         0.3000 
    160 H160        3.4933  -20.9587  -45.0335 H         1 UNK         0.0600 
    161 H161        4.4344  -19.7010  -46.9800 H         1 UNK         0.0600 
    162 H162        4.6939  -18.2905  -45.9605 H         1 UNK         0.0600 
    163 H163        5.5816  -19.7826  -45.6524 H         1 UNK         0.0600 
    164 H164        4.4639  -18.7064  -43.5336 H         1 UNK         0.3000 
    165 H165        2.5675  -19.2821  -40.5799 H         1 UNK         0.0600 
    166 H166        5.5529  -19.6499  -41.1807 H         1 UNK         0.0600 
    167 H167        4.8406  -19.3407  -39.5968 H         1 UNK         0.0600 
    168 H168        4.5086  -20.8507  -40.4298 H         1 UNK         0.0600 
    169 H169        4.5653  -17.3554  -41.1868 H         1 UNK         0.3000 
    170 H170        3.6788  -15.0486  -41.1728 H         1 UNK         0.0600 
    171 H171        4.8655  -15.8991  -43.2729 H         1 UNK         0.0600 
    172 H172        3.4279  -15.5297  -44.2174 H         1 UNK         0.0600 
    173 H173        4.3496  -14.2385  -43.4560 H         1 UNK         0.0600 
    174 H174        1.0698  -15.2150  -42.1205 H         1 UNK         0.3000 
    175 H175       -0.2600  -13.6102  -43.0118 H         1 UNK         0.0600 
    176 H176       -1.4363  -12.3781  -41.1738 H         1 UNK         0.0600 
    177 H177       -0.4186  -13.6718  -40.5615 H         1 UNK         0.0600 
    178 H178        0.1185  -12.0067  -40.4281 H         1 UNK         0.0600 
    179 H179       -0.3223  -11.7870  -44.1610 H         1 UNK         0.3000 
    180 H180       -0.1887   -8.3931  -43.5381 H         1 UNK         0.0600 
    181 H181        1.2721   -8.1461  -45.5351 H         1 UNK         0.0600 
    182 H182        2.2276   -8.6085  -44.1362 H         1 UNK         0.0600 
    183 H183        1.8338   -9.8099  -45.3591 H         1 UNK         0.0600 
    184 H184       -0.5531   -9.9215  -45.9422 H         1 UNK         0.3000 
    185 H185       -3.7449  -11.1570  -45.3621 H         1 UNK         0.0600 
    186 H186       -4.5964   -9.7536  -47.2195 H         1 UNK         0.0600 
    187 H187       -4.4700   -8.7947  -45.7548 H         1 UNK         0.0600 
    188 H188       -3.2572   -8.6225  -47.0177 H         1 UNK         0.0600 
    189 H189       -2.4429  -10.8299  -47.8234 H         1 UNK         0.3000 
    190 H190       -2.9160  -19.5632  -46.1843 H         1 UNK         0.3000 
    191 H191       -5.4986  -19.1460  -47.2635 H         1 UNK         0.0600 
    192 H192       -6.0342  -18.2899  -44.9835 H         1 UNK         0.0600 
    193 H193       -4.4780  -17.6869  -45.5298 H         1 UNK         0.0600 
    194 H194       -4.5518  -18.9944  -44.3525 H         1 UNK         0.0600 
    195 H195       -4.2786  -21.7153  -45.1280 H         1 UNK         0.3000 
    196 H196       -6.8966  -22.8380  -44.5674 H         1 UNK         0.0600 
    197 H197       -5.5581  -24.5898  -43.4017 H         1 UNK         0.0600 
    198 H198       -5.0788  -22.9718  -42.9110 H         1 UNK         0.0600 
    199 H199       -4.0712  -23.8870  -44.0274 H         1 UNK         0.0600 
    200 H200       -4.0509  -23.9519  -46.5046 H         1 UNK         0.3000 
    201 H201       -5.6839  -26.2280  -47.5263 H         1 UNK         0.0600 
    202 H202       -3.6965  -26.7207  -46.1150 H         1 UNK         0.0600 
    203 H203       -2.6674  -25.8559  -47.2505 H         1 UNK         0.0600 
    204 H204       -3.4846  -27.3301  -47.7462 H         1 UNK         0.0600 
    205 H205       -4.4477  -23.2566  -48.7166 H         1 UNK         0.3000 
    206 H206       -4.1685  -22.3666  -50.7471 H         1 UNK         0.0600 
    207 H207       -6.5801  -22.9348  -50.8354 H         1 UNK         0.0600 
    208 H208       -5.8678  -22.9918  -52.4303 H         1 UNK         0.0600 
    209 H209       -6.2208  -24.4899  -51.5730 H         1 UNK         0.0600 
    210 H210       -4.6879  -24.6655  -53.0414 H         1 UNK         0.3000 
    211 H211       -2.0538  -24.6038  -54.0515 H         1 UNK         0.0600 
    212 H212       -4.4014  -26.4454  -54.7425 H         1 UNK         0.0600 
    213 H213       -2.9642  -26.2122  -55.7306 H         1 UNK         0.0600 
    214 H214       -4.0665  -24.8712  -55.4664 H         1 UNK         0.0600 
    215 H215       -3.4697  -26.8046  -51.7081 H         1 UNK         0.3000 
    216 H216       -1.5052  -28.9263  -52.0842 H         1 UNK         0.0600 
    217 H217       -2.5256  -29.8706  -50.0405 H         1 UNK         0.0600 
    218 H218       -3.7684  -29.4226  -51.1985 H         1 UNK         0.0600 
    219 H219       -3.4631  -28.4069  -49.7929 H         1 UNK         0.0600 
    220 H220       -1.5912  -25.8643  -50.3842 H         1 UNK         0.3000 
    221 H221        0.8283  -26.4888  -48.7781 H         1 UNK         0.0600 
    222 H222       -1.0382  -24.0941  -48.9127 H         1 UNK         0.0600 
    223 H223       -0.5959  -25.0864  -47.5276 H         1 UNK         0.0600 
    224 H224        0.5648  -23.9669  -48.2022 H         1 UNK         0.0600 
    225 H225       -0.2509  -24.2273  -51.3908 H         1 UNK         0.3000 
    226 H226        2.0899  -24.6944  -52.9493 H         1 UNK         0.0600 
    227 H227        3.3655  -23.2992  -51.4322 H         1 UNK         0.0600 
    228 H228        3.0130  -22.2881  -52.8185 H         1 UNK         0.0600 
    229 H229        2.0857  -22.0996  -51.3344 H         1 UNK         0.0600 
    230 H230       -0.4591  -22.1880  -52.2619 H         1 UNK         0.3000 
    231 H231       -1.3994  -22.2802  -54.9975 H         1 UNK         0.0600 
    232 H232       -0.8550  -19.8601  -55.4578 H         1 UNK         0.0600 
    233 H233        0.6101  -20.8119  -55.3046 H         1 UNK         0.0600 
    234 H234        0.0851  -19.7822  -53.9747 H         1 UNK         0.0600 
    235 H235       -3.3277  -21.1173  -55.2726 H         1 UNK         0.3000 
    236 H236       -4.8267  -20.5406  -52.7806 H         1 UNK         0.0600 
    237 H237       -5.7952  -20.8401  -55.6772 H         1 UNK         0.0600 
    238 H238       -5.7024  -22.1685  -54.5346 H         1 UNK         0.0600 
    239 H239       -6.7880  -20.8201  -54.2249 H         1 UNK         0.0600 
    240 H240       -3.4743  -18.9231  -55.5949 H         1 UNK         0.3000 
    241 H241       -3.4713  -16.9014  -56.4358 H         1 UNK         0.0600 
    242 H242       -7.2115  -17.3921  -57.2061 H         1 UNK         0.3800 
    243 H243       -6.0927  -18.5699  -56.5744 H         1 UNK         0.3800 
    244 H244       -4.4929  -15.7971  -53.7785 H         1 UNK         0.0800 
    245 H245       -3.8481  -14.8456  -55.0843 H         1 UNK         0.0800 
    246 H246       -2.7496  -15.1533  -51.8631 H         1 UNK         0.0800 
    247 H247       -3.1270  -16.8569  -52.0048 H         1 UNK         0.0800 
@<TRIPOS>BOND
     1    1    2 1    
     2    1  127 1    
     3    1  128 1    
     4    1  129 1    
     5    2    3 2    
     6    2    4 am   BACKBONE|DICT|INTERRES
     7    4    5 1    
     8    4  130 1    
     9    5    6 1    
    10    5   65 1    
    11    5  131 1    
    12    6    7 1    
    13    6  132 1    
    14    6  133 1    
    15    7    8 1    
    16    8    9 1    
    17    8  134 1    
    18    8  135 1    
    19    9   10 ar   
    20    9   14 ar   
    21   10   11 ar   
    22   10  136 1    
    23   11   12 ar   
    24   11  126 1    
    25   12   13 ar   
    26   12  137 1    
    27   13   14 ar   
    28   13   15 1    
    29   14  138 1    
    30   15   16 1    
    31   15  139 1    
    32   15  140 1    
    33   16   17 1    
    34   17   18 1    
    35   17  141 1    
    36   17  142 1    
    37   18   19 1    
    38   18   67 1    
    39   18  143 1    
    40   19   20 am   BACKBONE|DICT|INTERRES
    41   19  144 1    
    42   20   21 2    
    43   20   22 1    
    44   22   23 1    
    45   22   24 1    
    46   22  145 1    
    47   23  146 1    
    48   23  147 1    
    49   23  148 1    
    50   24   25 am   BACKBONE|DICT|INTERRES
    51   24  149 1    
    52   25   26 2    
    53   25   27 1    
    54   27   28 1    
    55   27   29 1    
    56   27  150 1    
    57   28  151 1    
    58   28  152 1    
    59   28  153 1    
    60   29   30 am   BACKBONE|DICT|INTERRES
    61   29  154 1    
    62   30   31 2    
    63   30   32 1    
    64   32   33 1    
    65   32   34 1    
    66   32  155 1    
    67   33  156 1    
    68   33  157 1    
    69   33  158 1    
    70   34   35 am   BACKBONE|DICT|INTERRES
    71   34  159 1    
    72   35   36 2    
    73   35   37 1    
    74   37   38 1    
    75   37   39 1    
    76   37  160 1    
    77   38  161 1    
    78   38  162 1    
    79   38  163 1    
    80   39   40 am   BACKBONE|DICT|INTERRES
    81   39  164 1    
    82   40   41 2    
    83   40   42 1    
    84   42   43 1    
    85   42   44 1    
    86   42  165 1    
    87   43  166 1    
    88   43  167 1    
    89   43  168 1    
    90   44   45 am   BACKBONE|DICT|INTERRES
    91   44  169 1    
    92   45   46 2    
    93   45   47 1    
    94   47   48 1    
    95   47   49 1    
    96   47  170 1    
    97   48  171 1    
    98   48  172 1    
    99   48  173 1    
   100   49   50 am   BACKBONE|DICT|INTERRES
   101   49  174 1    
   102   50   51 2    
   103   50   52 1    
   104   52   53 1    
   105   52   54 1    
   106   52  175 1    
   107   53  176 1    
   108   53  177 1    
   109   53  178 1    
   110   54   55 am   BACKBONE|DICT|INTERRES
   111   54  179 1    
   112   55   56 2    
   113   55   57 1    
   114   57   58 1    
   115   57   59 1    
   116   57  180 1    
   117   58  181 1    
   118   58  182 1    
   119   58  183 1    
   120   59   60 am   BACKBONE|DICT|INTERRES
   121   59  184 1    
   122   60   61 2    
   123   60   62 1    
   124   62   63 1    
   125   62   64 1    
   126   62  185 1    
   127   63  186 1    
   128   63  187 1    
   129   63  188 1    
   130   64   65 am   BACKBONE|DICT|INTERRES
   131   64  189 1    
   132   65   66 2    
   133   67   68 2    
   134   67   69 am   BACKBONE|DICT|INTERRES
   135   69   70 1    
   136   69  190 1    
   137   70   71 1    
   138   70   72 1    
   139   70  191 1    
   140   71  192 1    
   141   71  193 1    
   142   71  194 1    
   143   72   73 2    
   144   72   74 am   BACKBONE|DICT|INTERRES
   145   74   75 1    
   146   74  195 1    
   147   75   76 1    
   148   75   77 1    
   149   75  196 1    
   150   76  197 1    
   151   76  198 1    
   152   76  199 1    
   153   77   78 2    
   154   77   79 am   BACKBONE|DICT|INTERRES
   155   79   80 1    
   156   79  200 1    
   157   80   81 1    
   158   80   82 1    
   159   80  201 1    
   160   81  202 1    
   161   81  203 1    
   162   81  204 1    
   163   82   83 2    
   164   82   84 am   BACKBONE|DICT|INTERRES
   165   84   85 1    
   166   84  205 1    
   167   85   86 1    
   168   85   87 1    
   169   85  206 1    
   170   86  207 1    
   171   86  208 1    
   172   86  209 1    
   173   87   88 2    
   174   87   89 am   BACKBONE|DICT|INTERRES
   175   89   90 1    
   176   89  210 1    
   177   90   91 1    
   178   90   92 1    
   179   90  211 1    
   180   91  212 1    
   181   91  213 1    
   182   91  214 1    
   183   92   93 2    
   184   92   94 am   BACKBONE|DICT|INTERRES
   185   94   95 1    
   186   94  215 1    
   187   95   96 1    
   188   95   97 1    
   189   95  216 1    
   190   96  217 1    
   191   96  218 1    
   192   96  219 1    
   193   97   98 2    
   194   97   99 am   BACKBONE|DICT|INTERRES
   195   99  100 1    
   196   99  220 1    
   197  100  101 1    
   198  100  102 1    
   199  100  221 1    
   200  101  222 1    
   201  101  223 1    
   202  101  224 1    
   203  102  103 2    
   204  102  104 am   BACKBONE|DICT|INTERRES
   205  104  105 1    
   206  104  225 1    
   207  105  106 1    
   208  105  107 1    
   209  105  226 1    
   210  106  227 1    
   211  106  228 1    
   212  106  229 1    
   213  107  108 2    
   214  107  109 am   BACKBONE|DICT|INTERRES
   215  109  110 1    
   216  109  230 1    
   217  110  111 1    
   218  110  112 1    
   219  110  231 1    
   220  111  232 1    
   221  111  233 1    
   222  111  234 1    
   223  112  113 2    
   224  112  114 am   BACKBONE|DICT|INTERRES
   225  114  115 1    
   226  114  235 1    
   227  115  116 1    
   228  115  117 1    
   229  115  236 1    
   230  116  237 1    
   231  116  238 1    
   232  116  239 1    
   233  117  118 2    
   234  117  119 am   BACKBONE|DICT|INTERRES
   235  119  120 1    
   236  119  240 1    
   237  120  121 1    
   238  120  124 1    
   239  120  241 1    
   240  121  122 am   BACKBONE|DICT|INTERRES
   241  121  123 2    
   242  122  242 1    
   243  122  243 1    
   244  124  125 1    
   245  124  244 1    
   246  124  245 1    
   247  125  126 1    
   248  126  246 1    
   249  126  247 1    
@<TRIPOS>SUBSTRUCTURE
     1 UNK         1 GROUP             0       ****    0 ROOT    
