@<TRIPOS>MOLECULE
3R540
247   249    1
SMALL
USER_CHARGES


@<TRIPOS>ATOM
      1 CA         -0.9838  -12.5804  -46.5115 C.3       0 UNK        -0.1800 
      2 C           0.3533  -12.8809  -47.1726 C.2       0 UNK         0.5000 
      3 O           0.8888  -12.0358  -47.8906 O.2       0 UNK        -0.5000 
      4 N           0.9039  -14.0737  -46.9217 N.am      1 UNK        -0.5000 
      5 CA          2.1986  -14.5244  -47.4309 C.3       1 UNK         0.1400 
      6 C6          2.3186  -16.0653  -47.3774 C.3       23 UNK        -0.0398 
      7 S7          3.6643  -16.7064  -48.4269 S.3       23 UNK        -0.2404 
      8 C8          2.8735  -16.7622  -50.0690 C.3       23 UNK        -0.0205 
      9 C9          1.7698  -17.8064  -50.1576 C.ar      23 UNK        -0.0193 
     10 C10         0.4290  -17.4174  -50.2389 C.ar      23 UNK        -0.1150 
     11 C11        -0.5808  -18.3762  -50.3643 C.ar      23 UNK        -0.0193 
     12 C12        -0.2416  -19.7326  -50.3844 C.ar      23 UNK        -0.1150 
     13 C13         1.0922  -20.1351  -50.2869 C.ar      23 UNK        -0.0193 
     14 C14         2.0945  -19.1648  -50.1917 C.ar      23 UNK        -0.1150 
     15 C15         1.4396  -21.6183  -50.2840 C.3       23 UNK        -0.0205 
     16 S16         2.4997  -22.0956  -48.8786 S.3       23 UNK        -0.2404 
     17 C17         1.5043  -21.5500  -47.4464 C.3       23 UNK        -0.0398 
     18 CA          0.8679  -22.7241  -46.6719 C.3       11 UNK         0.1400 
     19 N           0.4852  -22.3363  -45.3135 N.am      11 UNK        -0.5000 
     20 C           0.1269  -23.1957  -44.3499 C.2       10 UNK         0.5000 
     21 O           0.1071  -24.4175  -44.4981 O.2       10 UNK        -0.5000 
     22 CA         -0.3140  -22.5875  -43.0068 C.3       10 UNK         0.1400 
     23 CB          0.9050  -22.1776  -42.1668 C.3       10 UNK        -0.1800 
     24 N          -1.2034  -21.4391  -43.1820 N.am      10 UNK        -0.5000 
     25 C          -2.4386  -21.5137  -43.6981 C.2       9 UNK         0.5000 
     26 O          -2.9836  -22.5721  -44.0132 O.2       9 UNK        -0.5000 
     27 CA         -3.1806  -20.1833  -43.9307 C.3       9 UNK         0.1400 
     28 CB         -3.8543  -19.7040  -42.6364 C.3       9 UNK        -0.1800 
     29 N          -2.3226  -19.1197  -44.4581 N.am      9 UNK        -0.5000 
     30 C          -1.6703  -19.1756  -45.6285 C.2       8 UNK         0.5000 
     31 O          -1.7127  -20.1394  -46.3894 O.2       8 UNK        -0.5000 
     32 CA         -0.7597  -17.9851  -45.9752 C.3       8 UNK         0.1400 
     33 CB         -1.5821  -16.7610  -46.4061 C.3       8 UNK        -0.1800 
     34 N           0.1288  -17.6312  -44.8666 N.am      8 UNK        -0.5000 
     35 C           1.0486  -18.4590  -44.3474 C.2       7 UNK         0.5000 
     36 O           1.3019  -19.5750  -44.7989 O.2       7 UNK        -0.5000 
     37 CA          1.7632  -17.9853  -43.0726 C.3       7 UNK         0.1400 
     38 CB          2.9271  -17.0461  -43.4149 C.3       7 UNK        -0.1800 
     39 N           0.8414  -17.3255  -42.1476 N.am      7 UNK        -0.5000 
     40 C          -0.1243  -17.9642  -41.4700 C.2       6 UNK         0.5000 
     41 O          -0.3151  -19.1778  -41.5341 O.2       6 UNK        -0.5000 
     42 CA         -1.0597  -17.0975  -40.6080 C.3       6 UNK         0.1400 
     43 CB         -0.4396  -16.8421  -39.2264 C.3       6 UNK        -0.1800 
     44 N          -1.3824  -15.8177  -41.2388 N.am      6 UNK        -0.5000 
     45 C          -2.0828  -15.6837  -42.3741 C.2       5 UNK         0.5000 
     46 O          -2.5695  -16.6297  -42.9920 O.2       5 UNK        -0.5000 
     47 CA         -2.2147  -14.2571  -42.9392 C.3       5 UNK         0.1400 
     48 CB         -3.4648  -13.5650  -42.3777 C.3       5 UNK        -0.1800 
     49 N          -1.0359  -13.4287  -42.6683 N.am      5 UNK        -0.5000 
     50 C           0.1837  -13.6628  -43.1686 C.2       4 UNK         0.5000 
     51 O           0.4288  -14.5768  -43.9615 O.2       4 UNK        -0.5000 
     52 CA          1.3072  -12.7357  -42.6815 C.3       4 UNK         0.1400 
     53 CB          2.4786  -13.5348  -42.0902 C.3       4 UNK        -0.1800 
     54 N           1.7859  -11.9160  -43.7906 N.am      4 UNK        -0.5000 
     55 C           1.4198  -10.6431  -44.0023 C.2       3 UNK         0.5000 
     56 O           0.6500  -10.0366  -43.2557 O.2       3 UNK        -0.5000 
     57 CA          1.9507   -9.9203  -45.2611 C.3       3 UNK         0.1400 
     58 CB          2.4484   -8.4926  -44.9528 C.3       3 UNK        -0.1800 
     59 N           2.9381  -10.6802  -46.0345 N.am      3 UNK        -0.5000 
     60 C           4.2078  -10.9778  -45.7133 C.2       2 UNK         0.5000 
     61 O           4.7737  -10.5804  -44.6942 O.2       2 UNK        -0.5000 
     62 CA          4.9434  -11.9165  -46.7006 C.3       2 UNK         0.1400 
     63 CB          6.1785  -12.6019  -46.0789 C.3       2 UNK        -0.1800 
     64 N           4.0386  -12.9076  -47.3023 N.am      2 UNK        -0.5000 
     65 C           3.2996  -13.8052  -46.6332 C.2       1 UNK         0.5000 
     66 O           3.3855  -13.9963  -45.4203 O.2       1 UNK        -0.5000 
     67 C          -0.3078  -23.3559  -47.4442 C.2       11 UNK         0.5000 
     68 O          -0.1097  -24.3759  -48.1002 O.2       11 UNK        -0.5000 
     69 N          -1.5162  -22.7921  -47.3065 N.am      12 UNK        -0.5000 
     70 CA         -2.7585  -23.2619  -47.9315 C.3       12 UNK         0.1400 
     71 CB         -3.8960  -22.2942  -47.5729 C.3       12 UNK        -0.1800 
     72 C          -3.1634  -24.7061  -47.5663 C.2       12 UNK         0.5000 
     73 O          -3.9317  -25.3238  -48.3042 O.2       12 UNK        -0.5000 
     74 N          -2.6513  -25.2230  -46.4415 N.am      13 UNK        -0.5000 
     75 CA         -2.8449  -26.6048  -46.0064 C.3       13 UNK         0.1400 
     76 CB         -2.6468  -26.6754  -44.4843 C.3       13 UNK        -0.1800 
     77 C          -1.9087  -27.6029  -46.7201 C.2       13 UNK         0.5000 
     78 O          -2.1922  -28.8015  -46.6923 O.2       13 UNK        -0.5000 
     79 N          -0.8132  -27.1151  -47.3198 N.am      14 UNK        -0.5000 
     80 CA          0.2322  -27.9285  -47.9457 C.3       14 UNK         0.1400 
     81 CB          1.5731  -27.6081  -47.2653 C.3       14 UNK        -0.1800 
     82 C           0.3408  -27.6907  -49.4619 C.2       14 UNK         0.5000 
     83 O           0.6302  -28.6330  -50.2008 O.2       14 UNK        -0.5000 
     84 N           0.1248  -26.4473  -49.8995 N.am      15 UNK        -0.5000 
     85 CA          0.2469  -25.9832  -51.2767 C.3       15 UNK         0.1400 
     86 CB          1.6940  -25.5071  -51.5232 C.3       15 UNK        -0.1800 
     87 C          -0.8124  -24.8977  -51.5461 C.2       15 UNK         0.5000 
     88 O          -1.8594  -24.8886  -50.8976 O.2       15 UNK        -0.5000 
     89 N          -0.5418  -24.0109  -52.5076 N.am      16 UNK        -0.5000 
     90 CA         -1.4079  -22.9156  -52.9282 C.3       16 UNK         0.1400 
     91 CB         -2.5202  -23.4586  -53.8469 C.3       16 UNK        -0.1800 
     92 C          -0.5599  -21.8759  -53.6717 C.2       16 UNK         0.5000 
     93 O           0.5440  -22.2004  -54.1199 O.2       16 UNK        -0.5000 
     94 N          -1.1058  -20.6655  -53.8230 N.am      17 UNK        -0.5000 
     95 CA         -0.5252  -19.6073  -54.6521 C.3       17 UNK         0.1400 
     96 CB          0.4206  -18.7238  -53.8229 C.3       17 UNK        -0.1800 
     97 C          -1.6085  -18.7614  -55.3371 C.2       17 UNK         0.5000 
     98 O          -1.4300  -18.3901  -56.4978 O.2       17 UNK        -0.5000 
     99 N          -2.7099  -18.4764  -54.6276 N.am      18 UNK        -0.5000 
    100 CA        -3.8300  -17.6793  -55.1400 C.3       18 UNK         0.1400 
    101 CB        -4.3261  -16.7493  -54.0228 C.3       18 UNK        -0.1800 
    102 C         -4.9906  -18.5537  -55.6507 C.2       18 UNK         0.5000 
    103 O         -5.8663  -18.0348  -56.3445 O.2       18 UNK        -0.5000 
    104 N         -4.9779  -19.8453  -55.2862 N.am      19 UNK        -0.5000 
    105 CA        -6.0372  -20.8450  -55.4605 C.3       19 UNK         0.1400 
    106 CB        -6.4320  -21.0079  -56.9446 C.3       19 UNK        -0.1800 
    107 C         -7.2495  -20.5757  -54.5425 C.2       19 UNK         0.5000 
    108 O         -7.2267  -19.6429  -53.7332 O.2       19 UNK        -0.5000 
    109 N         -8.2695  -21.4401  -54.6469 N.am      20 UNK        -0.5000 
    110 CA        -9.4974  -21.4540  -53.8449 C.3       20 UNK         0.1400 
    111 CB       -10.4006  -20.2561  -54.2174 C.3       20 UNK        -0.1800 
    112 C         -9.1864  -21.5657  -52.3369 C.2       20 UNK         0.5000 
    113 O         -8.7578  -22.6303  -51.8888 O.2       20 UNK        -0.5000 
    114 N         -9.3748  -20.4687  -51.5923 N.am      21 UNK        -0.5000 
    115 CA        -9.0887  -20.3540  -50.1613 C.3       21 UNK         0.1400 
    116 CB        -9.7561  -19.0756  -49.6300 C.3       21 UNK        -0.1800 
    117 C         -7.5850  -20.3605  -49.8121 C.2       21 UNK         0.5000 
    118 O         -7.2482  -20.5803  -48.6482 O.2       21 UNK        -0.5000 
    119 N         -6.7131  -20.1197  -50.7993 N.am      22 UNK        -0.5000 
    120 CA        -5.2528  -20.1027  -50.6482 C.3       22 UNK         0.1400 
    121 C         -4.5617  -20.7896  -51.8580 C.2       22 UNK         0.5000 
    122 N         -5.0185  -21.9779  -52.2331 N.am      22 UNK        -0.7600 
    123 O         -3.6371  -20.2648  -52.4794 O.2       22 UNK        -0.5000 
    124 C124       -4.7287  -18.6889  -50.2824 C.3       23 UNK        -0.0398 
    125 S125       -3.1520  -18.7412  -49.3695 S.3       23 UNK        -0.2404 
    126 C126       -2.0275  -17.9484  -50.5592 C.3       23 UNK        -0.0205 
    127 H127       -1.4169  -13.4732  -46.0615 H         1 UNK         0.0600 
    128 H128       -1.6900  -12.1987  -47.2486 H         1 UNK         0.0600 
    129 H129       -0.8618  -11.8285  -45.7325 H         1 UNK         0.0600 
    130 H130        0.4983  -14.6494  -46.1949 H         1 UNK         0.3000 
    131 H131        2.2616  -14.2182  -48.4772 H         1 UNK         0.0600 
    132 H132        2.4748  -16.4134  -46.3558 H         1 UNK         0.0800 
    133 H133        1.3861  -16.5255  -47.7018 H         1 UNK         0.0800 
    134 H134        2.4923  -15.7732  -50.3263 H         1 UNK         0.0800 
    135 H135        3.6362  -16.9925  -50.8142 H         1 UNK         0.0800 
    136 H136        0.1744  -16.3669  -50.2328 H         1 UNK         0.1150 
    137 H137       -1.0226  -20.4733  -50.4830 H         1 UNK         0.1150 
    138 H138        3.1303  -19.4674  -50.1287 H         1 UNK         0.1150 
    139 H139        0.5352  -22.2282  -50.2590 H         1 UNK         0.0800 
    140 H140        1.9511  -21.8625  -51.2159 H         1 UNK         0.0800 
    141 H141        2.1947  -21.0148  -46.7941 H         1 UNK         0.0800 
    142 H142        0.7496  -20.8168  -47.7343 H         1 UNK         0.0800 
    143 H143        1.6306  -23.4987  -46.5632 H         1 UNK         0.0600 
    144 H144        0.5092  -21.3423  -45.1042 H         1 UNK         0.3000 
    145 H145       -0.8606  -23.3564  -42.4569 H         1 UNK         0.0600 
    146 H146        0.6024  -21.8269  -41.1800 H         1 UNK         0.0600 
    147 H147        1.5798  -23.0216  -42.0192 H         1 UNK         0.0600 
    148 H148        1.4746  -21.3800  -42.6444 H         1 UNK         0.0600 
    149 H149       -0.8481  -20.5367  -42.8817 H         1 UNK         0.3000 
    150 H150       -3.9616  -20.3686  -44.6709 H         1 UNK         0.0600 
    151 H151       -4.5207  -20.4688  -42.2358 H         1 UNK         0.0600 
    152 H152       -4.4527  -18.8097  -42.8114 H         1 UNK         0.0600 
    153 H153       -3.1206  -19.4694  -41.8648 H         1 UNK         0.0600 
    154 H154       -2.2565  -18.2727  -43.8996 H         1 UNK         0.3000 
    155 H155       -0.1398  -18.2888  -46.8219 H         1 UNK         0.0600 
    156 H156       -0.9494  -15.9984  -46.8527 H         1 UNK         0.0600 
    157 H157       -2.1164  -16.3111  -45.5708 H         1 UNK         0.0600 
    158 H158       -2.3251  -17.0315  -47.1555 H         1 UNK         0.0600 
    159 H159       -0.0124  -16.7307  -44.4265 H         1 UNK         0.3000 
    160 H160        2.1755  -18.8645  -42.5729 H         1 UNK         0.0600 
    161 H161        2.5832  -16.1568  -43.9411 H         1 UNK         0.0600 
    162 H162        3.6526  -17.5440  -44.0593 H         1 UNK         0.0600 
    163 H163        3.4551  -16.7243  -42.5173 H         1 UNK         0.0600 
    164 H164        0.9046  -16.3211  -42.0802 H         1 UNK         0.3000 
    165 H165       -1.9911  -17.6501  -40.4682 H         1 UNK         0.0600 
    166 H166        0.4850  -16.2678  -39.2979 H         1 UNK         0.0600 
    167 H167       -1.1266  -16.2943  -38.5810 H         1 UNK         0.0600 
    168 H168       -0.2045  -17.7820  -38.7251 H         1 UNK         0.0600 
    169 H169       -1.0253  -14.9859  -40.7929 H         1 UNK         0.3000 
    170 H170       -2.3305  -14.3417  -44.0209 H         1 UNK         0.0600 
    171 H171       -4.3610  -14.1521  -42.5834 H         1 UNK         0.0600 
    172 H172       -3.4012  -13.4301  -41.2973 H         1 UNK         0.0600 
    173 H173       -3.6094  -12.5843  -42.8315 H         1 UNK         0.0600 
    174 H174       -1.1688  -12.6459  -42.0438 H         1 UNK         0.3000 
    175 H175        0.9178  -12.1050  -41.8796 H         1 UNK         0.0600 
    176 H176        3.2256  -12.8681  -41.6594 H         1 UNK         0.0600 
    177 H177        2.1409  -14.2017  -41.2961 H         1 UNK         0.0600 
    178 H178        2.9786  -14.1428  -42.8419 H         1 UNK         0.0600 
    179 H179        2.3910  -12.3870  -44.4539 H         1 UNK         0.3000 
    180 H180        1.0880   -9.8206  -45.9212 H         1 UNK         0.0600 
    181 H181        2.8144   -7.9983  -45.8526 H         1 UNK         0.0600 
    182 H182        1.6426   -7.8766  -44.5521 H         1 UNK         0.0600 
    183 H183        3.2518   -8.4906  -44.2160 H         1 UNK         0.0600 
    184 H184        2.5669  -11.0908  -46.8842 H         1 UNK         0.3000 
    185 H185        5.2942  -11.2832  -47.5166 H         1 UNK         0.0600 
    186 H186        6.6669  -13.2604  -46.7971 H         1 UNK         0.0600 
    187 H187        6.9163  -11.8636  -45.7627 H         1 UNK         0.0600 
    188 H188        5.9172  -13.1962  -45.2029 H         1 UNK         0.0600 
    189 H189        3.8800  -12.8007  -48.2950 H         1 UNK         0.3000 
    190 H190       -1.5861  -21.9191  -46.7859 H         1 UNK         0.3000 
    191 H191       -2.6115  -23.2239  -49.0117 H         1 UNK         0.0600 
    192 H192       -4.8250  -22.5766  -48.0698 H         1 UNK         0.0600 
    193 H193       -3.6604  -21.2763  -47.8793 H         1 UNK         0.0600 
    194 H194       -4.0885  -22.2819  -46.5001 H         1 UNK         0.0600 
    195 H195       -2.0421  -24.6468  -45.8762 H         1 UNK         0.3000 
    196 H196       -3.8726  -26.9029  -46.2244 H         1 UNK         0.0600 
    197 H197       -2.8649  -27.6759  -44.1087 H         1 UNK         0.0600 
    198 H198       -3.3092  -25.9816  -43.9660 H         1 UNK         0.0600 
    199 H199       -1.6218  -26.4366  -44.1998 H         1 UNK         0.0600 
    200 H200       -0.6741  -26.1105  -47.3430 H         1 UNK         0.3000 
    201 H201        0.0307  -28.9917  -47.8010 H         1 UNK         0.0600 
    202 H202        1.5388  -27.8406  -46.2009 H         1 UNK         0.0600 
    203 H203        1.8349  -26.5540  -47.3686 H         1 UNK         0.0600 
    204 H204        2.3839  -28.1936  -47.7007 H         1 UNK         0.0600 
    205 H205       -0.1185  -25.7172  -49.2311 H         1 UNK         0.3000 
    206 H206        0.0259  -26.8068  -51.9583 H         1 UNK         0.0600 
    207 H207        2.4119  -26.2892  -51.2756 H         1 UNK         0.0600 
    208 H208        1.8609  -25.2466  -52.5686 H         1 UNK         0.0600 
    209 H209        1.9355  -24.6337  -50.9160 H         1 UNK         0.0600 
    210 H210        0.3482  -24.0351  -52.9903 H         1 UNK         0.3000 
    211 H211       -1.8453  -22.4399  -52.0477 H         1 UNK         0.0600 
    212 H212       -2.1030  -24.0033  -54.6948 H         1 UNK         0.0600 
    213 H213       -3.1317  -22.6526  -54.2527 H         1 UNK         0.0600 
    214 H214       -3.1816  -24.1387  -53.3100 H         1 UNK         0.0600 
    215 H215       -2.0150  -20.4857  -53.4063 H         1 UNK         0.3000 
    216 H216        0.0585  -20.0667  -55.4531 H         1 UNK         0.0600 
    217 H217       -0.1229  -18.1522  -53.0724 H         1 UNK         0.0600 
    218 H218        0.9414  -18.0084  -54.4601 H         1 UNK         0.0600 
    219 H219        1.1786  -19.3176  -53.3121 H         1 UNK         0.0600 
    220 H220       -2.8132  -18.8361  -53.6867 H         1 UNK         0.3000 
    221 H221       -3.4972  -17.0528  -55.9702 H         1 UNK         0.0600 
    222 H222       -4.8232  -17.3094  -53.2328 H         1 UNK         0.0600 
    223 H223       -3.5077  -16.1824  -53.5786 H         1 UNK         0.0600 
    224 H224       -5.0486  -16.0305  -54.4108 H         1 UNK         0.0600 
    225 H225       -4.2366  -20.1218  -54.6586 H         1 UNK         0.3000 
    226 H226       -5.6047  -21.7900  -55.1303 H         1 UNK         0.0600 
    227 H227       -5.5504  -21.0875  -57.5807 H         1 UNK         0.0600 
    228 H228       -7.0196  -21.9129  -57.1000 H         1 UNK         0.0600 
    229 H229       -7.0299  -20.1697  -57.3032 H         1 UNK         0.0600 
    230 H230       -8.1816  -22.2013  -55.3052 H         1 UNK         0.3000 
    231 H231      -10.0356  -22.3646  -54.1124 H         1 UNK         0.0600 
    232 H232      -11.3296  -20.2716  -53.6459 H         1 UNK         0.0600 
    233 H233      -10.6742  -20.2926  -55.2719 H         1 UNK         0.0600 
    234 H234       -9.9157  -19.2956  -54.0402 H         1 UNK         0.0600 
    235 H235       -9.6896  -19.6289  -52.0562 H         1 UNK         0.3000 
    236 H236       -9.5412  -21.2099  -49.6564 H         1 UNK         0.0600 
    237 H237       -9.3530  -18.1830  -50.1101 H         1 UNK         0.0600 
    238 H238      -10.8330  -19.0921  -49.7993 H         1 UNK         0.0600 
    239 H239       -9.5999  -18.9692  -48.5556 H         1 UNK         0.0600 
    240 H240       -7.0557  -19.9640  -51.7434 H         1 UNK         0.3000 
    241 H241       -5.0051  -20.7577  -49.8126 H         1 UNK         0.0600 
    242 H242       -5.7870  -22.4076  -51.7407 H         1 UNK         0.3800 
    243 H243       -4.5770  -22.4718  -52.9879 H         1 UNK         0.3800 
    244 H244       -4.6505  -18.0542  -51.1622 H         1 UNK         0.0800 
    245 H245       -5.4416  -18.1892  -49.6254 H         1 UNK         0.0800 
    246 H246       -2.3167  -18.2047  -51.5774 H         1 UNK         0.0800 
    247 H247       -2.1326  -16.8662  -50.4710 H         1 UNK         0.0800 
@<TRIPOS>BOND
     1    1    2 1    
     2    1  127 1    
     3    1  128 1    
     4    1  129 1    
     5    2    3 2    
     6    2    4 am   BACKBONE|DICT|INTERRES
     7    4    5 1    
     8    4  130 1    
     9    5    6 1    
    10    5   65 1    
    11    5  131 1    
    12    6    7 1    
    13    6  132 1    
    14    6  133 1    
    15    7    8 1    
    16    8    9 1    
    17    8  134 1    
    18    8  135 1    
    19    9   10 ar   
    20    9   14 ar   
    21   10   11 ar   
    22   10  136 1    
    23   11   12 ar   
    24   11  126 1    
    25   12   13 ar   
    26   12  137 1    
    27   13   14 ar   
    28   13   15 1    
    29   14  138 1    
    30   15   16 1    
    31   15  139 1    
    32   15  140 1    
    33   16   17 1    
    34   17   18 1    
    35   17  141 1    
    36   17  142 1    
    37   18   19 1    
    38   18   67 1    
    39   18  143 1    
    40   19   20 am   BACKBONE|DICT|INTERRES
    41   19  144 1    
    42   20   21 2    
    43   20   22 1    
    44   22   23 1    
    45   22   24 1    
    46   22  145 1    
    47   23  146 1    
    48   23  147 1    
    49   23  148 1    
    50   24   25 am   BACKBONE|DICT|INTERRES
    51   24  149 1    
    52   25   26 2    
    53   25   27 1    
    54   27   28 1    
    55   27   29 1    
    56   27  150 1    
    57   28  151 1    
    58   28  152 1    
    59   28  153 1    
    60   29   30 am   BACKBONE|DICT|INTERRES
    61   29  154 1    
    62   30   31 2    
    63   30   32 1    
    64   32   33 1    
    65   32   34 1    
    66   32  155 1    
    67   33  156 1    
    68   33  157 1    
    69   33  158 1    
    70   34   35 am   BACKBONE|DICT|INTERRES
    71   34  159 1    
    72   35   36 2    
    73   35   37 1    
    74   37   38 1    
    75   37   39 1    
    76   37  160 1    
    77   38  161 1    
    78   38  162 1    
    79   38  163 1    
    80   39   40 am   BACKBONE|DICT|INTERRES
    81   39  164 1    
    82   40   41 2    
    83   40   42 1    
    84   42   43 1    
    85   42   44 1    
    86   42  165 1    
    87   43  166 1    
    88   43  167 1    
    89   43  168 1    
    90   44   45 am   BACKBONE|DICT|INTERRES
    91   44  169 1    
    92   45   46 2    
    93   45   47 1    
    94   47   48 1    
    95   47   49 1    
    96   47  170 1    
    97   48  171 1    
    98   48  172 1    
    99   48  173 1    
   100   49   50 am   BACKBONE|DICT|INTERRES
   101   49  174 1    
   102   50   51 2    
   103   50   52 1    
   104   52   53 1    
   105   52   54 1    
   106   52  175 1    
   107   53  176 1    
   108   53  177 1    
   109   53  178 1    
   110   54   55 am   BACKBONE|DICT|INTERRES
   111   54  179 1    
   112   55   56 2    
   113   55   57 1    
   114   57   58 1    
   115   57   59 1    
   116   57  180 1    
   117   58  181 1    
   118   58  182 1    
   119   58  183 1    
   120   59   60 am   BACKBONE|DICT|INTERRES
   121   59  184 1    
   122   60   61 2    
   123   60   62 1    
   124   62   63 1    
   125   62   64 1    
   126   62  185 1    
   127   63  186 1    
   128   63  187 1    
   129   63  188 1    
   130   64   65 am   BACKBONE|DICT|INTERRES
   131   64  189 1    
   132   65   66 2    
   133   67   68 2    
   134   67   69 am   BACKBONE|DICT|INTERRES
   135   69   70 1    
   136   69  190 1    
   137   70   71 1    
   138   70   72 1    
   139   70  191 1    
   140   71  192 1    
   141   71  193 1    
   142   71  194 1    
   143   72   73 2    
   144   72   74 am   BACKBONE|DICT|INTERRES
   145   74   75 1    
   146   74  195 1    
   147   75   76 1    
   148   75   77 1    
   149   75  196 1    
   150   76  197 1    
   151   76  198 1    
   152   76  199 1    
   153   77   78 2    
   154   77   79 am   BACKBONE|DICT|INTERRES
   155   79   80 1    
   156   79  200 1    
   157   80   81 1    
   158   80   82 1    
   159   80  201 1    
   160   81  202 1    
   161   81  203 1    
   162   81  204 1    
   163   82   83 2    
   164   82   84 am   BACKBONE|DICT|INTERRES
   165   84   85 1    
   166   84  205 1    
   167   85   86 1    
   168   85   87 1    
   169   85  206 1    
   170   86  207 1    
   171   86  208 1    
   172   86  209 1    
   173   87   88 2    
   174   87   89 am   BACKBONE|DICT|INTERRES
   175   89   90 1    
   176   89  210 1    
   177   90   91 1    
   178   90   92 1    
   179   90  211 1    
   180   91  212 1    
   181   91  213 1    
   182   91  214 1    
   183   92   93 2    
   184   92   94 am   BACKBONE|DICT|INTERRES
   185   94   95 1    
   186   94  215 1    
   187   95   96 1    
   188   95   97 1    
   189   95  216 1    
   190   96  217 1    
   191   96  218 1    
   192   96  219 1    
   193   97   98 2    
   194   97   99 am   BACKBONE|DICT|INTERRES
   195   99  100 1    
   196   99  220 1    
   197  100  101 1    
   198  100  102 1    
   199  100  221 1    
   200  101  222 1    
   201  101  223 1    
   202  101  224 1    
   203  102  103 2    
   204  102  104 am   BACKBONE|DICT|INTERRES
   205  104  105 1    
   206  104  225 1    
   207  105  106 1    
   208  105  107 1    
   209  105  226 1    
   210  106  227 1    
   211  106  228 1    
   212  106  229 1    
   213  107  108 2    
   214  107  109 am   BACKBONE|DICT|INTERRES
   215  109  110 1    
   216  109  230 1    
   217  110  111 1    
   218  110  112 1    
   219  110  231 1    
   220  111  232 1    
   221  111  233 1    
   222  111  234 1    
   223  112  113 2    
   224  112  114 am   BACKBONE|DICT|INTERRES
   225  114  115 1    
   226  114  235 1    
   227  115  116 1    
   228  115  117 1    
   229  115  236 1    
   230  116  237 1    
   231  116  238 1    
   232  116  239 1    
   233  117  118 2    
   234  117  119 am   BACKBONE|DICT|INTERRES
   235  119  120 1    
   236  119  240 1    
   237  120  121 1    
   238  120  124 1    
   239  120  241 1    
   240  121  122 am   BACKBONE|DICT|INTERRES
   241  121  123 2    
   242  122  242 1    
   243  122  243 1    
   244  124  125 1    
   245  124  244 1    
   246  124  245 1    
   247  125  126 1    
   248  126  246 1    
   249  126  247 1    
@<TRIPOS>SUBSTRUCTURE
     1 UNK         1 GROUP             0       ****    0 ROOT    
