@<TRIPOS>MOLECULE
3R540
247   249    1
SMALL
USER_CHARGES


@<TRIPOS>ATOM
      1 CA         -4.6545  -16.5343  -49.5594 C.3       0 UNK        -0.1800 
      2 C          -3.7906  -15.4182  -48.9916 C.2       0 UNK         0.5000 
      3 O          -4.2688  -14.2966  -48.8243 O.2       0 UNK        -0.5000 
      4 N          -2.5249  -15.7237  -48.6755 N.am      1 UNK        -0.5000 
      5 CA         -1.5404  -14.7802  -48.1234 C.3       1 UNK         0.1400 
      6 C6         -0.0942  -15.3315  -48.2016 C.3       23 UNK        -0.0398 
      7 S7          0.4604  -15.6110  -49.9138 S.3       23 UNK        -0.2404 
      8 C8          2.1520  -16.2169  -49.6264 C.3       23 UNK        -0.0205 
      9 C9          2.3234  -17.6491  -50.1055 C.ar      23 UNK        -0.0193 
     10 C10         2.7740  -17.8963  -51.4040 C.ar      23 UNK        -0.1150 
     11 C11         2.9584  -19.2048  -51.8562 C.ar      23 UNK        -0.0193 
     12 C12         2.6946  -20.2718  -50.9924 C.ar      23 UNK        -0.1150 
     13 C13         2.2367  -20.0423  -49.6889 C.ar      23 UNK        -0.0193 
     14 C14         2.0582  -18.7247  -49.2521 C.ar      23 UNK        -0.1150 
     15 C15         1.9789  -21.2066  -48.7359 C.3       23 UNK        -0.0205 
     16 S16         0.9764  -22.5366  -49.4829 S.3       23 UNK        -0.2404 
     17 C17        -0.4212  -22.7217  -48.3241 C.3       23 UNK        -0.0398 
     18 CA         -0.1624  -23.8206  -47.2632 C.3       11 UNK         0.1400 
     19 N           0.8345  -23.3768  -46.2886 N.am      11 UNK        -0.5000 
     20 C           1.9841  -23.9909  -45.9838 C.2       10 UNK         0.5000 
     21 O           2.3525  -25.0470  -46.4978 O.2       10 UNK        -0.5000 
     22 CA          2.8711  -23.3194  -44.9122 C.3       10 UNK         0.1400 
     23 CB          4.1132  -22.6825  -45.5533 C.3       10 UNK        -0.1800 
     24 N           2.1609  -22.2990  -44.1349 N.am      10 UNK        -0.5000 
     25 C           1.2370  -22.5704  -43.2007 C.2       9 UNK         0.5000 
     26 O           0.9493  -23.7140  -42.8494 O.2       9 UNK        -0.5000 
     27 CA          0.4605  -21.3798  -42.6021 C.3       9 UNK         0.1400 
     28 CB          1.0951  -20.9417  -41.2747 C.3       9 UNK        -0.1800 
     29 N           0.3627  -20.2272  -43.5032 N.am      9 UNK        -0.5000 
     30 C          -0.2443  -20.2413  -44.7011 C.2       8 UNK         0.5000 
     31 O          -0.8224  -21.2281  -45.1531 O.2       8 UNK        -0.5000 
     32 CA         -0.1556  -18.9761  -45.5772 C.3       8 UNK         0.1400 
     33 CB         -1.4715  -18.1927  -45.5133 C.3       8 UNK        -0.1800 
     34 N           0.9606  -18.0870  -45.2458 N.am      8 UNK        -0.5000 
     35 C           2.2563  -18.4317  -45.2930 C.2       7 UNK         0.5000 
     36 O           2.6515  -19.5237  -45.7011 O.2       7 UNK        -0.5000 
     37 CA          3.2783  -17.4155  -44.7458 C.3       7 UNK         0.1400 
     38 CB          3.8774  -16.5941  -45.8970 C.3       7 UNK        -0.1800 
     39 N           2.7575  -16.4900  -43.7332 N.am      7 UNK        -0.5000 
     40 C           2.1261  -16.8092  -42.5928 C.2       6 UNK         0.5000 
     41 O           1.8680  -17.9663  -42.2626 O.2       6 UNK        -0.5000 
     42 CA          1.6965  -15.6498  -41.6676 C.3       6 UNK         0.1400 
     43 CB          2.4726  -15.7042  -40.3423 C.3       6 UNK        -0.1800 
     44 N           1.8643  -14.3162  -42.2562 N.am      6 UNK        -0.5000 
     45 C           1.1160  -13.8116  -43.2451 C.2       5 UNK         0.5000 
     46 O           0.1954  -14.4266  -43.7831 O.2       5 UNK        -0.5000 
     47 CA          1.5213  -12.4201  -43.7476 C.3       5 UNK         0.1400 
     48 CB          2.7612  -12.5195  -44.6574 C.3       5 UNK        -0.1800 
     49 N           0.4278  -11.7928  -44.4861 N.am      5 UNK        -0.5000 
     50 C           0.2858  -10.4703  -44.6445 C.2       4 UNK         0.5000 
     51 O           1.0245   -9.6406  -44.1114 O.2       4 UNK        -0.5000 
     52 CA         -0.8494   -9.9746  -45.5544 C.3       4 UNK         0.1400 
     53 CB         -0.4070  -10.0203  -47.0262 C.3       4 UNK        -0.1800 
     54 N          -2.0686  -10.7660  -45.4028 N.am      4 UNK        -0.5000 
     55 C          -3.1993  -10.3337  -44.8284 C.2       3 UNK         0.5000 
     56 O          -3.3192   -9.2235  -44.3079 O.2       3 UNK        -0.5000 
     57 CA         -4.4190  -11.2786  -44.8545 C.3       3 UNK         0.1400 
     58 CB         -5.4006  -10.8530  -45.9576 C.3       3 UNK        -0.1800 
     59 N          -4.0651  -12.6821  -45.0625 N.am      3 UNK        -0.5000 
     60 C          -3.5170  -13.4737  -44.1321 C.2       2 UNK         0.5000 
     61 O          -3.3102  -13.1203  -42.9707 O.2       2 UNK        -0.5000 
     62 CA         -3.1270  -14.8975  -44.5752 C.3       2 UNK         0.1400 
     63 CB         -4.2641  -15.8796  -44.2514 C.3       2 UNK        -0.1800 
     64 N          -2.7742  -15.0413  -45.9933 N.am      2 UNK        -0.5000 
     65 C          -1.8534  -14.3411  -46.6754 C.2       1 UNK         0.5000 
     66 O          -1.2520  -13.3735  -46.2121 O.2       1 UNK        -0.5000 
     67 C          -1.4689  -24.2405  -46.5514 C.2       11 UNK         0.5000 
     68 O          -2.4901  -24.4176  -47.2195 O.2       11 UNK        -0.5000 
     69 N          -1.4371  -24.4180  -45.2200 N.am      12 UNK        -0.5000 
     70 CA         -2.5908  -24.7964  -44.3960 C.3       12 UNK         0.1400 
     71 CB         -2.2094  -24.7260  -42.9113 C.3       12 UNK        -0.1800 
     72 C          -3.1663  -26.1829  -44.7408 C.2       12 UNK         0.5000 
     73 O          -4.3747  -26.3834  -44.6213 O.2       12 UNK        -0.5000 
     74 N          -2.3094  -27.0904  -45.2308 N.am      13 UNK        -0.5000 
     75 CA         -2.6846  -28.4069  -45.7569 C.3       13 UNK         0.1400 
     76 CB         -1.4071  -29.2181  -46.0210 C.3       13 UNK        -0.1800 
     77 C          -3.5508  -28.3352  -47.0332 C.2       13 UNK         0.5000 
     78 O          -4.2957  -29.2748  -47.3125 O.2       13 UNK        -0.5000 
     79 N          -3.4547  -27.2167  -47.7640 N.am      14 UNK        -0.5000 
     80 CA         -4.2682  -26.8834  -48.9320 C.3       14 UNK         0.1400 
     81 CB         -3.3359  -26.3517  -50.0362 C.3       14 UNK        -0.1800 
     82 C          -5.3569  -25.8475  -48.5833 C.2       14 UNK         0.5000 
     83 O          -5.9422  -25.2653  -49.4955 O.2       14 UNK        -0.5000 
     84 N          -5.5826  -25.5868  -47.2844 N.am      15 UNK        -0.5000 
     85 CA         -6.5127  -24.5955  -46.7265 C.3       15 UNK         0.1400 
     86 CB         -7.9720  -25.0352  -46.9650 C.3       15 UNK        -0.1800 
     87 C          -6.2350  -23.1541  -47.2113 C.2       15 UNK         0.5000 
     88 O          -7.1677  -22.3638  -47.3614 O.2       15 UNK        -0.5000 
     89 N          -4.9532  -22.8569  -47.4769 N.am      16 UNK        -0.5000 
     90 CA         -4.4167  -21.6212  -48.0546 C.3       16 UNK         0.1400 
     91 CB         -4.6940  -20.4003  -47.1536 C.3       16 UNK        -0.1800 
     92 C          -4.8152  -21.3741  -49.5266 C.2       16 UNK         0.5000 
     93 O          -4.5119  -20.3023  -50.0520 O.2       16 UNK        -0.5000 
     94 N          -5.4131  -22.3644  -50.2095 N.am      17 UNK        -0.5000 
     95 CA         -5.7413  -22.2796  -51.6375 C.3       17 UNK         0.1400 
     96 CB         -6.6515  -23.4474  -52.0423 C.3       17 UNK        -0.1800 
     97 C          -4.4810  -22.2440  -52.5203 C.2       17 UNK         0.5000 
     98 O          -4.4654  -21.5497  -53.5357 O.2       17 UNK        -0.5000 
     99 N          -3.4247  -22.9445  -52.0838 N.am      18 UNK        -0.5000 
    100 CA        -2.1004  -22.9048  -52.7031 C.3       18 UNK         0.1400 
    101 CB        -1.2388  -24.0466  -52.1449 C.3       18 UNK        -0.1800 
    102 C         -1.4059  -21.5392  -52.5316 C.2       18 UNK         0.5000 
    103 O         -0.6954  -21.1145  -53.4390 O.2       18 UNK        -0.5000 
    104 N         -1.6626  -20.8547  -51.4059 N.am      19 UNK        -0.5000 
    105 CA        -1.1872  -19.4932  -51.1514 C.3       19 UNK         0.1400 
    106 CB        -1.3098  -19.1603  -49.6555 C.3       19 UNK        -0.1800 
    107 C         -1.9405  -18.4634  -52.0088 C.2       19 UNK         0.5000 
    108 O         -1.3206  -17.5424  -52.5365 O.2       19 UNK        -0.5000 
    109 N         -3.2574  -18.6609  -52.1716 N.am      20 UNK        -0.5000 
    110 CA        -4.1078  -17.8670  -53.0602 C.3       20 UNK         0.1400 
    111 CB        -5.5795  -18.2591  -52.8573 C.3       20 UNK        -0.1800 
    112 C         -3.6977  -18.0030  -54.5392 C.2       20 UNK         0.5000 
    113 O         -3.6488  -16.9987  -55.2507 O.2       20 UNK        -0.5000 
    114 N         -3.3534  -19.2294  -54.9598 N.am      21 UNK        -0.5000 
    115 CA        -2.8492  -19.5528  -56.2978 C.3       21 UNK         0.1400 
    116 CB        -2.7370  -21.0775  -56.4465 C.3       21 UNK        -0.1800 
    117 C         -1.5097  -18.8704  -56.6471 C.2       21 UNK         0.5000 
    118 O         -1.2517  -18.6282  -57.8271 O.2       21 UNK        -0.5000 
    119 N         -0.7019  -18.5421  -55.6301 N.am      22 UNK        -0.5000 
    120 CA         0.5101  -17.7156  -55.7571 C.3       22 UNK         0.1400 
    121 C          0.2274  -16.1953  -55.9623 C.2       22 UNK         0.5000 
    122 N         -1.0056  -15.7103  -55.8633 N.am      22 UNK        -0.7600 
    123 O          1.1522  -15.4349  -56.2359 O.2       22 UNK        -0.5000 
    124 C124        1.4931  -17.9349  -54.5778 C.3       23 UNK        -0.0398 
    125 S125        2.1184  -19.6451  -54.4729 S.3       23 UNK        -0.2404 
    126 C126        3.4705  -19.4627  -53.2667 C.3       23 UNK        -0.0205 
    127 H127       -5.0499  -16.2395  -50.5308 H         1 UNK         0.0600 
    128 H128       -5.4954  -16.7342  -48.8955 H         1 UNK         0.0600 
    129 H129       -4.0953  -17.4611  -49.6841 H         1 UNK         0.0600 
    130 H130       -2.1790  -16.6517  -48.8645 H         1 UNK         0.3000 
    131 H131       -1.5822  -13.8723  -48.7293 H         1 UNK         0.0600 
    132 H132        0.0009  -16.2652  -47.6461 H         1 UNK         0.0800 
    133 H133        0.6074  -14.6298  -47.7449 H         1 UNK         0.0800 
    134 H134        2.4130  -16.1479  -48.5708 H         1 UNK         0.0800 
    135 H135        2.8509  -15.5622  -50.1492 H         1 UNK         0.0800 
    136 H136        2.9843  -17.0664  -52.0637 H         1 UNK         0.1150 
    137 H137        2.8460  -21.2850  -51.3369 H         1 UNK         0.1150 
    138 H138        1.7180  -18.5326  -48.2453 H         1 UNK         0.1150 
    139 H139        2.9406  -21.6269  -48.4421 H         1 UNK         0.0800 
    140 H140        1.5093  -20.8556  -47.8172 H         1 UNK         0.0800 
    141 H141       -1.2892  -22.9665  -48.9366 H         1 UNK         0.0800 
    142 H142       -0.6528  -21.7702  -47.8460 H         1 UNK         0.0800 
    143 H143        0.1884  -24.7164  -47.7794 H         1 UNK         0.0600 
    144 H144        0.5833  -22.5345  -45.7830 H         1 UNK         0.3000 
    145 H145        3.2071  -24.1033  -44.2302 H         1 UNK         0.0600 
    146 H146        4.7788  -22.2683  -44.7959 H         1 UNK         0.0600 
    147 H147        4.6842  -23.4195  -46.1195 H         1 UNK         0.0600 
    148 H148        3.8460  -21.8782  -46.2381 H         1 UNK         0.0600 
    149 H149        2.3293  -21.3346  -44.3959 H         1 UNK         0.3000 
    150 H150       -0.5555  -21.7208  -42.3959 H         1 UNK         0.0600 
    151 H151        1.1281  -21.7692  -40.5648 H         1 UNK         0.0600 
    152 H152        0.5244  -20.1373  -40.8102 H         1 UNK         0.0600 
    153 H153        2.1175  -20.5890  -41.4160 H         1 UNK         0.0600 
    154 H154        0.8336  -19.3808  -43.1968 H         1 UNK         0.3000 
    155 H155       -0.0159  -19.3141  -46.6054 H         1 UNK         0.0600 
    156 H156       -1.6056  -17.7129  -44.5433 H         1 UNK         0.0600 
    157 H157       -2.3300  -18.8445  -45.6814 H         1 UNK         0.0600 
    158 H158       -1.5011  -17.4251  -46.2821 H         1 UNK         0.0600 
    159 H159        0.7251  -17.1801  -44.8682 H         1 UNK         0.3000 
    160 H160        4.0800  -17.9913  -44.2795 H         1 UNK         0.0600 
    161 H161        3.1407  -15.9155  -46.3277 H         1 UNK         0.0600 
    162 H162        4.2411  -17.2403  -46.6976 H         1 UNK         0.0600 
    163 H163        4.7223  -15.9959  -45.5556 H         1 UNK         0.0600 
    164 H164        2.9160  -15.5098  -43.9083 H         1 UNK         0.3000 
    165 H165        0.6366  -15.7938  -41.4475 H         1 UNK         0.0600 
    166 H166        2.1256  -14.9371  -39.6497 H         1 UNK         0.0600 
    167 H167        2.3395  -16.6677  -39.8483 H         1 UNK         0.0600 
    168 H168        3.5427  -15.5598  -40.4966 H         1 UNK         0.0600 
    169 H169        2.6148  -13.7560  -41.8774 H         1 UNK         0.3000 
    170 H170        1.7604  -11.8113  -42.8729 H         1 UNK         0.0600 
    171 H171        3.6009  -12.9824  -44.1377 H         1 UNK         0.0600 
    172 H172        2.5556  -13.1146  -45.5484 H         1 UNK         0.0600 
    173 H173        3.0930  -11.5342  -44.9850 H         1 UNK         0.0600 
    174 H174       -0.2140  -12.4387  -44.9425 H         1 UNK         0.3000 
    175 H175       -1.0395   -8.9299  -45.2995 H         1 UNK         0.0600 
    176 H176       -0.1944  -11.0388  -47.3536 H         1 UNK         0.0600 
    177 H177       -1.1775   -9.6127  -47.6808 H         1 UNK         0.0600 
    178 H178        0.4971   -9.4300  -47.1811 H         1 UNK         0.0600 
    179 H179       -2.0253  -11.7178  -45.7548 H         1 UNK         0.3000 
    180 H180       -4.9273  -11.1865  -43.8923 H         1 UNK         0.0600 
    181 H181       -6.3010  -11.4675  -45.9434 H         1 UNK         0.0600 
    182 H182       -4.9523  -10.9362  -46.9486 H         1 UNK         0.0600 
    183 H183       -5.7141   -9.8166  -45.8247 H         1 UNK         0.0600 
    184 H184       -4.1976  -13.0548  -45.9921 H         1 UNK         0.3000 
    185 H185       -2.2541  -15.1908  -43.9916 H         1 UNK         0.0600 
    186 H186       -3.9760  -16.9092  -44.4624 H         1 UNK         0.0600 
    187 H187       -4.5342  -15.8311  -43.1956 H         1 UNK         0.0600 
    188 H188       -5.1617  -15.6579  -44.8301 H         1 UNK         0.0600 
    189 H189       -3.2406  -15.7869  -46.4869 H         1 UNK         0.3000 
    190 H190       -0.5675  -24.2573  -44.7310 H         1 UNK         0.3000 
    191 H191       -3.3799  -24.0636  -44.5783 H         1 UNK         0.0600 
    192 H192       -3.0499  -25.0089  -42.2760 H         1 UNK         0.0600 
    193 H193       -1.9189  -23.7149  -42.6287 H         1 UNK         0.0600 
    194 H194       -1.3794  -25.3934  -42.6762 H         1 UNK         0.0600 
    195 H195       -1.3333  -26.8402  -45.2915 H         1 UNK         0.3000 
    196 H196       -3.2687  -28.9226  -44.9918 H         1 UNK         0.0600 
    197 H197       -0.7724  -28.7379  -46.7669 H         1 UNK         0.0600 
    198 H198       -0.8218  -29.3410  -45.1095 H         1 UNK         0.0600 
    199 H199       -1.6472  -30.2169  -46.3882 H         1 UNK         0.0600 
    200 H200       -2.8462  -26.4748  -47.4397 H         1 UNK         0.3000 
    201 H201       -4.7765  -27.7719  -49.3111 H         1 UNK         0.0600 
    202 H202       -2.8416  -25.4278  -49.7348 H         1 UNK         0.0600 
    203 H203       -3.8868  -26.1468  -50.9550 H         1 UNK         0.0600 
    204 H204       -2.5620  -27.0791  -50.2815 H         1 UNK         0.0600 
    205 H205       -5.0504  -26.1037  -46.5946 H         1 UNK         0.3000 
    206 H206       -6.3418  -24.5884  -45.6492 H         1 UNK         0.0600 
    207 H207       -8.1415  -26.0493  -46.6032 H         1 UNK         0.0600 
    208 H208       -8.6696  -24.3838  -46.4373 H         1 UNK         0.0600 
    209 H209       -8.2352  -25.0080  -48.0229 H         1 UNK         0.0600 
    210 H210       -4.2606  -23.5865  -47.3324 H         1 UNK         0.3000 
    211 H211       -3.3356  -21.7592  -48.0700 H         1 UNK         0.0600 
    212 H212       -4.1562  -19.5204  -47.5082 H         1 UNK         0.0600 
    213 H213       -4.3687  -20.5854  -46.1298 H         1 UNK         0.0600 
    214 H214       -5.7528  -20.1425  -47.1303 H         1 UNK         0.0600 
    215 H215       -5.6373  -23.2370  -49.7427 H         1 UNK         0.3000 
    216 H216       -6.2915  -21.3507  -51.8010 H         1 UNK         0.0600 
    217 H217       -6.1328  -24.4046  -51.9814 H         1 UNK         0.0600 
    218 H218       -6.9974  -23.3302  -53.0700 H         1 UNK         0.0600 
    219 H219       -7.5342  -23.5016  -51.4047 H         1 UNK         0.0600 
    220 H220       -3.5295  -23.5019  -51.2499 H         1 UNK         0.3000 
    221 H221       -2.2239  -23.0741  -53.7749 H         1 UNK         0.0600 
    222 H222       -1.6619  -25.0183  -52.4000 H         1 UNK         0.0600 
    223 H223       -1.1506  -23.9966  -51.0610 H         1 UNK         0.0600 
    224 H224       -0.2296  -24.0133  -52.5579 H         1 UNK         0.0600 
    225 H225       -2.3056  -21.2451  -50.7365 H         1 UNK         0.3000 
    226 H226       -0.1310  -19.4412  -51.4239 H         1 UNK         0.0600 
    227 H227       -2.3383  -19.1948  -49.3022 H         1 UNK         0.0600 
    228 H228       -0.7240  -19.8495  -49.0530 H         1 UNK         0.0600 
    229 H229       -0.9271  -18.1617  -49.4524 H         1 UNK         0.0600 
    230 H230       -3.7072  -19.4065  -51.6507 H         1 UNK         0.3000 
    231 H231       -3.9925  -16.8187  -52.7773 H         1 UNK         0.0600 
    232 H232       -5.7775  -19.2782  -53.1875 H         1 UNK         0.0600 
    233 H233       -6.2371  -17.5999  -53.4250 H         1 UNK         0.0600 
    234 H234       -5.8712  -18.1881  -51.8095 H         1 UNK         0.0600 
    235 H235       -3.4852  -20.0114  -54.3257 H         1 UNK         0.3000 
    236 H236       -3.5894  -19.1980  -57.0176 H         1 UNK         0.0600 
    237 H237       -3.6951  -21.5649  -56.2649 H         1 UNK         0.0600 
    238 H238       -2.4203  -21.3489  -57.4542 H         1 UNK         0.0600 
    239 H239       -2.0095  -21.4964  -55.7518 H         1 UNK         0.0600 
    240 H240       -0.9730  -18.7931  -54.6891 H         1 UNK         0.3000 
    241 H241        1.0265  -18.0351  -56.6642 H         1 UNK         0.0600 
    242 H242       -1.1575  -14.7249  -56.0077 H         1 UNK         0.3800 
    243 H243       -1.7946  -16.3068  -55.6408 H         1 UNK         0.3800 
    244 H244        1.0157  -17.6755  -53.6331 H         1 UNK         0.0800 
    245 H245        2.3575  -17.2757  -54.6750 H         1 UNK         0.0800 
    246 H246        4.1386  -18.6597  -53.5816 H         1 UNK         0.0800 
    247 H247        4.0705  -20.3738  -53.2765 H         1 UNK         0.0800 
@<TRIPOS>BOND
     1    1    2 1    
     2    1  127 1    
     3    1  128 1    
     4    1  129 1    
     5    2    3 2    
     6    2    4 am   BACKBONE|DICT|INTERRES
     7    4    5 1    
     8    4  130 1    
     9    5    6 1    
    10    5   65 1    
    11    5  131 1    
    12    6    7 1    
    13    6  132 1    
    14    6  133 1    
    15    7    8 1    
    16    8    9 1    
    17    8  134 1    
    18    8  135 1    
    19    9   10 ar   
    20    9   14 ar   
    21   10   11 ar   
    22   10  136 1    
    23   11   12 ar   
    24   11  126 1    
    25   12   13 ar   
    26   12  137 1    
    27   13   14 ar   
    28   13   15 1    
    29   14  138 1    
    30   15   16 1    
    31   15  139 1    
    32   15  140 1    
    33   16   17 1    
    34   17   18 1    
    35   17  141 1    
    36   17  142 1    
    37   18   19 1    
    38   18   67 1    
    39   18  143 1    
    40   19   20 am   BACKBONE|DICT|INTERRES
    41   19  144 1    
    42   20   21 2    
    43   20   22 1    
    44   22   23 1    
    45   22   24 1    
    46   22  145 1    
    47   23  146 1    
    48   23  147 1    
    49   23  148 1    
    50   24   25 am   BACKBONE|DICT|INTERRES
    51   24  149 1    
    52   25   26 2    
    53   25   27 1    
    54   27   28 1    
    55   27   29 1    
    56   27  150 1    
    57   28  151 1    
    58   28  152 1    
    59   28  153 1    
    60   29   30 am   BACKBONE|DICT|INTERRES
    61   29  154 1    
    62   30   31 2    
    63   30   32 1    
    64   32   33 1    
    65   32   34 1    
    66   32  155 1    
    67   33  156 1    
    68   33  157 1    
    69   33  158 1    
    70   34   35 am   BACKBONE|DICT|INTERRES
    71   34  159 1    
    72   35   36 2    
    73   35   37 1    
    74   37   38 1    
    75   37   39 1    
    76   37  160 1    
    77   38  161 1    
    78   38  162 1    
    79   38  163 1    
    80   39   40 am   BACKBONE|DICT|INTERRES
    81   39  164 1    
    82   40   41 2    
    83   40   42 1    
    84   42   43 1    
    85   42   44 1    
    86   42  165 1    
    87   43  166 1    
    88   43  167 1    
    89   43  168 1    
    90   44   45 am   BACKBONE|DICT|INTERRES
    91   44  169 1    
    92   45   46 2    
    93   45   47 1    
    94   47   48 1    
    95   47   49 1    
    96   47  170 1    
    97   48  171 1    
    98   48  172 1    
    99   48  173 1    
   100   49   50 am   BACKBONE|DICT|INTERRES
   101   49  174 1    
   102   50   51 2    
   103   50   52 1    
   104   52   53 1    
   105   52   54 1    
   106   52  175 1    
   107   53  176 1    
   108   53  177 1    
   109   53  178 1    
   110   54   55 am   BACKBONE|DICT|INTERRES
   111   54  179 1    
   112   55   56 2    
   113   55   57 1    
   114   57   58 1    
   115   57   59 1    
   116   57  180 1    
   117   58  181 1    
   118   58  182 1    
   119   58  183 1    
   120   59   60 am   BACKBONE|DICT|INTERRES
   121   59  184 1    
   122   60   61 2    
   123   60   62 1    
   124   62   63 1    
   125   62   64 1    
   126   62  185 1    
   127   63  186 1    
   128   63  187 1    
   129   63  188 1    
   130   64   65 am   BACKBONE|DICT|INTERRES
   131   64  189 1    
   132   65   66 2    
   133   67   68 2    
   134   67   69 am   BACKBONE|DICT|INTERRES
   135   69   70 1    
   136   69  190 1    
   137   70   71 1    
   138   70   72 1    
   139   70  191 1    
   140   71  192 1    
   141   71  193 1    
   142   71  194 1    
   143   72   73 2    
   144   72   74 am   BACKBONE|DICT|INTERRES
   145   74   75 1    
   146   74  195 1    
   147   75   76 1    
   148   75   77 1    
   149   75  196 1    
   150   76  197 1    
   151   76  198 1    
   152   76  199 1    
   153   77   78 2    
   154   77   79 am   BACKBONE|DICT|INTERRES
   155   79   80 1    
   156   79  200 1    
   157   80   81 1    
   158   80   82 1    
   159   80  201 1    
   160   81  202 1    
   161   81  203 1    
   162   81  204 1    
   163   82   83 2    
   164   82   84 am   BACKBONE|DICT|INTERRES
   165   84   85 1    
   166   84  205 1    
   167   85   86 1    
   168   85   87 1    
   169   85  206 1    
   170   86  207 1    
   171   86  208 1    
   172   86  209 1    
   173   87   88 2    
   174   87   89 am   BACKBONE|DICT|INTERRES
   175   89   90 1    
   176   89  210 1    
   177   90   91 1    
   178   90   92 1    
   179   90  211 1    
   180   91  212 1    
   181   91  213 1    
   182   91  214 1    
   183   92   93 2    
   184   92   94 am   BACKBONE|DICT|INTERRES
   185   94   95 1    
   186   94  215 1    
   187   95   96 1    
   188   95   97 1    
   189   95  216 1    
   190   96  217 1    
   191   96  218 1    
   192   96  219 1    
   193   97   98 2    
   194   97   99 am   BACKBONE|DICT|INTERRES
   195   99  100 1    
   196   99  220 1    
   197  100  101 1    
   198  100  102 1    
   199  100  221 1    
   200  101  222 1    
   201  101  223 1    
   202  101  224 1    
   203  102  103 2    
   204  102  104 am   BACKBONE|DICT|INTERRES
   205  104  105 1    
   206  104  225 1    
   207  105  106 1    
   208  105  107 1    
   209  105  226 1    
   210  106  227 1    
   211  106  228 1    
   212  106  229 1    
   213  107  108 2    
   214  107  109 am   BACKBONE|DICT|INTERRES
   215  109  110 1    
   216  109  230 1    
   217  110  111 1    
   218  110  112 1    
   219  110  231 1    
   220  111  232 1    
   221  111  233 1    
   222  111  234 1    
   223  112  113 2    
   224  112  114 am   BACKBONE|DICT|INTERRES
   225  114  115 1    
   226  114  235 1    
   227  115  116 1    
   228  115  117 1    
   229  115  236 1    
   230  116  237 1    
   231  116  238 1    
   232  116  239 1    
   233  117  118 2    
   234  117  119 am   BACKBONE|DICT|INTERRES
   235  119  120 1    
   236  119  240 1    
   237  120  121 1    
   238  120  124 1    
   239  120  241 1    
   240  121  122 am   BACKBONE|DICT|INTERRES
   241  121  123 2    
   242  122  242 1    
   243  122  243 1    
   244  124  125 1    
   245  124  244 1    
   246  124  245 1    
   247  125  126 1    
   248  126  246 1    
   249  126  247 1    
@<TRIPOS>SUBSTRUCTURE
     1 UNK         1 GROUP             0       ****    0 ROOT    
