@<TRIPOS>MOLECULE
3R540
247   249    1
SMALL
USER_CHARGES


@<TRIPOS>ATOM
      1 CA          1.8472  -17.4810  -45.3299 C.3       0 UNK        -0.1800 
      2 C           2.0042  -16.3785  -46.3658 C.2       0 UNK         0.5000 
      3 O           1.4214  -15.3027  -46.2187 O.2       0 UNK        -0.5000 
      4 N           2.8109  -16.6442  -47.4023 N.am      1 UNK        -0.5000 
      5 CA          3.1382  -15.7254  -48.5033 C.3       1 UNK         0.1400 
      6 C6          3.8914  -16.4758  -49.6333 C.3       23 UNK        -0.0398 
      7 S7          3.8444  -15.6130  -51.2436 S.3       23 UNK        -0.2404 
      8 C8          2.6063  -16.5777  -52.1666 C.3       23 UNK        -0.0205 
      9 C9          1.2208  -16.4690  -51.5494 C.ar      23 UNK        -0.0193 
     10 C10         0.4805  -15.2918  -51.6846 C.ar      23 UNK        -0.1150 
     11 C11        -0.8010  -15.1877  -51.1333 C.ar      23 UNK        -0.0193 
     12 C12        -1.3292  -16.2678  -50.4199 C.ar      23 UNK        -0.1150 
     13 C13        -0.5900  -17.4447  -50.2643 C.ar      23 UNK        -0.0193 
     14 C14         0.6771  -17.5446  -50.8440 C.ar      23 UNK        -0.1150 
     15 C15        -1.1420  -18.6019  -49.4505 C.3       23 UNK        -0.0205 
     16 S16        -0.2612  -18.7356  -47.8696 S.3       23 UNK        -0.2404 
     17 C17        -1.2895  -19.9304  -46.9630 C.3       23 UNK        -0.0398 
     18 CA         -0.8006  -21.3760  -47.1814 C.3       11 UNK         0.1400 
     19 N           0.5719  -21.5996  -46.7231 N.am      11 UNK        -0.5000 
     20 C           1.3343  -22.6151  -47.1510 C.2       10 UNK         0.5000 
     21 O           0.9536  -23.4483  -47.9717 O.2       10 UNK        -0.5000 
     22 CA          2.7386  -22.7542  -46.5369 C.3       10 UNK         0.1400 
     23 CB          3.7575  -21.9407  -47.3489 C.3       10 UNK        -0.1800 
     24 N           2.8079  -22.3450  -45.1343 N.am      10 UNK        -0.5000 
     25 C           2.1028  -22.8846  -44.1310 C.2       9 UNK         0.5000 
     26 O           1.3076  -23.8143  -44.2806 O.2       9 UNK        -0.5000 
     27 CA          2.2841  -22.2601  -42.7310 C.3       9 UNK         0.1400 
     28 CB          3.5212  -21.3411  -42.6131 C.3       9 UNK        -0.1800 
     29 N           1.0919  -21.5366  -42.2757 N.am      9 UNK        -0.5000 
     30 C           0.4372  -20.5591  -42.9208 C.2       8 UNK         0.5000 
     31 O           0.6889  -20.2098  -44.0752 O.2       8 UNK        -0.5000 
     32 CA         -0.7050  -19.8480  -42.1679 C.3       8 UNK         0.1400 
     33 CB         -1.0797  -20.4849  -40.8091 C.3       8 UNK        -0.1800 
     34 N          -0.4327  -18.4160  -42.0115 N.am      8 UNK        -0.5000 
     35 C           0.5715  -17.8456  -41.3233 C.2       7 UNK         0.5000 
     36 O           1.4311  -18.4866  -40.7176 O.2       7 UNK        -0.5000 
     37 CA          0.6330  -16.3009  -41.2758 C.3       7 UNK         0.1400 
     38 CB          1.9319  -15.7631  -41.8998 C.3       7 UNK        -0.1800 
     39 N          -0.5024  -15.6435  -41.9235 N.am      7 UNK        -0.5000 
     40 C          -1.7223  -15.4967  -41.3890 C.2       6 UNK         0.5000 
     41 O          -2.0104  -15.8316  -40.2399 O.2       6 UNK        -0.5000 
     42 CA         -2.8121  -14.8988  -42.3044 C.3       6 UNK         0.1400 
     43 CB         -2.9899  -13.4006  -42.0143 C.3       6 UNK        -0.1800 
     44 N          -2.5556  -15.0708  -43.7391 N.am      6 UNK        -0.5000 
     45 C          -2.4212  -16.2382  -44.3829 C.2       5 UNK         0.5000 
     46 O          -2.4941  -17.3307  -43.8204 O.2       5 UNK        -0.5000 
     47 CA         -2.0822  -16.1978  -45.8844 C.3       5 UNK         0.1400 
     48 CB         -3.2668  -16.6873  -46.7390 C.3       5 UNK        -0.1800 
     49 N          -1.5365  -14.9206  -46.3685 N.am      5 UNK        -0.5000 
     50 C          -2.1777  -13.7600  -46.5665 C.2       4 UNK         0.5000 
     51 O          -3.3708  -13.5839  -46.3210 O.2       4 UNK        -0.5000 
     52 CA         -1.2977  -12.5840  -47.0122 C.3       4 UNK         0.1400 
     53 CB         -2.0804  -11.2727  -47.2207 C.3       4 UNK        -0.1800 
     54 N          -0.2618  -12.4015  -46.0018 N.am      4 UNK        -0.5000 
     55 C           0.9535  -11.8899  -46.2107 C.2       3 UNK         0.5000 
     56 O           1.3180  -11.4163  -47.2879 O.2       3 UNK        -0.5000 
     57 CA          1.9401  -11.9325  -45.0296 C.3       3 UNK         0.1400 
     58 CB          1.3331  -12.4594  -43.7112 C.3       3 UNK        -0.1800 
     59 N           3.0380  -12.8070  -45.4188 N.am      3 UNK        -0.5000 
     60 C           4.3088  -12.4306  -45.6069 C.2       2 UNK         0.5000 
     61 O           4.7360  -11.3034  -45.3528 O.2       2 UNK        -0.5000 
     62 CA          5.2753  -13.4902  -46.1790 C.3       2 UNK         0.1400 
     63 CB          6.1475  -14.0797  -45.0597 C.3       2 UNK        -0.1800 
     64 N           4.5961  -14.5878  -46.8721 N.am      2 UNK        -0.5000 
     65 C           3.9195  -14.4757  -48.0257 C.2       1 UNK         0.5000 
     66 O           3.8751  -13.4353  -48.6821 O.2       1 UNK        -0.5000 
     67 C          -1.7720  -22.3822  -46.5443 C.2       11 UNK         0.5000 
     68 O          -2.6981  -22.8268  -47.2197 O.2       11 UNK        -0.5000 
     69 N          -1.5306  -22.7624  -45.2813 N.am      12 UNK        -0.5000 
     70 CA         -2.2958  -23.8021  -44.5904 C.3       12 UNK         0.1400 
     71 CB         -1.9521  -23.8120  -43.0948 C.3       12 UNK        -0.1800 
     72 C          -2.0845  -25.1829  -45.2342 C.2       12 UNK         0.5000 
     73 O          -3.0584  -25.9075  -45.4431 O.2       12 UNK        -0.5000 
     74 N          -0.8292  -25.4797  -45.6035 N.am      13 UNK        -0.5000 
     75 CA         -0.4443  -26.6573  -46.3831 C.3       13 UNK         0.1400 
     76 CB          1.0871  -26.7406  -46.4656 C.3       13 UNK        -0.1800 
     77 C          -1.0771  -26.6751  -47.7895 C.2       13 UNK         0.5000 
     78 O          -1.5294  -27.7292  -48.2364 O.2       13 UNK        -0.5000 
     79 N          -1.1646  -25.5037  -48.4359 N.am      14 UNK        -0.5000 
     80 CA         -1.8231  -25.2758  -49.7266 C.3       14 UNK         0.1400 
     81 CB         -1.2176  -24.0243  -50.3863 C.3       14 UNK        -0.1800 
     82 C          -3.3642  -25.1909  -49.6229 C.2       14 UNK         0.5000 
     83 O          -3.9784  -24.3419  -50.2746 O.2       14 UNK        -0.5000 
     84 N          -3.9613  -26.0865  -48.8239 N.am      15 UNK        -0.5000 
     85 CA         -5.3985  -26.2919  -48.6233 C.3       15 UNK         0.1400 
     86 CB         -6.0296  -26.8795  -49.9038 C.3       15 UNK        -0.1800 
     87 C          -6.1337  -25.0344  -48.1148 C.2       15 UNK         0.5000 
     88 O          -7.2045  -24.7021  -48.6232 O.2       15 UNK        -0.5000 
     89 N          -5.5328  -24.3445  -47.1333 N.am      16 UNK        -0.5000 
     90 CA         -5.9951  -23.0734  -46.5561 C.3       16 UNK         0.1400 
     91 CB         -7.2970  -23.2709  -45.7524 C.3       16 UNK        -0.1800 
     92 C          -6.0955  -21.9637  -47.6246 C.2       16 UNK         0.5000 
     93 O          -7.1326  -21.3155  -47.7708 O.2       16 UNK        -0.5000 
     94 N          -4.9969  -21.8165  -48.3747 N.am      17 UNK        -0.5000 
     95 CA         -4.7437  -20.9175  -49.5014 C.3       17 UNK         0.1400 
     96 CB         -4.9683  -19.4436  -49.1085 C.3       17 UNK        -0.1800 
     97 C          -5.4932  -21.2699  -50.8000 C.2       17 UNK         0.5000 
     98 O          -5.2379  -20.6164  -51.8110 O.2       17 UNK        -0.5000 
     99 N          -6.3713  -22.2825  -50.7923 N.am      18 UNK        -0.5000 
    100 CA        -7.2000  -22.6593  -51.9398 C.3       18 UNK         0.1400 
    101 CB        -8.2751  -23.6622  -51.4988 C.3       18 UNK        -0.1800 
    102 C         -6.4002  -23.2179  -53.1303 C.2       18 UNK         0.5000 
    103 O         -6.7945  -22.9872  -54.2742 O.2       18 UNK        -0.5000 
    104 N         -5.2952  -23.9259  -52.8547 N.am      19 UNK        -0.5000 
    105 CA        -4.4063  -24.4610  -53.8885 C.3       19 UNK         0.1400 
    106 CB        -3.6891  -25.7111  -53.3566 C.3       19 UNK        -0.1800 
    107 C         -3.3889  -23.4132  -54.3773 C.2       19 UNK         0.5000 
    108 O         -2.9288  -23.5060  -55.5158 O.2       19 UNK        -0.5000 
    109 N         -3.0531  -22.4424  -53.5161 N.am      20 UNK        -0.5000 
    110 CA        -2.1384  -21.3437  -53.8258 C.3       20 UNK         0.1400 
    111 CB        -1.5697  -20.7679  -52.5189 C.3       20 UNK        -0.1800 
    112 C         -2.8271  -20.2382  -54.6425 C.2       20 UNK         0.5000 
    113 O         -2.2481  -19.7409  -55.6099 O.2       20 UNK        -0.5000 
    114 N         -4.0363  -19.8505  -54.2072 N.am      21 UNK        -0.5000 
    115 CA        -4.9192  -18.8207  -54.7707 C.3       21 UNK         0.1400 
    116 CB        -5.4629  -19.2835  -56.1375 C.3       21 UNK        -0.1800 
    117 C         -4.2992  -17.4052  -54.8368 C.2       21 UNK         0.5000 
    118 O         -4.8163  -16.5481  -55.5554 O.2       21 UNK        -0.5000 
    119 N         -3.1973  -17.1877  -54.1037 N.am      22 UNK        -0.5000 
    120 CA        -2.3141  -16.0147  -54.1995 C.3       22 UNK         0.1400 
    121 C         -1.6188  -15.8641  -55.5928 C.2       22 UNK         0.5000 
    122 N         -1.4258  -16.9434  -56.3450 N.am      22 UNK        -0.7600 
    123 O         -1.2331  -14.7730  -56.0021 O.2       22 UNK        -0.5000 
    124 C124       -2.9997  -14.7249  -53.6605 C.3       23 UNK        -0.0398 
    125 S125       -1.8370  -13.4503  -53.0548 S.3       23 UNK        -0.2404 
    126 C126       -1.6100  -13.9082  -51.3031 C.3       23 UNK        -0.0205 
    127 H127        0.8744  -17.4193  -44.8424 H         1 UNK         0.0600 
    128 H128        1.9294  -18.4661  -45.7889 H         1 UNK         0.0600 
    129 H129        2.6221  -17.4007  -44.5689 H         1 UNK         0.0600 
    130 H130        3.2435  -17.5550  -47.4548 H         1 UNK         0.3000 
    131 H131        2.1848  -15.3722  -48.9031 H         1 UNK         0.0600 
    132 H132        4.9340  -16.6454  -49.3587 H         1 UNK         0.0800 
    133 H133        3.4632  -17.4694  -49.7712 H         1 UNK         0.0800 
    134 H134        2.9266  -17.6191  -52.2260 H         1 UNK         0.0800 
    135 H135        2.5695  -16.2124  -53.1939 H         1 UNK         0.0800 
    136 H136        0.8995  -14.4572  -52.2292 H         1 UNK         0.1150 
    137 H137       -2.3130  -16.1890  -49.9807 H         1 UNK         0.1150 
    138 H138        1.2469  -18.4553  -50.7235 H         1 UNK         0.1150 
    139 H139       -2.2084  -18.4677  -49.2729 H         1 UNK         0.0800 
    140 H140       -1.0264  -19.5341  -50.0025 H         1 UNK         0.0800 
    141 H141       -1.2632  -19.6681  -45.9039 H         1 UNK         0.0800 
    142 H142       -2.3273  -19.8179  -47.2783 H         1 UNK         0.0800 
    143 H143       -0.8244  -21.5571  -48.2575 H         1 UNK         0.0600 
    144 H144        0.9195  -20.9766  -46.0017 H         1 UNK         0.3000 
    145 H145        3.0186  -23.8082  -46.5889 H         1 UNK         0.0600 
    146 H146        4.7712  -22.0940  -46.9784 H         1 UNK         0.0600 
    147 H147        3.7477  -22.2391  -48.3982 H         1 UNK         0.0600 
    148 H148        3.5421  -20.8721  -47.3097 H         1 UNK         0.0600 
    149 H149        3.4133  -21.5659  -44.9222 H         1 UNK         0.3000 
    150 H150        2.4254  -23.0953  -42.0436 H         1 UNK         0.0600 
    151 H151        4.4330  -21.8622  -42.9080 H         1 UNK         0.0600 
    152 H152        3.6608  -21.0134  -41.5827 H         1 UNK         0.0600 
    153 H153        3.4301  -20.4445  -43.2277 H         1 UNK         0.0600 
    154 H154        0.7844  -21.7622  -41.3407 H         1 UNK         0.3000 
    155 H155       -1.5801  -19.9222  -42.8152 H         1 UNK         0.0600 
    156 H156       -1.9355  -19.9737  -40.3679 H         1 UNK         0.0600 
    157 H157       -0.2643  -20.4376  -40.0870 H         1 UNK         0.0600 
    158 H158       -1.3597  -21.5320  -40.9209 H         1 UNK         0.0600 
    159 H159       -1.0784  -17.8130  -42.5103 H         1 UNK         0.3000 
    160 H160        0.6373  -16.0260  -40.2190 H         1 UNK         0.0600 
    161 H161        1.9325  -15.8638  -42.9836 H         1 UNK         0.0600 
    162 H162        2.8081  -16.2878  -41.5167 H         1 UNK         0.0600 
    163 H163        2.0651  -14.7068  -41.6670 H         1 UNK         0.0600 
    164 H164       -0.3653  -15.3430  -42.8761 H         1 UNK         0.3000 
    165 H165       -3.7486  -15.4097  -42.0724 H         1 UNK         0.0600 
    166 H166       -2.0880  -12.8350  -42.2520 H         1 UNK         0.0600 
    167 H167       -3.8126  -12.9808  -42.5936 H         1 UNK         0.0600 
    168 H168       -3.2163  -13.2300  -40.9609 H         1 UNK         0.0600 
    169 H169       -2.5628  -14.2330  -44.3033 H         1 UNK         0.3000 
    170 H170       -1.2706  -16.9115  -46.0080 H         1 UNK         0.0600 
    171 H171       -3.5543  -17.6996  -46.4542 H         1 UNK         0.0600 
    172 H172       -4.1487  -16.0583  -46.6190 H         1 UNK         0.0600 
    173 H173       -3.0093  -16.7069  -47.7961 H         1 UNK         0.0600 
    174 H174       -0.5317  -14.9327  -46.5263 H         1 UNK         0.3000 
    175 H175       -0.8366  -12.8715  -47.9599 H         1 UNK         0.0600 
    176 H176       -2.5446  -10.9302  -46.2952 H         1 UNK         0.0600 
    177 H177       -1.4293  -10.4769  -47.5823 H         1 UNK         0.0600 
    178 H178       -2.8717  -11.4038  -47.9597 H         1 UNK         0.0600 
    179 H179       -0.4684  -12.7786  -45.0889 H         1 UNK         0.3000 
    180 H180        2.2876  -10.9108  -44.8648 H         1 UNK         0.0600 
    181 H181        0.4978  -11.8401  -43.3818 H         1 UNK         0.0600 
    182 H182        0.9807  -13.4873  -43.8042 H         1 UNK         0.0600 
    183 H183        2.0752  -12.4408  -42.9130 H         1 UNK         0.0600 
    184 H184        2.7605  -13.7353  -45.7161 H         1 UNK         0.3000 
    185 H185        5.9277  -12.9871  -46.8958 H         1 UNK         0.0600 
    186 H186        6.8830  -14.7789  -45.4581 H         1 UNK         0.0600 
    187 H187        6.6972  -13.2950  -44.5381 H         1 UNK         0.0600 
    188 H188        5.5470  -14.6079  -44.3179 H         1 UNK         0.0600 
    189 H189        4.5842  -15.4796  -46.3996 H         1 UNK         0.3000 
    190 H190       -0.7055  -22.4113  -44.8167 H         1 UNK         0.3000 
    191 H191       -3.3552  -23.5574  -44.6803 H         1 UNK         0.0600 
    192 H192       -2.5194  -24.5824  -42.5711 H         1 UNK         0.0600 
    193 H193       -2.2045  -22.8577  -42.6353 H         1 UNK         0.0600 
    194 H194       -0.8954  -24.0065  -42.9148 H         1 UNK         0.0600 
    195 H195       -0.0863  -24.8373  -45.3468 H         1 UNK         0.3000 
    196 H196       -0.8030  -27.5389  -45.8479 H         1 UNK         0.0600 
    197 H197        1.4001  -27.6405  -46.9964 H         1 UNK         0.0600 
    198 H198        1.5343  -26.7759  -45.4719 H         1 UNK         0.0600 
    199 H199        1.5112  -25.8860  -46.9920 H         1 UNK         0.0600 
    200 H200       -0.7290  -24.6917  -48.0145 H         1 UNK         0.3000 
    201 H201       -1.6011  -26.1250  -50.3757 H         1 UNK         0.0600 
    202 H202       -0.1314  -24.0925  -50.4461 H         1 UNK         0.0600 
    203 H203       -1.4693  -23.1204  -49.8332 H         1 UNK         0.0600 
    204 H204       -1.5864  -23.8977  -51.4039 H         1 UNK         0.0600 
    205 H205       -3.3544  -26.7401  -48.3426 H         1 UNK         0.3000 
    206 H206       -5.4955  -27.0385  -47.8340 H         1 UNK         0.0600 
    207 H207       -5.5204  -27.7935  -50.2093 H         1 UNK         0.0600 
    208 H208       -7.0787  -27.1318  -49.7455 H         1 UNK         0.0600 
    209 H209       -5.9831  -26.1781  -50.7371 H         1 UNK         0.0600 
    210 H210       -4.6349  -24.6791  -46.8073 H         1 UNK         0.3000 
    211 H211       -5.2262  -22.7496  -45.8546 H         1 UNK         0.0600 
    212 H212       -8.1334  -23.5555  -46.3914 H         1 UNK         0.0600 
    213 H213       -7.5791  -22.3515  -45.2381 H         1 UNK         0.0600 
    214 H214       -7.1771  -24.0437  -44.9932 H         1 UNK         0.0600 
    215 H215       -4.2069  -22.4128  -48.1331 H         1 UNK         0.3000 
    216 H216       -3.6836  -21.0386  -49.7281 H         1 UNK         0.0600 
    217 H217       -6.0253  -19.2193  -48.9637 H         1 UNK         0.0600 
    218 H218       -4.6017  -18.7715  -49.8853 H         1 UNK         0.0600 
    219 H219       -4.4462  -19.1932  -48.1867 H         1 UNK         0.0600 
    220 H220       -6.5079  -22.8054  -49.9371 H         1 UNK         0.3000 
    221 H221       -7.7084  -21.7560  -52.2837 H         1 UNK         0.0600 
    222 H222       -7.8377  -24.6148  -51.2004 H         1 UNK         0.0600 
    223 H223       -8.8547  -23.2798  -50.6584 H         1 UNK         0.0600 
    224 H224       -8.9736  -23.8658  -52.3114 H         1 UNK         0.0600 
    225 H225       -5.0132  -24.0606  -51.8865 H         1 UNK         0.3000 
    226 H226       -5.0045  -24.7688  -54.7489 H         1 UNK         0.0600 
    227 H227       -4.3988  -26.4408  -52.9664 H         1 UNK         0.0600 
    228 H228       -3.1234  -26.1991  -54.1512 H         1 UNK         0.0600 
    229 H229       -2.9852  -25.4677  -52.5630 H         1 UNK         0.0600 
    230 H230       -3.5049  -22.4282  -52.6141 H         1 UNK         0.3000 
    231 H231       -1.3046  -21.7297  -54.4162 H         1 UNK         0.0600 
    232 H232       -2.3593  -20.4038  -51.8612 H         1 UNK         0.0600 
    233 H233       -0.9967  -21.5171  -51.9735 H         1 UNK         0.0600 
    234 H234       -0.8973  -19.9323  -52.7190 H         1 UNK         0.0600 
    235 H235       -4.4047  -20.2878  -53.3635 H         1 UNK         0.3000 
    236 H236       -5.7653  -18.7454  -54.0862 H         1 UNK         0.0600 
    237 H237       -5.9135  -20.2737  -56.0656 H         1 UNK         0.0600 
    238 H238       -6.2327  -18.6049  -56.5065 H         1 UNK         0.0600 
    239 H239       -4.6757  -19.3269  -56.8908 H         1 UNK         0.0600 
    240 H240       -2.8539  -17.9512  -53.5411 H         1 UNK         0.3000 
    241 H241       -1.4925  -16.2531  -53.5270 H         1 UNK         0.0600 
    242 H242       -1.7348  -17.8616  -56.0409 H         1 UNK         0.3800 
    243 H243       -0.9740  -16.8443  -57.2401 H         1 UNK         0.3800 
    244 H244       -3.6718  -14.9749  -52.8387 H         1 UNK         0.0800 
    245 H245       -3.6311  -14.2816  -54.4318 H         1 UNK         0.0800 
    246 H246       -1.0854  -13.0977  -50.7956 H         1 UNK         0.0800 
    247 H247       -2.5856  -13.9904  -50.8217 H         1 UNK         0.0800 
@<TRIPOS>BOND
     1    1    2 1    
     2    1  127 1    
     3    1  128 1    
     4    1  129 1    
     5    2    3 2    
     6    2    4 am   BACKBONE|DICT|INTERRES
     7    4    5 1    
     8    4  130 1    
     9    5    6 1    
    10    5   65 1    
    11    5  131 1    
    12    6    7 1    
    13    6  132 1    
    14    6  133 1    
    15    7    8 1    
    16    8    9 1    
    17    8  134 1    
    18    8  135 1    
    19    9   10 ar   
    20    9   14 ar   
    21   10   11 ar   
    22   10  136 1    
    23   11   12 ar   
    24   11  126 1    
    25   12   13 ar   
    26   12  137 1    
    27   13   14 ar   
    28   13   15 1    
    29   14  138 1    
    30   15   16 1    
    31   15  139 1    
    32   15  140 1    
    33   16   17 1    
    34   17   18 1    
    35   17  141 1    
    36   17  142 1    
    37   18   19 1    
    38   18   67 1    
    39   18  143 1    
    40   19   20 am   BACKBONE|DICT|INTERRES
    41   19  144 1    
    42   20   21 2    
    43   20   22 1    
    44   22   23 1    
    45   22   24 1    
    46   22  145 1    
    47   23  146 1    
    48   23  147 1    
    49   23  148 1    
    50   24   25 am   BACKBONE|DICT|INTERRES
    51   24  149 1    
    52   25   26 2    
    53   25   27 1    
    54   27   28 1    
    55   27   29 1    
    56   27  150 1    
    57   28  151 1    
    58   28  152 1    
    59   28  153 1    
    60   29   30 am   BACKBONE|DICT|INTERRES
    61   29  154 1    
    62   30   31 2    
    63   30   32 1    
    64   32   33 1    
    65   32   34 1    
    66   32  155 1    
    67   33  156 1    
    68   33  157 1    
    69   33  158 1    
    70   34   35 am   BACKBONE|DICT|INTERRES
    71   34  159 1    
    72   35   36 2    
    73   35   37 1    
    74   37   38 1    
    75   37   39 1    
    76   37  160 1    
    77   38  161 1    
    78   38  162 1    
    79   38  163 1    
    80   39   40 am   BACKBONE|DICT|INTERRES
    81   39  164 1    
    82   40   41 2    
    83   40   42 1    
    84   42   43 1    
    85   42   44 1    
    86   42  165 1    
    87   43  166 1    
    88   43  167 1    
    89   43  168 1    
    90   44   45 am   BACKBONE|DICT|INTERRES
    91   44  169 1    
    92   45   46 2    
    93   45   47 1    
    94   47   48 1    
    95   47   49 1    
    96   47  170 1    
    97   48  171 1    
    98   48  172 1    
    99   48  173 1    
   100   49   50 am   BACKBONE|DICT|INTERRES
   101   49  174 1    
   102   50   51 2    
   103   50   52 1    
   104   52   53 1    
   105   52   54 1    
   106   52  175 1    
   107   53  176 1    
   108   53  177 1    
   109   53  178 1    
   110   54   55 am   BACKBONE|DICT|INTERRES
   111   54  179 1    
   112   55   56 2    
   113   55   57 1    
   114   57   58 1    
   115   57   59 1    
   116   57  180 1    
   117   58  181 1    
   118   58  182 1    
   119   58  183 1    
   120   59   60 am   BACKBONE|DICT|INTERRES
   121   59  184 1    
   122   60   61 2    
   123   60   62 1    
   124   62   63 1    
   125   62   64 1    
   126   62  185 1    
   127   63  186 1    
   128   63  187 1    
   129   63  188 1    
   130   64   65 am   BACKBONE|DICT|INTERRES
   131   64  189 1    
   132   65   66 2    
   133   67   68 2    
   134   67   69 am   BACKBONE|DICT|INTERRES
   135   69   70 1    
   136   69  190 1    
   137   70   71 1    
   138   70   72 1    
   139   70  191 1    
   140   71  192 1    
   141   71  193 1    
   142   71  194 1    
   143   72   73 2    
   144   72   74 am   BACKBONE|DICT|INTERRES
   145   74   75 1    
   146   74  195 1    
   147   75   76 1    
   148   75   77 1    
   149   75  196 1    
   150   76  197 1    
   151   76  198 1    
   152   76  199 1    
   153   77   78 2    
   154   77   79 am   BACKBONE|DICT|INTERRES
   155   79   80 1    
   156   79  200 1    
   157   80   81 1    
   158   80   82 1    
   159   80  201 1    
   160   81  202 1    
   161   81  203 1    
   162   81  204 1    
   163   82   83 2    
   164   82   84 am   BACKBONE|DICT|INTERRES
   165   84   85 1    
   166   84  205 1    
   167   85   86 1    
   168   85   87 1    
   169   85  206 1    
   170   86  207 1    
   171   86  208 1    
   172   86  209 1    
   173   87   88 2    
   174   87   89 am   BACKBONE|DICT|INTERRES
   175   89   90 1    
   176   89  210 1    
   177   90   91 1    
   178   90   92 1    
   179   90  211 1    
   180   91  212 1    
   181   91  213 1    
   182   91  214 1    
   183   92   93 2    
   184   92   94 am   BACKBONE|DICT|INTERRES
   185   94   95 1    
   186   94  215 1    
   187   95   96 1    
   188   95   97 1    
   189   95  216 1    
   190   96  217 1    
   191   96  218 1    
   192   96  219 1    
   193   97   98 2    
   194   97   99 am   BACKBONE|DICT|INTERRES
   195   99  100 1    
   196   99  220 1    
   197  100  101 1    
   198  100  102 1    
   199  100  221 1    
   200  101  222 1    
   201  101  223 1    
   202  101  224 1    
   203  102  103 2    
   204  102  104 am   BACKBONE|DICT|INTERRES
   205  104  105 1    
   206  104  225 1    
   207  105  106 1    
   208  105  107 1    
   209  105  226 1    
   210  106  227 1    
   211  106  228 1    
   212  106  229 1    
   213  107  108 2    
   214  107  109 am   BACKBONE|DICT|INTERRES
   215  109  110 1    
   216  109  230 1    
   217  110  111 1    
   218  110  112 1    
   219  110  231 1    
   220  111  232 1    
   221  111  233 1    
   222  111  234 1    
   223  112  113 2    
   224  112  114 am   BACKBONE|DICT|INTERRES
   225  114  115 1    
   226  114  235 1    
   227  115  116 1    
   228  115  117 1    
   229  115  236 1    
   230  116  237 1    
   231  116  238 1    
   232  116  239 1    
   233  117  118 2    
   234  117  119 am   BACKBONE|DICT|INTERRES
   235  119  120 1    
   236  119  240 1    
   237  120  121 1    
   238  120  124 1    
   239  120  241 1    
   240  121  122 am   BACKBONE|DICT|INTERRES
   241  121  123 2    
   242  122  242 1    
   243  122  243 1    
   244  124  125 1    
   245  124  244 1    
   246  124  245 1    
   247  125  126 1    
   248  126  246 1    
   249  126  247 1    
@<TRIPOS>SUBSTRUCTURE
     1 UNK         1 GROUP             0       ****    0 ROOT    
