@<TRIPOS>MOLECULE
3R540
247   249    1
SMALL
USER_CHARGES


@<TRIPOS>ATOM
      1 CA          5.0526  -13.3025  -44.2479 C.3       0 UNK        -0.1800 
      2 C           3.8958  -13.8550  -45.0662 C.2       0 UNK         0.5000 
      3 O           3.2208  -14.7798  -44.6176 O.2       0 UNK        -0.5000 
      4 N           3.6669  -13.2959  -46.2598 N.am      1 UNK        -0.5000 
      5 CA          2.5867  -13.6804  -47.1818 C.3       1 UNK         0.1400 
      6 C6          3.1287  -14.0707  -48.5794 C.3       23 UNK        -0.0398 
      7 S7          4.2739  -15.4879  -48.5130 S.3       23 UNK        -0.2404 
      8 C8          4.3043  -16.0028  -50.2553 C.3       23 UNK        -0.0205 
      9 C9          3.2713  -17.0789  -50.5541 C.ar      23 UNK        -0.0193 
     10 C10         1.9885  -16.7358  -50.9908 C.ar      23 UNK        -0.1150 
     11 C11         1.0657  -17.7292  -51.3334 C.ar      23 UNK        -0.0193 
     12 C12         1.4338  -19.0739  -51.2366 C.ar      23 UNK        -0.1150 
     13 C13         2.7092  -19.4297  -50.7876 C.ar      23 UNK        -0.0193 
     14 C14         3.6198  -18.4278  -50.4411 C.ar      23 UNK        -0.1150 
     15 C15         3.1210  -20.8926  -50.7113 C.3       23 UNK        -0.0205 
     16 S16         2.7576  -21.6189  -49.0836 S.3       23 UNK        -0.2404 
     17 C17         0.9421  -21.7331  -49.1634 C.3       23 UNK        -0.0398 
     18 CA          0.3667  -22.7383  -48.1422 C.3       11 UNK         0.1400 
     19 N           0.5158  -22.2912  -46.7537 N.am      11 UNK        -0.5000 
     20 C           0.2231  -23.0404  -45.6809 C.2       10 UNK         0.5000 
     21 O          -0.1355  -24.2166  -45.7466 O.2       10 UNK        -0.5000 
     22 CA          0.2796  -22.3463  -44.3079 C.3       10 UNK         0.1400 
     23 CB          1.7208  -22.2740  -43.7822 C.3       10 UNK        -0.1800 
     24 N          -0.3155  -21.0086  -44.3342 N.am      10 UNK        -0.5000 
     25 C          -1.6115  -20.7668  -44.5811 C.2       9 UNK         0.5000 
     26 O          -2.4482  -21.6536  -44.7465 O.2       9 UNK        -0.5000 
     27 CA         -2.0433  -19.2948  -44.7120 C.3       9 UNK         0.1400 
     28 CB         -2.2867  -18.6717  -43.3300 C.3       9 UNK        -0.1800 
     29 N          -1.0794  -18.4865  -45.4588 N.am      9 UNK        -0.5000 
     30 C          -0.7624  -18.6762  -46.7483 C.2       8 UNK         0.5000 
     31 O          -1.3002  -19.5178  -47.4661 O.2       8 UNK        -0.5000 
     32 CA          0.3888  -17.8265  -47.3161 C.3       8 UNK         0.1400 
     33 CB         -0.1124  -16.4523  -47.7784 C.3       8 UNK        -0.1800 
     34 N           1.4792  -17.6668  -46.3533 N.am      8 UNK        -0.5000 
     35 C           2.2480  -18.6796  -45.9292 C.2       7 UNK         0.5000 
     36 O           2.1352  -19.8365  -46.3308 O.2       7 UNK        -0.5000 
     37 CA          3.2608  -18.3619  -44.8186 C.3       7 UNK         0.1400 
     38 CB          4.5425  -17.7442  -45.3941 C.3       7 UNK        -0.1800 
     39 N           2.6863  -17.4812  -43.8003 N.am      7 UNK        -0.5000 
     40 C           1.7818  -17.8910  -42.9002 C.2       6 UNK         0.5000 
     41 O           1.3559  -19.0447  -42.8455 O.2       6 UNK        -0.5000 
     42 CA          1.2421  -16.8489  -41.9043 C.3       6 UNK         0.1400 
     43 CB          2.1674  -16.7420  -40.6834 C.3       6 UNK        -0.1800 
     44 N           1.0472  -15.5159  -42.4701 N.am      6 UNK        -0.5000 
     45 C           0.2274  -15.1960  -43.4767 C.2       5 UNK         0.5000 
     46 O          -0.4207  -16.0318  -44.1078 O.2       5 UNK        -0.5000 
     47 CA          0.1106  -13.6958  -43.8326 C.3       5 UNK         0.1400 
     48 CB         -1.0762  -13.4059  -44.7688 C.3       5 UNK        -0.1800 
     49 N           0.0003  -12.8049  -42.6748 N.am      5 UNK        -0.5000 
     50 C           0.9738  -12.4553  -41.8242 C.2       4 UNK         0.5000 
     51 O           2.0996  -12.9557  -41.8324 O.2       4 UNK        -0.5000 
     52 CA          0.6297  -11.3168  -40.8404 C.3       4 UNK         0.1400 
     53 CB          1.7065  -11.1201  -39.7587 C.3       4 UNK        -0.1800 
     54 N           0.4686  -10.0648  -41.5797 N.am      4 UNK        -0.5000 
     55 C          -0.6135   -9.7266  -42.2915 C.2       3 UNK         0.5000 
     56 O          -1.6727  -10.3559  -42.2576 O.2       3 UNK        -0.5000 
     57 CA         -0.4713   -8.5506  -43.2768 C.3       3 UNK         0.1400 
     58 CB          0.5709   -7.4920  -42.8509 C.3       3 UNK        -0.1800 
     59 N          -0.2079   -9.0535  -44.6315 N.am      3 UNK        -0.5000 
     60 C           0.8459   -9.7796  -45.0343 C.2       2 UNK         0.5000 
     61 O           1.8302  -10.0289  -44.3321 O.2       2 UNK        -0.5000 
     62 CA          0.7896  -10.3283  -46.4665 C.3       2 UNK         0.1400 
     63 CB          1.2085   -9.2619  -47.4920 C.3       2 UNK        -0.1800 
     64 N           1.6952  -11.4686  -46.5491 N.am      2 UNK        -0.5000 
     65 C           1.5245  -12.5638  -47.2983 C.2       1 UNK         0.5000 
     66 O           0.5672  -12.7180  -48.0565 O.2       1 UNK        -0.5000 
     67 C          -1.0998  -23.0670  -48.4836 C.2       11 UNK         0.5000 
     68 O          -1.3530  -24.1102  -49.0828 O.2       11 UNK        -0.5000 
     69 N          -2.0392  -22.2022  -48.0754 N.am      12 UNK        -0.5000 
     70 CA         -3.4784  -22.4054  -48.2483 C.3       12 UNK         0.1400 
     71 CB         -4.2407  -21.1443  -47.8173 C.3       12 UNK        -0.1800 
     72 C          -3.9963  -23.6463  -47.5004 C.2       12 UNK         0.5000 
     73 O          -4.7704  -24.4155  -48.0678 O.2       12 UNK        -0.5000 
     74 N          -3.5276  -23.8518  -46.2615 N.am      13 UNK        -0.5000 
     75 CA         -3.8167  -25.0357  -45.4513 C.3       13 UNK         0.1400 
     76 CB         -3.2605  -24.8460  -44.0325 C.3       13 UNK        -0.1800 
     77 C          -3.2812  -26.3312  -46.0885 C.2       13 UNK         0.5000 
     78 O          -4.0180  -27.3151  -46.1659 O.2       13 UNK        -0.5000 
     79 N          -2.0365  -26.2939  -46.5873 N.am      14 UNK        -0.5000 
     80 CA         -1.4030  -27.3882  -47.3304 C.3       14 UNK         0.1400 
     81 CB          0.0764  -27.0544  -47.5734 C.3       14 UNK        -0.1800 
     82 C          -2.1174  -27.7099  -48.6589 C.2       14 UNK         0.5000 
     83 O          -2.1896  -28.8767  -49.0451 O.2       14 UNK        -0.5000 
     84 N          -2.6747  -26.6774  -49.3043 N.am      15 UNK        -0.5000 
     85 CA         -3.5032  -26.7606  -50.5078 C.3       15 UNK         0.1400 
     86 CB         -3.4041  -25.4268  -51.2692 C.3       15 UNK        -0.1800 
     87 C          -4.9750  -27.1403  -50.2221 C.2       15 UNK         0.5000 
     88 O          -5.7911  -27.0858  -51.1418 O.2       15 UNK        -0.5000 
     89 N          -5.2973  -27.5158  -48.9743 N.am      16 UNK        -0.5000 
     90 CA         -6.6058  -27.9652  -48.4868 C.3       16 UNK         0.1400 
     91 CB         -7.0326  -29.2801  -49.1737 C.3       16 UNK        -0.1800 
     92 C          -7.6839  -26.8638  -48.5467 C.2       16 UNK         0.5000 
     93 O          -8.8112  -27.1168  -48.9751 O.2       16 UNK        -0.5000 
     94 N          -7.3025  -25.6593  -48.1009 N.am      17 UNK        -0.5000 
     95 CA         -8.0993  -24.4308  -48.0057 C.3       17 UNK         0.1400 
     96 CB         -9.3732  -24.6326  -47.1577 C.3       17 UNK        -0.1800 
     97 C          -8.3759  -23.7563  -49.3644 C.2       17 UNK         0.5000 
     98 O          -9.2378  -22.8785  -49.4435 O.2       17 UNK        -0.5000 
     99 N          -7.6188  -24.1380  -50.4007 N.am      18 UNK        -0.5000 
    100 CA        -7.5576  -23.4367  -51.6817 C.3       18 UNK         0.1400 
    101 CB        -7.0393  -24.4066  -52.7543 C.3       18 UNK        -0.1800 
    102 C         -6.6546  -22.1908  -51.5819 C.2       18 UNK         0.5000 
    103 O         -5.9380  -22.0156  -50.5951 O.2       18 UNK        -0.5000 
    104 N         -6.6810  -21.3541  -52.6261 N.am      19 UNK        -0.5000 
    105 CA        -5.9227  -20.1004  -52.7125 C.3       19 UNK         0.1400 
    106 CB        -6.5115  -19.2536  -53.8517 C.3       19 UNK        -0.1800 
    107 C         -4.4000  -20.2756  -52.9041 C.2       19 UNK         0.5000 
    108 O         -3.6757  -19.2811  -52.8588 O.2       19 UNK        -0.5000 
    109 N         -3.9421  -21.5139  -53.1513 N.am      20 UNK        -0.5000 
    110 CA        -2.5447  -21.9110  -53.3770 C.3       20 UNK         0.1400 
    111 CB        -1.7185  -21.7550  -52.0835 C.3       20 UNK        -0.1800 
    112 C         -1.9079  -21.2038  -54.5945 C.2       20 UNK         0.5000 
    113 O         -0.7255  -20.8619  -54.5690 O.2       20 UNK        -0.5000 
    114 N         -2.7338  -20.9900  -55.6305 N.am      21 UNK        -0.5000 
    115 CA        -2.4543  -20.3077  -56.9005 C.3       21 UNK         0.1400 
    116 CB        -1.3013  -20.9920  -57.6647 C.3       21 UNK        -0.1800 
    117 C         -2.2557  -18.7791  -56.7919 C.2       21 UNK         0.5000 
    118 O         -1.9792  -18.1438  -57.8114 O.2       21 UNK        -0.5000 
    119 N         -2.4237  -18.2012  -55.5958 N.am      22 UNK        -0.5000 
    120 CA        -2.4007  -16.7489  -55.3655 C.3       22 UNK         0.1400 
    121 C         -3.7524  -16.0721  -55.7288 C.2       22 UNK         0.5000 
    122 N         -3.7514  -14.7661  -55.9606 N.am      22 UNK        -0.7600 
    123 O         -4.8050  -16.7040  -55.7862 O.2       22 UNK        -0.5000 
    124 C124       -1.9693  -16.4049  -53.9180 C.3       23 UNK        -0.0398 
    125 S125       -0.2440  -16.9013  -53.5996 S.3       23 UNK        -0.2404 
    126 C126       -0.3153  -17.3461  -51.8396 C.3       23 UNK        -0.0205 
    127 H127        4.6840  -12.9186  -43.2965 H         1 UNK         0.0600 
    128 H128        5.5680  -12.4938  -44.7660 H         1 UNK         0.0600 
    129 H129        5.7749  -14.0922  -44.0419 H         1 UNK         0.0600 
    130 H130        4.2781  -12.5607  -46.5870 H         1 UNK         0.3000 
    131 H131        2.0536  -14.5466  -46.7863 H         1 UNK         0.0600 
    132 H132        3.6471  -13.2286  -49.0410 H         1 UNK         0.0800 
    133 H133        2.3066  -14.3293  -49.2476 H         1 UNK         0.0800 
    134 H134        5.3015  -16.3810  -50.4855 H         1 UNK         0.0800 
    135 H135        4.1562  -15.1398  -50.9063 H         1 UNK         0.0800 
    136 H136        1.7133  -15.6958  -51.0927 H         1 UNK         0.1150 
    137 H137        0.7309  -19.8428  -51.5240 H         1 UNK         0.1150 
    138 H138        4.6104  -18.6986  -50.1036 H         1 UNK         0.1150 
    139 H139        2.6276  -21.4689  -51.4955 H         1 UNK         0.0800 
    140 H140        4.1914  -20.9833  -50.9016 H         1 UNK         0.0800 
    141 H141        0.6756  -22.0334  -50.1780 H         1 UNK         0.0800 
    142 H142        0.5179  -20.7401  -49.0123 H         1 UNK         0.0800 
    143 H143        0.9260  -23.6713  -48.2401 H         1 UNK         0.0600 
    144 H144        0.8697  -21.3491  -46.6147 H         1 UNK         0.3000 
    145 H145       -0.3005  -22.9520  -43.6087 H         1 UNK         0.0600 
    146 H146        1.7528  -21.8492  -42.7788 H         1 UNK         0.0600 
    147 H147        2.1657  -23.2683  -43.7288 H         1 UNK         0.0600 
    148 H148        2.3573  -21.6648  -44.4232 H         1 UNK         0.0600 
    149 H149        0.3063  -20.2285  -44.1504 H         1 UNK         0.3000 
    150 H150       -2.9865  -19.2732  -45.2612 H         1 UNK         0.0600 
    151 H151       -3.0305  -19.2409  -42.7712 H         1 UNK         0.0600 
    152 H152       -2.6568  -17.6500  -43.4176 H         1 UNK         0.0600 
    153 H153       -1.3755  -18.6475  -42.7329 H         1 UNK         0.0600 
    154 H154       -0.6383  -17.7234  -44.9522 H         1 UNK         0.3000 
    155 H155        0.7864  -18.3484  -48.1894 H         1 UNK         0.0600 
    156 H156       -0.4602  -15.8481  -46.9416 H         1 UNK         0.0600 
    157 H157        0.6733  -15.9020  -48.2938 H         1 UNK         0.0600 
    158 H158       -0.9428  -16.5559  -48.4780 H         1 UNK         0.0600 
    159 H159        1.6022  -16.7585  -45.9312 H         1 UNK         0.3000 
    160 H160        3.5359  -19.3048  -44.3408 H         1 UNK         0.0600 
    161 H161        4.3433  -16.8000  -45.8978 H         1 UNK         0.0600 
    162 H162        5.0022  -18.4115  -46.1240 H         1 UNK         0.0600 
    163 H163        5.2776  -17.5575  -44.6112 H         1 UNK         0.0600 
    164 H164        2.9381  -16.4963  -43.8463 H         1 UNK         0.3000 
    165 H165        0.2676  -17.2005  -41.5604 H         1 UNK         0.0600 
    166 H166        1.7439  -16.0845  -39.9238 H         1 UNK         0.0600 
    167 H167        2.3195  -17.7179  -40.2203 H         1 UNK         0.0600 
    168 H168        3.1479  -16.3501  -40.9570 H         1 UNK         0.0600 
    169 H169        1.5875  -14.7578  -42.0626 H         1 UNK         0.3000 
    170 H170        1.0199  -13.4225  -44.3662 H         1 UNK         0.0600 
    171 H171       -0.9778  -13.9442  -45.7110 H         1 UNK         0.0600 
    172 H172       -2.0239  -13.7015  -44.3171 H         1 UNK         0.0600 
    173 H173       -1.1397  -12.3458  -45.0130 H         1 UNK         0.0600 
    174 H174       -0.8822  -12.3160  -42.5805 H         1 UNK         0.3000 
    175 H175       -0.3074  -11.5721  -40.3411 H         1 UNK         0.0600 
    176 H176        2.6691  -10.8437  -40.1910 H         1 UNK         0.0600 
    177 H177        1.4190  -10.3385  -39.0554 H         1 UNK         0.0600 
    178 H178        1.8540  -12.0357  -39.1844 H         1 UNK         0.0600 
    179 H179        1.3155   -9.5397  -41.7455 H         1 UNK         0.3000 
    180 H180       -1.4434   -8.0561  -43.3093 H         1 UNK         0.0600 
    181 H181        1.5900   -7.8782  -42.8420 H         1 UNK         0.0600 
    182 H182        0.3542   -7.1143  -41.8509 H         1 UNK         0.0600 
    183 H183        0.5518   -6.6378  -43.5277 H         1 UNK         0.0600 
    184 H184       -0.9643   -8.9144  -45.2872 H         1 UNK         0.3000 
    185 H185       -0.2333  -10.6514  -46.6709 H         1 UNK         0.0600 
    186 H186        0.5476   -8.3954  -47.4504 H         1 UNK         0.0600 
    187 H187        2.2252   -8.9100  -47.3120 H         1 UNK         0.0600 
    188 H188        1.1652   -9.6544  -48.5081 H         1 UNK         0.0600 
    189 H189        2.4549  -11.4369  -45.8806 H         1 UNK         0.3000 
    190 H190       -1.7520  -21.3286  -47.6408 H         1 UNK         0.3000 
    191 H191       -3.6619  -22.5633  -49.3121 H         1 UNK         0.0600 
    192 H192       -4.0788  -20.9118  -46.7655 H         1 UNK         0.0600 
    193 H193       -5.3141  -21.2704  -47.9645 H         1 UNK         0.0600 
    194 H194       -3.9323  -20.2796  -48.4051 H         1 UNK         0.0600 
    195 H195       -2.9373  -23.1408  -45.8374 H         1 UNK         0.3000 
    196 H196       -4.9023  -25.1278  -45.3777 H         1 UNK         0.0600 
    197 H197       -3.4878  -25.7088  -43.4053 H         1 UNK         0.0600 
    198 H198       -3.6978  -23.9703  -43.5527 H         1 UNK         0.0600 
    199 H199       -2.1781  -24.7181  -44.0356 H         1 UNK         0.0600 
    200 H200       -1.4790  -25.4551  -46.4508 H         1 UNK         0.3000 
    201 H201       -1.4505  -28.2829  -46.7064 H         1 UNK         0.0600 
    202 H202        0.6036  -26.8932  -46.6329 H         1 UNK         0.0600 
    203 H203        0.1925  -26.1557  -48.1792 H         1 UNK         0.0600 
    204 H204        0.5805  -27.8692  -48.0943 H         1 UNK         0.0600 
    205 H205       -2.5009  -25.7419  -48.9499 H         1 UNK         0.3000 
    206 H206       -3.0940  -27.5410  -51.1521 H         1 UNK         0.0600 
    207 H207       -2.3653  -25.1387  -51.4310 H         1 UNK         0.0600 
    208 H208       -3.8668  -25.5043  -52.2527 H         1 UNK         0.0600 
    209 H209       -3.8967  -24.6164  -50.7308 H         1 UNK         0.0600 
    210 H210       -4.5697  -27.4818  -48.2707 H         1 UNK         0.3000 
    211 H211       -6.4676  -28.1873  -47.4277 H         1 UNK         0.0600 
    212 H212       -7.2490  -29.1360  -50.2325 H         1 UNK         0.0600 
    213 H213       -7.9321  -29.6870  -48.7105 H         1 UNK         0.0600 
    214 H214       -6.2543  -30.0386  -49.0901 H         1 UNK         0.0600 
    215 H215       -6.3181  -25.5256  -47.8824 H         1 UNK         0.3000 
    216 H216       -7.4677  -23.7262  -47.4629 H         1 UNK         0.0600 
    217 H217       -9.8447  -23.6760  -46.9300 H         1 UNK         0.0600 
    218 H218       -9.1432  -25.1130  -46.2067 H         1 UNK         0.0600 
    219 H219      -10.1147  -25.2423  -47.6740 H         1 UNK         0.0600 
    220 H220       -6.9167  -24.8460  -50.2397 H         1 UNK         0.3000 
    221 H221       -8.5624  -23.1135  -51.9617 H         1 UNK         0.0600 
    222 H222       -6.0093  -24.7026  -52.5623 H         1 UNK         0.0600 
    223 H223       -7.6438  -25.3132  -52.7914 H         1 UNK         0.0600 
    224 H224       -7.0721  -23.9565  -53.7469 H         1 UNK         0.0600 
    225 H225       -7.2849  -21.5647  -53.4078 H         1 UNK         0.3000 
    226 H226       -6.0635  -19.5543  -51.7773 H         1 UNK         0.0600 
    227 H227       -7.5759  -19.0722  -53.7018 H         1 UNK         0.0600 
    228 H228       -6.0250  -18.2789  -53.9048 H         1 UNK         0.0600 
    229 H229       -6.3839  -19.7364  -54.8213 H         1 UNK         0.0600 
    230 H230       -4.6219  -22.2593  -53.1777 H         1 UNK         0.3000 
    231 H231       -2.5640  -22.9735  -53.6237 H         1 UNK         0.0600 
    232 H232       -0.7123  -22.1545  -52.2121 H         1 UNK         0.0600 
    233 H233       -2.1791  -22.2992  -51.2599 H         1 UNK         0.0600 
    234 H234       -1.6232  -20.7112  -51.7839 H         1 UNK         0.0600 
    235 H235       -3.6884  -21.3013  -55.5200 H         1 UNK         0.3000 
    236 H236       -3.3562  -20.4384  -57.5002 H         1 UNK         0.0600 
    237 H237       -1.2190  -20.6008  -58.6794 H         1 UNK         0.0600 
    238 H238       -0.3388  -20.8315  -57.1787 H         1 UNK         0.0600 
    239 H239       -1.4632  -22.0668  -57.7460 H         1 UNK         0.0600 
    240 H240       -2.6777  -18.7717  -54.7995 H         1 UNK         0.3000 
    241 H241       -1.6546  -16.3171  -56.0360 H         1 UNK         0.0600 
    242 H242       -4.6213  -14.3111  -56.1913 H         1 UNK         0.3800 
    243 H243       -2.9038  -14.2204  -55.9275 H         1 UNK         0.3800 
    244 H244       -2.0363  -15.3313  -53.7347 H         1 UNK         0.0800 
    245 H245       -2.6354  -16.8798  -53.1966 H         1 UNK         0.0800 
    246 H246       -1.0182  -18.1696  -51.7004 H         1 UNK         0.0800 
    247 H247       -0.7001  -16.5038  -51.2627 H         1 UNK         0.0800 
@<TRIPOS>BOND
     1    1    2 1    
     2    1  127 1    
     3    1  128 1    
     4    1  129 1    
     5    2    3 2    
     6    2    4 am   BACKBONE|DICT|INTERRES
     7    4    5 1    
     8    4  130 1    
     9    5    6 1    
    10    5   65 1    
    11    5  131 1    
    12    6    7 1    
    13    6  132 1    
    14    6  133 1    
    15    7    8 1    
    16    8    9 1    
    17    8  134 1    
    18    8  135 1    
    19    9   10 ar   
    20    9   14 ar   
    21   10   11 ar   
    22   10  136 1    
    23   11   12 ar   
    24   11  126 1    
    25   12   13 ar   
    26   12  137 1    
    27   13   14 ar   
    28   13   15 1    
    29   14  138 1    
    30   15   16 1    
    31   15  139 1    
    32   15  140 1    
    33   16   17 1    
    34   17   18 1    
    35   17  141 1    
    36   17  142 1    
    37   18   19 1    
    38   18   67 1    
    39   18  143 1    
    40   19   20 am   BACKBONE|DICT|INTERRES
    41   19  144 1    
    42   20   21 2    
    43   20   22 1    
    44   22   23 1    
    45   22   24 1    
    46   22  145 1    
    47   23  146 1    
    48   23  147 1    
    49   23  148 1    
    50   24   25 am   BACKBONE|DICT|INTERRES
    51   24  149 1    
    52   25   26 2    
    53   25   27 1    
    54   27   28 1    
    55   27   29 1    
    56   27  150 1    
    57   28  151 1    
    58   28  152 1    
    59   28  153 1    
    60   29   30 am   BACKBONE|DICT|INTERRES
    61   29  154 1    
    62   30   31 2    
    63   30   32 1    
    64   32   33 1    
    65   32   34 1    
    66   32  155 1    
    67   33  156 1    
    68   33  157 1    
    69   33  158 1    
    70   34   35 am   BACKBONE|DICT|INTERRES
    71   34  159 1    
    72   35   36 2    
    73   35   37 1    
    74   37   38 1    
    75   37   39 1    
    76   37  160 1    
    77   38  161 1    
    78   38  162 1    
    79   38  163 1    
    80   39   40 am   BACKBONE|DICT|INTERRES
    81   39  164 1    
    82   40   41 2    
    83   40   42 1    
    84   42   43 1    
    85   42   44 1    
    86   42  165 1    
    87   43  166 1    
    88   43  167 1    
    89   43  168 1    
    90   44   45 am   BACKBONE|DICT|INTERRES
    91   44  169 1    
    92   45   46 2    
    93   45   47 1    
    94   47   48 1    
    95   47   49 1    
    96   47  170 1    
    97   48  171 1    
    98   48  172 1    
    99   48  173 1    
   100   49   50 am   BACKBONE|DICT|INTERRES
   101   49  174 1    
   102   50   51 2    
   103   50   52 1    
   104   52   53 1    
   105   52   54 1    
   106   52  175 1    
   107   53  176 1    
   108   53  177 1    
   109   53  178 1    
   110   54   55 am   BACKBONE|DICT|INTERRES
   111   54  179 1    
   112   55   56 2    
   113   55   57 1    
   114   57   58 1    
   115   57   59 1    
   116   57  180 1    
   117   58  181 1    
   118   58  182 1    
   119   58  183 1    
   120   59   60 am   BACKBONE|DICT|INTERRES
   121   59  184 1    
   122   60   61 2    
   123   60   62 1    
   124   62   63 1    
   125   62   64 1    
   126   62  185 1    
   127   63  186 1    
   128   63  187 1    
   129   63  188 1    
   130   64   65 am   BACKBONE|DICT|INTERRES
   131   64  189 1    
   132   65   66 2    
   133   67   68 2    
   134   67   69 am   BACKBONE|DICT|INTERRES
   135   69   70 1    
   136   69  190 1    
   137   70   71 1    
   138   70   72 1    
   139   70  191 1    
   140   71  192 1    
   141   71  193 1    
   142   71  194 1    
   143   72   73 2    
   144   72   74 am   BACKBONE|DICT|INTERRES
   145   74   75 1    
   146   74  195 1    
   147   75   76 1    
   148   75   77 1    
   149   75  196 1    
   150   76  197 1    
   151   76  198 1    
   152   76  199 1    
   153   77   78 2    
   154   77   79 am   BACKBONE|DICT|INTERRES
   155   79   80 1    
   156   79  200 1    
   157   80   81 1    
   158   80   82 1    
   159   80  201 1    
   160   81  202 1    
   161   81  203 1    
   162   81  204 1    
   163   82   83 2    
   164   82   84 am   BACKBONE|DICT|INTERRES
   165   84   85 1    
   166   84  205 1    
   167   85   86 1    
   168   85   87 1    
   169   85  206 1    
   170   86  207 1    
   171   86  208 1    
   172   86  209 1    
   173   87   88 2    
   174   87   89 am   BACKBONE|DICT|INTERRES
   175   89   90 1    
   176   89  210 1    
   177   90   91 1    
   178   90   92 1    
   179   90  211 1    
   180   91  212 1    
   181   91  213 1    
   182   91  214 1    
   183   92   93 2    
   184   92   94 am   BACKBONE|DICT|INTERRES
   185   94   95 1    
   186   94  215 1    
   187   95   96 1    
   188   95   97 1    
   189   95  216 1    
   190   96  217 1    
   191   96  218 1    
   192   96  219 1    
   193   97   98 2    
   194   97   99 am   BACKBONE|DICT|INTERRES
   195   99  100 1    
   196   99  220 1    
   197  100  101 1    
   198  100  102 1    
   199  100  221 1    
   200  101  222 1    
   201  101  223 1    
   202  101  224 1    
   203  102  103 2    
   204  102  104 am   BACKBONE|DICT|INTERRES
   205  104  105 1    
   206  104  225 1    
   207  105  106 1    
   208  105  107 1    
   209  105  226 1    
   210  106  227 1    
   211  106  228 1    
   212  106  229 1    
   213  107  108 2    
   214  107  109 am   BACKBONE|DICT|INTERRES
   215  109  110 1    
   216  109  230 1    
   217  110  111 1    
   218  110  112 1    
   219  110  231 1    
   220  111  232 1    
   221  111  233 1    
   222  111  234 1    
   223  112  113 2    
   224  112  114 am   BACKBONE|DICT|INTERRES
   225  114  115 1    
   226  114  235 1    
   227  115  116 1    
   228  115  117 1    
   229  115  236 1    
   230  116  237 1    
   231  116  238 1    
   232  116  239 1    
   233  117  118 2    
   234  117  119 am   BACKBONE|DICT|INTERRES
   235  119  120 1    
   236  119  240 1    
   237  120  121 1    
   238  120  124 1    
   239  120  241 1    
   240  121  122 am   BACKBONE|DICT|INTERRES
   241  121  123 2    
   242  122  242 1    
   243  122  243 1    
   244  124  125 1    
   245  124  244 1    
   246  124  245 1    
   247  125  126 1    
   248  126  246 1    
   249  126  247 1    
@<TRIPOS>SUBSTRUCTURE
     1 UNK         1 GROUP             0       ****    0 ROOT    
