@<TRIPOS>MOLECULE
3R540
247   249    1
SMALL
USER_CHARGES


@<TRIPOS>ATOM
      1 CA         -2.6564  -14.1671  -54.4253 C.3       0 UNK        -0.1800 
      2 C          -1.8156  -13.6053  -53.2909 C.2       0 UNK         0.5000 
      3 O          -1.5333  -12.4063  -53.2726 O.2       0 UNK        -0.5000 
      4 N          -1.4261  -14.4654  -52.3444 N.am      1 UNK        -0.5000 
      5 CA         -0.7167  -14.0837  -51.1219 C.3       1 UNK         0.1400 
      6 C6          0.2131  -15.2227  -50.6289 C.3       23 UNK        -0.0398 
      7 S7          1.7063  -14.5748  -49.8033 S.3       23 UNK        -0.2404 
      8 C8          2.2409  -16.0123  -48.8128 C.3       23 UNK        -0.0205 
      9 C9          2.6817  -17.2424  -49.6057 C.ar      23 UNK        -0.0193 
     10 C10         3.1551  -17.1672  -50.9217 C.ar      23 UNK        -0.1150 
     11 C11         3.5422  -18.3202  -51.6118 C.ar      23 UNK        -0.0193 
     12 C12         3.4520  -19.5618  -50.9733 C.ar      23 UNK        -0.1150 
     13 C13         2.9811  -19.6568  -49.6600 C.ar      23 UNK        -0.0193 
     14 C14         2.6282  -18.4893  -48.9785 C.ar      23 UNK        -0.1150 
     15 C15         2.8606  -21.0190  -48.9862 C.3       23 UNK        -0.0205 
     16 S16         1.2213  -21.2997  -48.2292 S.3       23 UNK        -0.2404 
     17 C17         1.2712  -23.1129  -48.0212 C.3       23 UNK        -0.0398 
     18 CA          0.5566  -23.6648  -46.7651 C.3       11 UNK         0.1400 
     19 N           1.1025  -23.1491  -45.5077 N.am      11 UNK        -0.5000 
     20 C           0.9772  -23.7696  -44.3258 C.2       10 UNK         0.5000 
     21 O           0.3872  -24.8431  -44.1939 O.2       10 UNK        -0.5000 
     22 CA          1.5506  -23.0747  -43.0755 C.3       10 UNK         0.1400 
     23 CB          2.3451  -24.0456  -42.1788 C.3       10 UNK        -0.1800 
     24 N           2.3170  -21.8559  -43.3494 N.am      10 UNK        -0.5000 
     25 C           3.5138  -21.7215  -43.9385 C.2       9 UNK         0.5000 
     26 O           4.1737  -22.6611  -44.3820 O.2       9 UNK        -0.5000 
     27 CA          4.0604  -20.2842  -44.0721 C.3       9 UNK         0.1400 
     28 CB          3.9759  -19.8172  -45.5325 C.3       9 UNK        -0.1800 
     29 N           3.3532  -19.3176  -43.2281 N.am      9 UNK        -0.5000 
     30 C           3.4787  -19.2224  -41.8973 C.2       8 UNK         0.5000 
     31 O           4.2767  -19.8873  -41.2357 O.2       8 UNK        -0.5000 
     32 CA          2.5179  -18.2536  -41.1826 C.3       8 UNK         0.1400 
     33 CB          3.0545  -16.8156  -41.2380 C.3       8 UNK        -0.1800 
     34 N           1.1572  -18.2970  -41.7280 N.am      8 UNK        -0.5000 
     35 C           0.3402  -19.3582  -41.6520 C.2       7 UNK         0.5000 
     36 O           0.6400  -20.4084  -41.0858 O.2       7 UNK        -0.5000 
     37 CA         -1.0239  -19.2523  -42.3558 C.3       7 UNK         0.1400 
     38 CB         -2.0381  -18.4995  -41.4828 C.3       7 UNK        -0.1800 
     39 N          -0.9254  -18.6116  -43.6658 N.am      7 UNK        -0.5000 
     40 C          -0.3588  -19.1675  -44.7456 C.2       6 UNK         0.5000 
     41 O           0.0558  -20.3271  -44.7791 O.2       6 UNK        -0.5000 
     42 CA         -0.2128  -18.2733  -45.9912 C.3       6 UNK         0.1400 
     43 CB         -1.4732  -18.3256  -46.8673 C.3       6 UNK        -0.1800 
     44 N           0.0935  -16.8810  -45.6576 N.am      6 UNK        -0.5000 
     45 C           1.2146  -16.4748  -45.0450 C.2       5 UNK         0.5000 
     46 O           2.1393  -17.2282  -44.7473 O.2       5 UNK        -0.5000 
     47 CA          1.2917  -14.9920  -44.6443 C.3       5 UNK         0.1400 
     48 CB          1.7435  -14.1155  -45.8205 C.3       5 UNK        -0.1800 
     49 N           0.0159  -14.5047  -44.1215 N.am      5 UNK        -0.5000 
     50 C          -0.4891  -14.8552  -42.9303 C.2       4 UNK         0.5000 
     51 O           0.0858  -15.6020  -42.1398 O.2       4 UNK        -0.5000 
     52 CA         -1.8877  -14.3145  -42.5823 C.3       4 UNK         0.1400 
     53 CB         -1.7894  -12.9013  -41.9890 C.3       4 UNK        -0.1800 
     54 N          -2.7841  -14.2944  -43.7384 N.am      4 UNK        -0.5000 
     55 C          -3.2319  -15.3897  -44.3683 C.2       3 UNK         0.5000 
     56 O          -2.9720  -16.5380  -44.0127 O.2       3 UNK        -0.5000 
     57 CA         -4.0583  -15.1591  -45.6466 C.3       3 UNK         0.1400 
     58 CB         -5.5433  -14.9642  -45.3079 C.3       3 UNK        -0.1800 
     59 N          -3.5821  -14.0213  -46.4397 N.am      3 UNK        -0.5000 
     60 C          -2.3700  -13.9559  -47.0049 C.2       2 UNK         0.5000 
     61 O          -1.5150  -14.8370  -46.8886 O.2       2 UNK        -0.5000 
     62 CA         -2.0386  -12.6792  -47.7971 C.3       2 UNK         0.1400 
     63 CB         -1.2596  -11.6882  -46.9194 C.3       2 UNK        -0.1800 
     64 N          -1.2460  -12.9994  -48.9833 N.am      2 UNK        -0.5000 
     65 C          -1.7327  -13.6581  -50.0413 C.2       1 UNK         0.5000 
     66 O          -2.9275  -13.9410  -50.1652 O.2       1 UNK        -0.5000 
     67 C          -0.9779  -23.5328  -46.8406 C.2       11 UNK         0.5000 
     68 O          -1.6056  -24.3226  -47.5472 O.2       11 UNK        -0.5000 
     69 N          -1.5688  -22.6057  -46.0660 N.am      12 UNK        -0.5000 
     70 CA         -3.0189  -22.4117  -45.9258 C.3       12 UNK         0.1400 
     71 CB         -3.2997  -21.2564  -44.9552 C.3       12 UNK        -0.1800 
     72 C          -3.7941  -23.6668  -45.4783 C.2       12 UNK         0.5000 
     73 O          -4.9717  -23.7913  -45.8105 O.2       12 UNK        -0.5000 
     74 N          -3.1215  -24.5904  -44.7766 N.am      13 UNK        -0.5000 
     75 CA         -3.6650  -25.8874  -44.3691 C.3       13 UNK         0.1400 
     76 CB         -2.6610  -26.5748  -43.4315 C.3       13 UNK        -0.1800 
     77 C          -4.0156  -26.8113  -45.5548 C.2       13 UNK         0.5000 
     78 O          -4.9140  -27.6431  -45.4207 O.2       13 UNK        -0.5000 
     79 N          -3.3153  -26.6446  -46.6850 N.am      14 UNK        -0.5000 
     80 CA         -3.5560  -27.3685  -47.9326 C.3       14 UNK         0.1400 
     81 CB         -2.2152  -27.8915  -48.4721 C.3       14 UNK        -0.1800 
     82 C          -4.2363  -26.4665  -48.9759 C.2       14 UNK         0.5000 
     83 O          -5.1320  -26.9249  -49.6854 O.2       14 UNK        -0.5000 
     84 N          -3.7950  -25.2043  -49.0575 N.am      15 UNK        -0.5000 
     85 CA         -4.2338  -24.2206  -50.0465 C.3       15 UNK         0.1400 
     86 CB         -3.1948  -23.0938  -50.0993 C.3       15 UNK        -0.1800 
     87 C          -5.6320  -23.6306  -49.7876 C.2       15 UNK         0.5000 
     88 O          -6.2237  -23.0734  -50.7119 O.2       15 UNK        -0.5000 
     89 N          -6.1162  -23.7250  -48.5423 N.am      16 UNK        -0.5000 
     90 CA         -7.3833  -23.2174  -48.0031 C.3       16 UNK         0.1400 
     91 CB         -8.6014  -23.7648  -48.7720 C.3       16 UNK        -0.1800 
     92 C          -7.4475  -21.6838  -47.8603 C.2       16 UNK         0.5000 
     93 O          -7.9034  -21.2049  -46.8210 O.2       16 UNK        -0.5000 
     94 N          -6.9929  -20.9358  -48.8728 N.am      17 UNK        -0.5000 
     95 CA         -6.9857  -19.4757  -48.8931 C.3       17 UNK         0.1400 
     96 CB         -8.3922  -18.9468  -49.2300 C.3       17 UNK        -0.1800 
     97 C          -5.9618  -18.9564  -49.9110 C.2       17 UNK         0.5000 
     98 O          -5.6750  -19.6350  -50.9007 O.2       17 UNK        -0.5000 
     99 N          -5.4465  -17.7460  -49.6458 N.am      18 UNK        -0.5000 
    100 CA        -4.6038  -16.9020  -50.5102 C.3       18 UNK         0.1400 
    101 CB        -5.4530  -16.3328  -51.6645 C.3       18 UNK        -0.1800 
    102 C         -3.3058  -17.5590  -51.0312 C.2       18 UNK         0.5000 
    103 O         -2.7690  -17.1288  -52.0562 O.2       18 UNK        -0.5000 
    104 N         -2.8556  -18.6217  -50.3469 N.am      19 UNK        -0.5000 
    105 CA        -1.7849  -19.5411  -50.7479 C.3       19 UNK         0.1400 
    106 CB        -0.4163  -18.8408  -50.6790 C.3       19 UNK        -0.1800 
    107 C         -2.0365  -20.2081  -52.1206 C.2       19 UNK         0.5000 
    108 O         -1.0812  -20.5290  -52.8244 O.2       19 UNK        -0.5000 
    109 N         -3.3161  -20.3839  -52.4921 N.am      20 UNK        -0.5000 
    110 CA        -3.7941  -20.9304  -53.7681 C.3       20 UNK         0.1400 
    111 CB        -3.4649  -22.4338  -53.8873 C.3       20 UNK        -0.1800 
    112 C         -3.3230  -20.1047  -54.9857 C.2       20 UNK         0.5000 
    113 O         -3.0041  -20.6675  -56.0343 O.2       20 UNK        -0.5000 
    114 N         -3.2892  -18.7759  -54.8064 N.am      21 UNK        -0.5000 
    115 CA        -2.8778  -17.7556  -55.7746 C.3       21 UNK         0.1400 
    116 CB        -3.7611  -17.7802  -57.0403 C.3       21 UNK        -0.1800 
    117 C         -1.3649  -17.7518  -56.0847 C.2       21 UNK         0.5000 
    118 O         -0.9623  -17.2776  -57.1485 O.2       21 UNK        -0.5000 
    119 N         -0.5488  -18.2498  -55.1464 N.am      22 UNK        -0.5000 
    120 CA         0.9187  -18.1515  -55.1661 C.3       22 UNK         0.1400 
    121 C          1.4054  -16.6762  -55.0772 C.2       22 UNK         0.5000 
    122 N          2.3763  -16.2811  -55.8897 N.am      22 UNK        -0.7600 
    123 O          0.9299  -15.8974  -54.2557 O.2       22 UNK        -0.5000 
    124 C124        1.5258  -19.0154  -54.0351 C.3       23 UNK        -0.0398 
    125 S125        3.3060  -19.3734  -54.2196 S.3       23 UNK        -0.2404 
    126 C126        4.0671  -18.2034  -53.0408 C.3       23 UNK        -0.0205 
    127 H127       -3.3593  -14.9100  -54.0495 H         1 UNK         0.0600 
    128 H128       -3.2313  -13.3763  -54.9075 H         1 UNK         0.0600 
    129 H129       -2.0135  -14.6297  -55.1742 H         1 UNK         0.0600 
    130 H130       -1.7514  -15.4266  -52.3808 H         1 UNK         0.3000 
    131 H131       -0.0996  -13.2124  -51.3526 H         1 UNK         0.0600 
    132 H132        0.5619  -15.8146  -51.4764 H         1 UNK         0.0800 
    133 H133       -0.3120  -15.9178  -49.9709 H         1 UNK         0.0800 
    134 H134        1.4233  -16.2820  -48.1431 H         1 UNK         0.0800 
    135 H135        3.0739  -15.7045  -48.1807 H         1 UNK         0.0800 
    136 H136        3.2271  -16.2096  -51.4164 H         1 UNK         0.1150 
    137 H137        3.7440  -20.4559  -51.5057 H         1 UNK         0.1150 
    138 H138        2.2925  -18.5561  -47.9560 H         1 UNK         0.1150 
    139 H139        3.0447  -21.8081  -49.7170 H         1 UNK         0.0800 
    140 H140        3.6351  -21.1158  -48.2264 H         1 UNK         0.0800 
    141 H141        2.3142  -23.4308  -47.9877 H         1 UNK         0.0800 
    142 H142        0.8579  -23.5694  -48.9225 H         1 UNK         0.0800 
    143 H143        0.7483  -24.7404  -46.7700 H         1 UNK         0.0600 
    144 H144        1.5287  -22.2334  -45.5344 H         1 UNK         0.3000 
    145 H145        0.6808  -22.7474  -42.5050 H         1 UNK         0.0600 
    146 H146        2.7230  -23.5401  -41.2900 H         1 UNK         0.0600 
    147 H147        1.7151  -24.8684  -41.8388 H         1 UNK         0.0600 
    148 H148        3.1939  -24.4835  -42.7044 H         1 UNK         0.0600 
    149 H149        1.8603  -21.0035  -43.0546 H         1 UNK         0.3000 
    150 H150        5.1111  -20.2995  -43.7758 H         1 UNK         0.0600 
    151 H151        4.5650  -20.4662  -46.1804 H         1 UNK         0.0600 
    152 H152        4.3647  -18.8054  -45.6494 H         1 UNK         0.0600 
    153 H153        2.9478  -19.8247  -45.8966 H         1 UNK         0.0600 
    154 H154        2.7306  -18.6708  -43.7077 H         1 UNK         0.3000 
    155 H155        2.4654  -18.5534  -40.1339 H         1 UNK         0.0600 
    156 H156        3.1131  -16.4465  -42.2618 H         1 UNK         0.0600 
    157 H157        4.0559  -16.7559  -40.8099 H         1 UNK         0.0600 
    158 H158        2.4183  -16.1351  -40.6719 H         1 UNK         0.0600 
    159 H159        0.8132  -17.4424  -42.1545 H         1 UNK         0.3000 
    160 H160       -1.3966  -20.2678  -42.5008 H         1 UNK         0.0600 
    161 H161       -3.0249  -18.4919  -41.9461 H         1 UNK         0.0600 
    162 H162       -1.7396  -17.4646  -41.3164 H         1 UNK         0.0600 
    163 H163       -2.1406  -18.9735  -40.5060 H         1 UNK         0.0600 
    164 H164       -1.3306  -17.6854  -43.7508 H         1 UNK         0.3000 
    165 H165        0.6180  -18.6686  -46.5732 H         1 UNK         0.0600 
    166 H166       -1.3798  -17.6695  -47.7327 H         1 UNK         0.0600 
    167 H167       -1.6443  -19.3362  -47.2404 H         1 UNK         0.0600 
    168 H168       -2.3611  -18.0190  -46.3144 H         1 UNK         0.0600 
    169 H169       -0.5965  -16.1827  -45.9227 H         1 UNK         0.3000 
    170 H170        2.0399  -14.8984  -43.8546 H         1 UNK         0.0600 
    171 H171        2.7316  -14.4170  -46.1687 H         1 UNK         0.0600 
    172 H172        1.0606  -14.1843  -46.6670 H         1 UNK         0.0600 
    173 H173        1.8125  -13.0679  -45.5278 H         1 UNK         0.0600 
    174 H174       -0.5431  -13.9374  -44.7401 H         1 UNK         0.3000 
    175 H175       -2.3214  -14.9734  -41.8270 H         1 UNK         0.0600 
    176 H176       -2.7668  -12.5390  -41.6698 H         1 UNK         0.0600 
    177 H177       -1.1384  -12.8906  -41.1137 H         1 UNK         0.0600 
    178 H178       -1.3847  -12.1879  -42.7080 H         1 UNK         0.0600 
    179 H179       -3.0483  -13.3894  -44.0983 H         1 UNK         0.3000 
    180 H180       -3.9657  -16.0558  -46.2629 H         1 UNK         0.0600 
    181 H181       -5.7076  -14.0634  -44.7154 H         1 UNK         0.0600 
    182 H182       -5.9264  -15.8092  -44.7340 H         1 UNK         0.0600 
    183 H183       -6.1474  -14.8868  -46.2121 H         1 UNK         0.0600 
    184 H184       -4.2314  -13.2591  -46.5726 H         1 UNK         0.3000 
    185 H185       -2.9693  -12.2051  -48.1162 H         1 UNK         0.0600 
    186 H186       -0.3058  -12.1002  -46.5902 H         1 UNK         0.0600 
    187 H187       -1.0544  -10.7634  -47.4588 H         1 UNK         0.0600 
    188 H188       -1.8284  -11.4226  -46.0274 H         1 UNK         0.0600 
    189 H189       -0.2503  -12.8432  -48.9192 H         1 UNK         0.3000 
    190 H190       -0.9723  -21.9838  -45.5301 H         1 UNK         0.3000 
    191 H191       -3.4101  -22.1280  -46.9034 H         1 UNK         0.0600 
    192 H192       -2.9276  -20.3120  -45.3455 H         1 UNK         0.0600 
    193 H193       -2.8401  -21.4304  -43.9825 H         1 UNK         0.0600 
    194 H194       -4.3711  -21.1289  -44.7935 H         1 UNK         0.0600 
    195 H195       -2.1498  -24.4197  -44.5576 H         1 UNK         0.3000 
    196 H196       -4.5857  -25.7042  -43.8113 H         1 UNK         0.0600 
    197 H197       -3.0485  -27.5304  -43.0759 H         1 UNK         0.0600 
    198 H198       -2.4550  -25.9613  -42.5542 H         1 UNK         0.0600 
    199 H199       -1.7125  -26.7710  -43.9334 H         1 UNK         0.0600 
    200 H200       -2.6125  -25.9155  -46.7168 H         1 UNK         0.3000 
    201 H201       -4.2072  -28.2279  -47.7602 H         1 UNK         0.0600 
    202 H202       -1.7491  -28.5776  -47.7649 H         1 UNK         0.0600 
    203 H203       -1.5114  -27.0802  -48.6636 H         1 UNK         0.0600 
    204 H204       -2.3551  -28.4342  -49.4079 H         1 UNK         0.0600 
    205 H205       -3.0209  -24.9162  -48.4630 H         1 UNK         0.3000 
    206 H206       -4.2630  -24.7040  -51.0253 H         1 UNK         0.0600 
    207 H207       -2.2256  -23.4586  -50.4401 H         1 UNK         0.0600 
    208 H208       -3.5164  -22.3188  -50.7878 H         1 UNK         0.0600 
    209 H209       -3.0561  -22.6201  -49.1290 H         1 UNK         0.0600 
    210 H210       -5.5169  -24.1452  -47.8416 H         1 UNK         0.3000 
    211 H211       -7.4416  -23.6216  -46.9913 H         1 UNK         0.0600 
    212 H212       -8.6592  -23.3701  -49.7865 H         1 UNK         0.0600 
    213 H213       -9.5295  -23.4932  -48.2678 H         1 UNK         0.0600 
    214 H214       -8.5715  -24.8526  -48.8350 H         1 UNK         0.0600 
    215 H215       -6.6304  -21.3935  -49.7058 H         1 UNK         0.3000 
    216 H216       -6.6924  -19.1131  -47.9054 H         1 UNK         0.0600 
    217 H217       -8.4038  -17.8570  -49.2741 H         1 UNK         0.0600 
    218 H218       -9.1220  -19.2454  -48.4775 H         1 UNK         0.0600 
    219 H219       -8.7370  -19.3184  -50.1958 H         1 UNK         0.0600 
    220 H220       -5.7396  -17.2976  -48.7892 H         1 UNK         0.3000 
    221 H221       -4.2879  -16.0690  -49.8839 H         1 UNK         0.0600 
    222 H222       -5.7494  -17.1117  -52.3680 H         1 UNK         0.0600 
    223 H223       -6.3589  -15.8562  -51.2901 H         1 UNK         0.0600 
    224 H224       -4.9012  -15.5752  -52.2220 H         1 UNK         0.0600 
    225 H225       -3.3847  -18.8967  -49.5327 H         1 UNK         0.3000 
    226 H226       -1.7773  -20.3486  -50.0145 H         1 UNK         0.0600 
    227 H227       -0.2393  -18.4099  -49.6949 H         1 UNK         0.0600 
    228 H228        0.3913  -19.5480  -50.8675 H         1 UNK         0.0600 
    229 H229       -0.3318  -18.0458  -51.4183 H         1 UNK         0.0600 
    230 H230       -4.0503  -20.0802  -51.8566 H         1 UNK         0.3000 
    231 H231       -4.8808  -20.8370  -53.7470 H         1 UNK         0.0600 
    232 H232       -3.8824  -22.9960  -53.0530 H         1 UNK         0.0600 
    233 H233       -2.3903  -22.6153  -53.9134 H         1 UNK         0.0600 
    234 H234       -3.8896  -22.8568  -54.7983 H         1 UNK         0.0600 
    235 H235       -3.5146  -18.4235  -53.8847 H         1 UNK         0.3000 
    236 H236       -3.0726  -16.8085  -55.2776 H         1 UNK         0.0600 
    237 H237       -3.5785  -16.9017  -57.6600 H         1 UNK         0.0600 
    238 H238       -3.5653  -18.6574  -57.6572 H         1 UNK         0.0600 
    239 H239       -4.8203  -17.7781  -56.7833 H         1 UNK         0.0600 
    240 H240       -0.9584  -18.6412  -54.3094 H         1 UNK         0.3000 
    241 H241        1.2470  -18.5664  -56.1211 H         1 UNK         0.0600 
    242 H242        2.7024  -15.3293  -55.8339 H         1 UNK         0.3800 
    243 H243        2.7889  -16.9076  -56.5632 H         1 UNK         0.3800 
    244 H244        1.3147  -18.5803  -53.0588 H         1 UNK         0.0800 
    245 H245        1.0440  -19.9922  -54.0355 H         1 UNK         0.0800 
    246 H246        3.9237  -17.1907  -53.4202 H         1 UNK         0.0800 
    247 H247        5.1442  -18.3737  -53.0283 H         1 UNK         0.0800 
@<TRIPOS>BOND
     1    1    2 1    
     2    1  127 1    
     3    1  128 1    
     4    1  129 1    
     5    2    3 2    
     6    2    4 am   BACKBONE|DICT|INTERRES
     7    4    5 1    
     8    4  130 1    
     9    5    6 1    
    10    5   65 1    
    11    5  131 1    
    12    6    7 1    
    13    6  132 1    
    14    6  133 1    
    15    7    8 1    
    16    8    9 1    
    17    8  134 1    
    18    8  135 1    
    19    9   10 ar   
    20    9   14 ar   
    21   10   11 ar   
    22   10  136 1    
    23   11   12 ar   
    24   11  126 1    
    25   12   13 ar   
    26   12  137 1    
    27   13   14 ar   
    28   13   15 1    
    29   14  138 1    
    30   15   16 1    
    31   15  139 1    
    32   15  140 1    
    33   16   17 1    
    34   17   18 1    
    35   17  141 1    
    36   17  142 1    
    37   18   19 1    
    38   18   67 1    
    39   18  143 1    
    40   19   20 am   BACKBONE|DICT|INTERRES
    41   19  144 1    
    42   20   21 2    
    43   20   22 1    
    44   22   23 1    
    45   22   24 1    
    46   22  145 1    
    47   23  146 1    
    48   23  147 1    
    49   23  148 1    
    50   24   25 am   BACKBONE|DICT|INTERRES
    51   24  149 1    
    52   25   26 2    
    53   25   27 1    
    54   27   28 1    
    55   27   29 1    
    56   27  150 1    
    57   28  151 1    
    58   28  152 1    
    59   28  153 1    
    60   29   30 am   BACKBONE|DICT|INTERRES
    61   29  154 1    
    62   30   31 2    
    63   30   32 1    
    64   32   33 1    
    65   32   34 1    
    66   32  155 1    
    67   33  156 1    
    68   33  157 1    
    69   33  158 1    
    70   34   35 am   BACKBONE|DICT|INTERRES
    71   34  159 1    
    72   35   36 2    
    73   35   37 1    
    74   37   38 1    
    75   37   39 1    
    76   37  160 1    
    77   38  161 1    
    78   38  162 1    
    79   38  163 1    
    80   39   40 am   BACKBONE|DICT|INTERRES
    81   39  164 1    
    82   40   41 2    
    83   40   42 1    
    84   42   43 1    
    85   42   44 1    
    86   42  165 1    
    87   43  166 1    
    88   43  167 1    
    89   43  168 1    
    90   44   45 am   BACKBONE|DICT|INTERRES
    91   44  169 1    
    92   45   46 2    
    93   45   47 1    
    94   47   48 1    
    95   47   49 1    
    96   47  170 1    
    97   48  171 1    
    98   48  172 1    
    99   48  173 1    
   100   49   50 am   BACKBONE|DICT|INTERRES
   101   49  174 1    
   102   50   51 2    
   103   50   52 1    
   104   52   53 1    
   105   52   54 1    
   106   52  175 1    
   107   53  176 1    
   108   53  177 1    
   109   53  178 1    
   110   54   55 am   BACKBONE|DICT|INTERRES
   111   54  179 1    
   112   55   56 2    
   113   55   57 1    
   114   57   58 1    
   115   57   59 1    
   116   57  180 1    
   117   58  181 1    
   118   58  182 1    
   119   58  183 1    
   120   59   60 am   BACKBONE|DICT|INTERRES
   121   59  184 1    
   122   60   61 2    
   123   60   62 1    
   124   62   63 1    
   125   62   64 1    
   126   62  185 1    
   127   63  186 1    
   128   63  187 1    
   129   63  188 1    
   130   64   65 am   BACKBONE|DICT|INTERRES
   131   64  189 1    
   132   65   66 2    
   133   67   68 2    
   134   67   69 am   BACKBONE|DICT|INTERRES
   135   69   70 1    
   136   69  190 1    
   137   70   71 1    
   138   70   72 1    
   139   70  191 1    
   140   71  192 1    
   141   71  193 1    
   142   71  194 1    
   143   72   73 2    
   144   72   74 am   BACKBONE|DICT|INTERRES
   145   74   75 1    
   146   74  195 1    
   147   75   76 1    
   148   75   77 1    
   149   75  196 1    
   150   76  197 1    
   151   76  198 1    
   152   76  199 1    
   153   77   78 2    
   154   77   79 am   BACKBONE|DICT|INTERRES
   155   79   80 1    
   156   79  200 1    
   157   80   81 1    
   158   80   82 1    
   159   80  201 1    
   160   81  202 1    
   161   81  203 1    
   162   81  204 1    
   163   82   83 2    
   164   82   84 am   BACKBONE|DICT|INTERRES
   165   84   85 1    
   166   84  205 1    
   167   85   86 1    
   168   85   87 1    
   169   85  206 1    
   170   86  207 1    
   171   86  208 1    
   172   86  209 1    
   173   87   88 2    
   174   87   89 am   BACKBONE|DICT|INTERRES
   175   89   90 1    
   176   89  210 1    
   177   90   91 1    
   178   90   92 1    
   179   90  211 1    
   180   91  212 1    
   181   91  213 1    
   182   91  214 1    
   183   92   93 2    
   184   92   94 am   BACKBONE|DICT|INTERRES
   185   94   95 1    
   186   94  215 1    
   187   95   96 1    
   188   95   97 1    
   189   95  216 1    
   190   96  217 1    
   191   96  218 1    
   192   96  219 1    
   193   97   98 2    
   194   97   99 am   BACKBONE|DICT|INTERRES
   195   99  100 1    
   196   99  220 1    
   197  100  101 1    
   198  100  102 1    
   199  100  221 1    
   200  101  222 1    
   201  101  223 1    
   202  101  224 1    
   203  102  103 2    
   204  102  104 am   BACKBONE|DICT|INTERRES
   205  104  105 1    
   206  104  225 1    
   207  105  106 1    
   208  105  107 1    
   209  105  226 1    
   210  106  227 1    
   211  106  228 1    
   212  106  229 1    
   213  107  108 2    
   214  107  109 am   BACKBONE|DICT|INTERRES
   215  109  110 1    
   216  109  230 1    
   217  110  111 1    
   218  110  112 1    
   219  110  231 1    
   220  111  232 1    
   221  111  233 1    
   222  111  234 1    
   223  112  113 2    
   224  112  114 am   BACKBONE|DICT|INTERRES
   225  114  115 1    
   226  114  235 1    
   227  115  116 1    
   228  115  117 1    
   229  115  236 1    
   230  116  237 1    
   231  116  238 1    
   232  116  239 1    
   233  117  118 2    
   234  117  119 am   BACKBONE|DICT|INTERRES
   235  119  120 1    
   236  119  240 1    
   237  120  121 1    
   238  120  124 1    
   239  120  241 1    
   240  121  122 am   BACKBONE|DICT|INTERRES
   241  121  123 2    
   242  122  242 1    
   243  122  243 1    
   244  124  125 1    
   245  124  244 1    
   246  124  245 1    
   247  125  126 1    
   248  126  246 1    
   249  126  247 1    
@<TRIPOS>SUBSTRUCTURE
     1 UNK         1 GROUP             0       ****    0 ROOT    
