@<TRIPOS>MOLECULE
3R540
247   249    1
SMALL
USER_CHARGES


@<TRIPOS>ATOM
      1 CA         -3.1185   -9.3910  -49.0153 C.3       0 UNK        -0.1800 
      2 C          -2.8858  -10.8597  -48.6925 C.2       0 UNK         0.5000 
      3 O          -2.7022  -11.2064  -47.5243 O.2       0 UNK        -0.5000 
      4 N          -2.8886  -11.7214  -49.7201 N.am      1 UNK        -0.5000 
      5 CA         -2.6490  -13.1682  -49.6413 C.3       1 UNK         0.1400 
      6 C6         -3.8156  -13.9341  -48.9398 C.3       23 UNK        -0.0398 
      7 S7         -5.1059  -14.3878  -50.1481 S.3       23 UNK        -0.2404 
      8 C8         -4.9131  -16.2028  -50.2784 C.3       23 UNK        -0.0205 
      9 C9         -3.4607  -16.6562  -50.3784 C.ar      23 UNK        -0.0193 
     10 C10        -2.6632  -16.2368  -51.4456 C.ar      23 UNK        -0.1150 
     11 C11        -1.3157  -16.5984  -51.5106 C.ar      23 UNK        -0.0193 
     12 C12        -0.7750  -17.4224  -50.5195 C.ar      23 UNK        -0.1150 
     13 C13        -1.5709  -17.8787  -49.4641 C.ar      23 UNK        -0.0193 
     14 C14        -2.9096  -17.4828  -49.3926 C.ar      23 UNK        -0.1150 
     15 C15        -0.9774  -18.7795  -48.3922 C.3       23 UNK        -0.0205 
     16 S16        -1.1650  -20.5432  -48.8125 S.3       23 UNK        -0.2404 
     17 C17        -2.2008  -21.1933  -47.4562 C.3       23 UNK        -0.0398 
     18 CA         -1.6914  -22.5650  -46.9458 C.3       11 UNK         0.1400 
     19 N          -0.4203  -22.4785  -46.2157 N.am      11 UNK        -0.5000 
     20 C           0.2965  -23.5404  -45.8148 C.2       10 UNK         0.5000 
     21 O          -0.0183  -24.7067  -46.0526 O.2       10 UNK        -0.5000 
     22 CA          1.5408  -23.2627  -44.9512 C.3       10 UNK         0.1400 
     23 CB          2.7091  -22.7475  -45.8048 C.3       10 UNK        -0.1800 
     24 N           1.2627  -22.3298  -43.8580 N.am      10 UNK        -0.5000 
     25 C           0.4198  -22.5856  -42.8464 C.2       9 UNK         0.5000 
     26 O          -0.1784  -23.6505  -42.7081 O.2       9 UNK        -0.5000 
     27 CA          0.1609  -21.4500  -41.8433 C.3       9 UNK         0.1400 
     28 CB          1.2183  -21.4454  -40.7294 C.3       9 UNK        -0.1800 
     29 N           0.1199  -20.1429  -42.4932 N.am      9 UNK        -0.5000 
     30 C          -0.8408  -19.7478  -43.3405 C.2       8 UNK         0.5000 
     31 O          -1.8179  -20.4320  -43.6458 O.2       8 UNK        -0.5000 
     32 CA         -0.6339  -18.3733  -43.9976 C.3       8 UNK         0.1400 
     33 CB         -1.0054  -17.2536  -43.0118 C.3       8 UNK        -0.1800 
     34 N           0.7435  -18.1889  -44.4617 N.am      8 UNK        -0.5000 
     35 C           1.3342  -18.9486  -45.3991 C.2       7 UNK         0.5000 
     36 O           0.7578  -19.8596  -45.9898 O.2       7 UNK        -0.5000 
     37 CA          2.8258  -18.6940  -45.6980 C.3       7 UNK         0.1400 
     38 CB          2.9810  -17.7179  -46.8739 C.3       7 UNK        -0.1800 
     39 N           3.5715  -18.1834  -44.5485 N.am      7 UNK        -0.5000 
     40 C           3.6808  -18.7949  -43.3606 C.2       6 UNK         0.5000 
     41 O           3.2649  -19.9340  -43.1448 O.2       6 UNK        -0.5000 
     42 CA          4.3001  -17.9792  -42.2050 C.3       6 UNK         0.1400 
     43 CB          5.7348  -18.4521  -41.9273 C.3       6 UNK        -0.1800 
     44 N           4.3082  -16.5221  -42.4064 N.am      6 UNK        -0.5000 
     45 C           3.2343  -15.7501  -42.6303 C.2       5 UNK         0.5000 
     46 O           2.0877  -16.1954  -42.7325 O.2       5 UNK        -0.5000 
     47 CA          3.5103  -14.2478  -42.8395 C.3       5 UNK         0.1400 
     48 CB          4.3153  -14.0211  -44.1303 C.3       5 UNK        -0.1800 
     49 N           2.2658  -13.4810  -42.9164 N.am      5 UNK        -0.5000 
     50 C           1.5265  -13.1310  -41.8537 C.2       4 UNK         0.5000 
     51 O           1.8891  -13.3266  -40.6917 O.2       4 UNK        -0.5000 
     52 CA          0.1442  -12.4878  -42.1142 C.3       4 UNK         0.1400 
     53 CB         -0.2096  -11.4019  -41.0761 C.3       4 UNK        -0.1800 
     54 N          -0.0554  -11.9955  -43.4829 N.am      4 UNK        -0.5000 
     55 C           0.5767  -10.9844  -44.0993 C.2       3 UNK         0.5000 
     56 O           1.4225  -10.2698  -43.5592 O.2       3 UNK        -0.5000 
     57 CA          0.2012  -10.7633  -45.5836 C.3       3 UNK         0.1400 
     58 CB          1.2695   -9.9681  -46.3620 C.3       3 UNK        -0.1800 
     59 N          -0.1276  -12.0088  -46.2922 N.am      3 UNK        -0.5000 
     60 C           0.6640  -13.0854  -46.4343 C.2       2 UNK         0.5000 
     61 O           1.7984  -13.1581  -45.9649 O.2       2 UNK        -0.5000 
     62 CA          0.0905  -14.3128  -47.1674 C.3       2 UNK         0.1400 
     63 CB         -0.1691  -15.4474  -46.1687 C.3       2 UNK        -0.1800 
     64 N          -1.1565  -14.0369  -47.8751 N.am      2 UNK        -0.5000 
     65 C          -1.2385  -13.4430  -49.0709 C.2       1 UNK         0.5000 
     66 O          -0.2529  -13.0874  -49.7202 O.2       1 UNK        -0.5000 
     67 C          -2.7774  -23.2817  -46.1179 C.2       11 UNK         0.5000 
     68 O          -3.4829  -24.1293  -46.6652 O.2       11 UNK        -0.5000 
     69 N          -2.8646  -22.9731  -44.8147 N.am      12 UNK        -0.5000 
     70 CA         -3.7852  -23.6178  -43.8764 C.3       12 UNK         0.1400 
     71 CB         -3.7636  -22.8787  -42.5304 C.3       12 UNK        -0.1800 
     72 C          -3.4967  -25.1183  -43.6828 C.2       12 UNK         0.5000 
     73 O          -4.4309  -25.9188  -43.7227 O.2       12 UNK        -0.5000 
     74 N          -2.2161  -25.4782  -43.5129 N.am      13 UNK        -0.5000 
     75 CA         -1.7481  -26.8593  -43.3662 C.3       13 UNK         0.1400 
     76 CB         -0.2673  -26.8631  -42.9579 C.3       13 UNK        -0.1800 
     77 C          -1.9600  -27.7039  -44.6352 C.2       13 UNK         0.5000 
     78 O          -2.3286  -28.8745  -44.5320 O.2       13 UNK        -0.5000 
     79 N          -1.7536  -27.0887  -45.8072 N.am      14 UNK        -0.5000 
     80 CA         -2.0192  -27.6854  -47.1175 C.3       14 UNK         0.1400 
     81 CB         -1.3002  -26.8542  -48.1921 C.3       14 UNK        -0.1800 
     82 C          -3.5218  -27.7908  -47.4495 C.2       14 UNK         0.5000 
     83 O          -3.8805  -28.5367  -48.3617 O.2       14 UNK        -0.5000 
     84 N          -4.3577  -27.0239  -46.7316 N.am      15 UNK        -0.5000 
     85 CA         -5.7856  -26.7851  -46.9684 C.3       15 UNK         0.1400 
     86 CB         -6.6100  -28.0672  -46.7314 C.3       15 UNK        -0.1800 
     87 C          -6.0368  -26.1381  -48.3479 C.2       15 UNK         0.5000 
     88 O          -6.9972  -26.4850  -49.0386 O.2       15 UNK        -0.5000 
     89 N          -5.1379  -25.2245  -48.7300 N.am      16 UNK        -0.5000 
     90 CA         -5.1177  -24.5414  -50.0157 C.3       16 UNK         0.1400 
     91 CB         -3.6542  -24.3999  -50.4627 C.3       16 UNK        -0.1800 
     92 C          -5.7721  -23.1589  -49.8919 C.2       16 UNK         0.5000 
     93 O          -5.6131  -22.4914  -48.8669 O.2       16 UNK        -0.5000 
     94 N          -6.4625  -22.7354  -50.9579 N.am      17 UNK        -0.5000 
     95 CA         -7.0483  -21.3972  -51.0767 C.3       17 UNK         0.1400 
     96 CB         -8.0818  -21.3973  -52.2137 C.3       17 UNK        -0.1800 
     97 C          -5.9842  -20.3080  -51.3136 C.2       17 UNK         0.5000 
     98 O          -6.1749  -19.1713  -50.8838 O.2       17 UNK        -0.5000 
     99 N          -4.8872  -20.6850  -51.9789 N.am      18 UNK        -0.5000 
    100 CA        -3.7093  -19.8738  -52.2520 C.3       18 UNK         0.1400 
    101 CB        -3.9847  -18.9113  -53.4184 C.3       18 UNK        -0.1800 
    102 C         -2.5505  -20.8255  -52.5729 C.2       18 UNK         0.5000 
    103 O         -2.7998  -21.9525  -53.0090 O.2       18 UNK        -0.5000 
    104 N         -1.3125  -20.3645  -52.3567 N.am      19 UNK        -0.5000 
    105 CA        -0.0942  -21.1749  -52.4640 C.3       19 UNK         0.1400 
    106 CB         1.1047  -20.3640  -51.9465 C.3       19 UNK        -0.1800 
    107 C          0.1912  -21.7083  -53.8811 C.2       19 UNK         0.5000 
    108 O          0.6863  -22.8277  -54.0191 O.2       19 UNK        -0.5000 
    109 N         -0.1281  -20.9032  -54.9008 N.am      20 UNK        -0.5000 
    110 CA         0.0752  -21.2201  -56.3152 C.3       20 UNK         0.1400 
    111 CB         1.5457  -20.9626  -56.7046 C.3       20 UNK        -0.1800 
    112 C         -0.9246  -20.4404  -57.1878 C.2       20 UNK         0.5000 
    113 O         -0.5389  -19.8856  -58.2178 O.2       20 UNK        -0.5000 
    114 N         -2.1873  -20.3714  -56.7317 N.am      21 UNK        -0.5000 
    115 CA        -3.3002  -19.6021  -57.3208 C.3       21 UNK         0.1400 
    116 CB        -3.6804  -20.1544  -58.7107 C.3       21 UNK        -0.1800 
    117 C         -3.0580  -18.0724  -57.3313 C.2       21 UNK         0.5000 
    118 O         -3.6480  -17.3491  -58.1358 O.2       21 UNK        -0.5000 
    119 N         -2.1771  -17.6223  -56.4343 N.am      22 UNK        -0.5000 
    120 CA        -1.7625  -16.2370  -56.2010 C.3       22 UNK         0.1400 
    121 C         -2.8423  -15.3666  -55.4947 C.2       22 UNK         0.5000 
    122 N         -2.6744  -14.0507  -55.4926 N.am      22 UNK        -0.7600 
    123 O         -3.8204  -15.8591  -54.9381 O.2       22 UNK        -0.5000 
    124 C124       -0.3932  -16.2078  -55.4655 C.3       23 UNK        -0.0398 
    125 S125       -0.3200  -17.2867  -53.9867 S.3       23 UNK        -0.2404 
    126 C126       -0.4450  -16.0743  -52.6391 C.3       23 UNK        -0.0205 
    127 H127       -2.2614   -8.7978  -48.6960 H         1 UNK         0.0600 
    128 H128       -3.2669   -9.2284  -50.0832 H         1 UNK         0.0600 
    129 H129       -4.0013   -9.0274  -48.4894 H         1 UNK         0.0600 
    130 H130       -3.0254  -11.3632  -50.6548 H         1 UNK         0.3000 
    131 H131       -2.5853  -13.5113  -50.6748 H         1 UNK         0.0600 
    132 H132       -4.2725  -13.3330  -48.1530 H         1 UNK         0.0800 
    133 H133       -3.4904  -14.8481  -48.4454 H         1 UNK         0.0800 
    134 H134       -5.4522  -16.5497  -51.1608 H         1 UNK         0.0800 
    135 H135       -5.4013  -16.6691  -49.4213 H         1 UNK         0.0800 
    136 H136       -3.0889  -15.6041  -52.2123 H         1 UNK         0.1150 
    137 H137        0.2672  -17.7050  -50.5691 H         1 UNK         0.1150 
    138 H138       -3.5227  -17.8224  -48.5696 H         1 UNK         0.1150 
    139 H139        0.0852  -18.5632  -48.2818 H         1 UNK         0.0800 
    140 H140       -1.4295  -18.5553  -47.4262 H         1 UNK         0.0800 
    141 H141       -2.2485  -20.4821  -46.6305 H         1 UNK         0.0800 
    142 H142       -3.2166  -21.2775  -47.8482 H         1 UNK         0.0800 
    143 H143       -1.5103  -23.1953  -47.8193 H         1 UNK         0.0600 
    144 H144       -0.0689  -21.5431  -46.0227 H         1 UNK         0.3000 
    145 H145        1.8499  -24.2086  -44.5012 H         1 UNK         0.0600 
    146 H146        2.4422  -21.8507  -46.3621 H         1 UNK         0.0600 
    147 H147        3.5793  -22.5166  -45.1899 H         1 UNK         0.0600 
    148 H148        3.0141  -23.4999  -46.5330 H         1 UNK         0.0600 
    149 H149        1.7292  -21.4321  -43.8838 H         1 UNK         0.3000 
    150 H150       -0.8125  -21.6266  -41.3818 H         1 UNK         0.0600 
    151 H151        1.0164  -20.6643  -39.9963 H         1 UNK         0.0600 
    152 H152        2.2228  -21.2867  -41.1217 H         1 UNK         0.0600 
    153 H153        1.2233  -22.3973  -40.1968 H         1 UNK         0.0600 
    154 H154        0.9170  -19.5398  -42.3508 H         1 UNK         0.3000 
    155 H155       -1.2945  -18.3065  -44.8642 H         1 UNK         0.0600 
    156 H156       -2.0516  -17.3298  -42.7131 H         1 UNK         0.0600 
    157 H157       -0.8629  -16.2670  -43.4490 H         1 UNK         0.0600 
    158 H158       -0.4017  -17.2980  -42.1045 H         1 UNK         0.0600 
    159 H159        1.2877  -17.4765  -43.9833 H         1 UNK         0.3000 
    160 H160        3.2734  -19.6473  -45.9831 H         1 UNK         0.0600 
    161 H161        2.5912  -16.7285  -46.6335 H         1 UNK         0.0600 
    162 H162        2.4478  -18.0776  -47.7548 H         1 UNK         0.0600 
    163 H163        4.0280  -17.6049  -47.1556 H         1 UNK         0.0600 
    164 H164        3.9441  -17.2498  -44.6311 H         1 UNK         0.3000 
    165 H165        3.6964  -18.1808  -41.3179 H         1 UNK         0.0600 
    166 H166        6.3957  -18.2461  -42.7702 H         1 UNK         0.0600 
    167 H167        6.1493  -17.9619  -41.0462 H         1 UNK         0.0600 
    168 H168        5.7642  -19.5268  -41.7420 H         1 UNK         0.0600 
    169 H169        5.2145  -16.0791  -42.3553 H         1 UNK         0.3000 
    170 H170        4.0988  -13.8840  -41.9948 H         1 UNK         0.0600 
    171 H171        5.3214  -14.4329  -44.0465 H         1 UNK         0.0600 
    172 H172        3.8409  -14.4945  -44.9906 H         1 UNK         0.0600 
    173 H173        4.4206  -12.9583  -44.3499 H         1 UNK         0.0600 
    174 H174        1.9099  -13.3023  -43.8481 H         1 UNK         0.3000 
    175 H175       -0.5762  -13.2974  -41.9894 H         1 UNK         0.0600 
    176 H176       -1.1918  -10.9721  -41.2730 H         1 UNK         0.0600 
    177 H177       -0.2367  -11.8173  -40.0681 H         1 UNK         0.0600 
    178 H178        0.5183  -10.5903  -41.0724 H         1 UNK         0.0600 
    179 H179       -0.7249  -12.5152  -44.0323 H         1 UNK         0.3000 
    180 H180       -0.7124  -10.1672  -45.5777 H         1 UNK         0.0600 
    181 H181        0.9687   -9.8171  -47.3988 H         1 UNK         0.0600 
    182 H182        1.4219   -8.9816  -45.9227 H         1 UNK         0.0600 
    183 H183        2.2331  -10.4786  -46.3629 H         1 UNK         0.0600 
    184 H184       -1.0497  -12.0256  -46.7177 H         1 UNK         0.3000 
    185 H185        0.8452  -14.6502  -47.8813 H         1 UNK         0.0600 
    186 H186       -0.4083  -16.3772  -46.6836 H         1 UNK         0.0600 
    187 H187        0.7069  -15.6338  -45.5468 H         1 UNK         0.0600 
    188 H188       -0.9984  -15.2083  -45.5033 H         1 UNK         0.0600 
    189 H189       -2.0072  -14.2693  -47.3852 H         1 UNK         0.3000 
    190 H190       -2.2748  -22.2374  -44.4387 H         1 UNK         0.3000 
    191 H191       -4.7916  -23.5277  -44.2907 H         1 UNK         0.0600 
    192 H192       -4.4666  -23.3274  -41.8275 H         1 UNK         0.0600 
    193 H193       -4.0469  -21.8330  -42.6502 H         1 UNK         0.0600 
    194 H194       -2.7764  -22.9079  -42.0703 H         1 UNK         0.0600 
    195 H195       -1.5054  -24.7537  -43.4409 H         1 UNK         0.3000 
    196 H196       -2.3227  -27.3225  -42.5614 H         1 UNK         0.0600 
    197 H197        0.1057  -27.8816  -42.8432 H         1 UNK         0.0600 
    198 H198       -0.1208  -26.3547  -42.0049 H         1 UNK         0.0600 
    199 H199        0.3557  -26.3653  -43.7020 H         1 UNK         0.0600 
    200 H200       -1.3830  -26.1426  -45.8063 H         1 UNK         0.3000 
    201 H201       -1.6053  -28.6957  -47.1303 H         1 UNK         0.0600 
    202 H202       -0.2258  -26.8196  -48.0111 H         1 UNK         0.0600 
    203 H203       -1.6684  -25.8277  -48.2169 H         1 UNK         0.0600 
    204 H204       -1.4492  -27.2805  -49.1849 H         1 UNK         0.0600 
    205 H205       -3.9428  -26.4375  -46.0193 H         1 UNK         0.3000 
    206 H206       -6.0971  -26.0494  -46.2254 H         1 UNK         0.0600 
    207 H207       -6.4025  -28.4911  -45.7489 H         1 UNK         0.0600 
    208 H208       -7.6790  -27.8561  -46.7745 H         1 UNK         0.0600 
    209 H209       -6.3982  -28.8320  -47.4790 H         1 UNK         0.0600 
    210 H210       -4.4489  -24.9138  -48.0482 H         1 UNK         0.3000 
    211 H211       -5.6532  -25.1329  -50.7615 H         1 UNK         0.0600 
    212 H212       -3.5923  -23.9598  -51.4575 H         1 UNK         0.0600 
    213 H213       -3.1597  -25.3705  -50.5079 H         1 UNK         0.0600 
    214 H214       -3.0827  -23.7645  -49.7844 H         1 UNK         0.0600 
    215 H215       -6.5576  -23.3429  -51.7590 H         1 UNK         0.3000 
    216 H216       -7.5666  -21.1596  -50.1450 H         1 UNK         0.0600 
    217 H217       -8.5526  -20.4182  -52.3118 H         1 UNK         0.0600 
    218 H218       -8.8753  -22.1209  -52.0258 H         1 UNK         0.0600 
    219 H219       -7.6253  -21.6394  -53.1743 H         1 UNK         0.0600 
    220 H220       -4.7910  -21.6480  -52.2752 H         1 UNK         0.3000 
    221 H221       -3.4526  -19.3127  -51.3546 H         1 UNK         0.0600 
    222 H222       -4.2948  -19.4467  -54.3148 H         1 UNK         0.0600 
    223 H223       -4.7696  -18.1980  -53.1670 H         1 UNK         0.0600 
    224 H224       -3.0974  -18.3303  -53.6662 H         1 UNK         0.0600 
    225 H225       -1.1954  -19.4255  -52.0018 H         1 UNK         0.3000 
    226 H226       -0.2207  -22.0409  -51.8106 H         1 UNK         0.0600 
    227 H227        2.0245  -20.9475  -52.0039 H         1 UNK         0.0600 
    228 H228        1.2583  -19.4537  -52.5265 H         1 UNK         0.0600 
    229 H229        0.9708  -20.0795  -50.9034 H         1 UNK         0.0600 
    230 H230       -0.5056  -19.9915  -54.6880 H         1 UNK         0.3000 
    231 H231       -0.1427  -22.2778  -56.4774 H         1 UNK         0.0600 
    232 H232        1.7274  -21.2172  -57.7494 H         1 UNK         0.0600 
    233 H233        2.2278  -21.5661  -56.1057 H         1 UNK         0.0600 
    234 H234        1.8168  -19.9153  -56.5665 H         1 UNK         0.0600 
    235 H235       -2.4094  -20.8857  -55.8900 H         1 UNK         0.3000 
    236 H236       -4.1585  -19.7622  -56.6678 H         1 UNK         0.0600 
    237 H237       -2.9059  -19.9586  -59.4525 H         1 UNK         0.0600 
    238 H238       -3.8475  -21.2308  -58.6752 H         1 UNK         0.0600 
    239 H239       -4.6012  -19.6969  -59.0744 H         1 UNK         0.0600 
    240 H240       -1.7709  -18.2910  -55.8015 H         1 UNK         0.3000 
    241 H241       -1.6150  -15.7866  -57.1844 H         1 UNK         0.0600 
    242 H242       -3.3669  -13.4751  -55.0398 H         1 UNK         0.3800 
    243 H243       -1.8926  -13.6108  -55.9528 H         1 UNK         0.3800 
    244 H244       -0.0951  -15.1896  -55.2119 H         1 UNK         0.0800 
    245 H245        0.3773  -16.5631  -56.1512 H         1 UNK         0.0800 
    246 H246        0.5544  -15.8435  -52.2674 H         1 UNK         0.0800 
    247 H247       -0.8575  -15.1340  -53.0079 H         1 UNK         0.0800 
@<TRIPOS>BOND
     1    1    2 1    
     2    1  127 1    
     3    1  128 1    
     4    1  129 1    
     5    2    3 2    
     6    2    4 am   BACKBONE|DICT|INTERRES
     7    4    5 1    
     8    4  130 1    
     9    5    6 1    
    10    5   65 1    
    11    5  131 1    
    12    6    7 1    
    13    6  132 1    
    14    6  133 1    
    15    7    8 1    
    16    8    9 1    
    17    8  134 1    
    18    8  135 1    
    19    9   10 ar   
    20    9   14 ar   
    21   10   11 ar   
    22   10  136 1    
    23   11   12 ar   
    24   11  126 1    
    25   12   13 ar   
    26   12  137 1    
    27   13   14 ar   
    28   13   15 1    
    29   14  138 1    
    30   15   16 1    
    31   15  139 1    
    32   15  140 1    
    33   16   17 1    
    34   17   18 1    
    35   17  141 1    
    36   17  142 1    
    37   18   19 1    
    38   18   67 1    
    39   18  143 1    
    40   19   20 am   BACKBONE|DICT|INTERRES
    41   19  144 1    
    42   20   21 2    
    43   20   22 1    
    44   22   23 1    
    45   22   24 1    
    46   22  145 1    
    47   23  146 1    
    48   23  147 1    
    49   23  148 1    
    50   24   25 am   BACKBONE|DICT|INTERRES
    51   24  149 1    
    52   25   26 2    
    53   25   27 1    
    54   27   28 1    
    55   27   29 1    
    56   27  150 1    
    57   28  151 1    
    58   28  152 1    
    59   28  153 1    
    60   29   30 am   BACKBONE|DICT|INTERRES
    61   29  154 1    
    62   30   31 2    
    63   30   32 1    
    64   32   33 1    
    65   32   34 1    
    66   32  155 1    
    67   33  156 1    
    68   33  157 1    
    69   33  158 1    
    70   34   35 am   BACKBONE|DICT|INTERRES
    71   34  159 1    
    72   35   36 2    
    73   35   37 1    
    74   37   38 1    
    75   37   39 1    
    76   37  160 1    
    77   38  161 1    
    78   38  162 1    
    79   38  163 1    
    80   39   40 am   BACKBONE|DICT|INTERRES
    81   39  164 1    
    82   40   41 2    
    83   40   42 1    
    84   42   43 1    
    85   42   44 1    
    86   42  165 1    
    87   43  166 1    
    88   43  167 1    
    89   43  168 1    
    90   44   45 am   BACKBONE|DICT|INTERRES
    91   44  169 1    
    92   45   46 2    
    93   45   47 1    
    94   47   48 1    
    95   47   49 1    
    96   47  170 1    
    97   48  171 1    
    98   48  172 1    
    99   48  173 1    
   100   49   50 am   BACKBONE|DICT|INTERRES
   101   49  174 1    
   102   50   51 2    
   103   50   52 1    
   104   52   53 1    
   105   52   54 1    
   106   52  175 1    
   107   53  176 1    
   108   53  177 1    
   109   53  178 1    
   110   54   55 am   BACKBONE|DICT|INTERRES
   111   54  179 1    
   112   55   56 2    
   113   55   57 1    
   114   57   58 1    
   115   57   59 1    
   116   57  180 1    
   117   58  181 1    
   118   58  182 1    
   119   58  183 1    
   120   59   60 am   BACKBONE|DICT|INTERRES
   121   59  184 1    
   122   60   61 2    
   123   60   62 1    
   124   62   63 1    
   125   62   64 1    
   126   62  185 1    
   127   63  186 1    
   128   63  187 1    
   129   63  188 1    
   130   64   65 am   BACKBONE|DICT|INTERRES
   131   64  189 1    
   132   65   66 2    
   133   67   68 2    
   134   67   69 am   BACKBONE|DICT|INTERRES
   135   69   70 1    
   136   69  190 1    
   137   70   71 1    
   138   70   72 1    
   139   70  191 1    
   140   71  192 1    
   141   71  193 1    
   142   71  194 1    
   143   72   73 2    
   144   72   74 am   BACKBONE|DICT|INTERRES
   145   74   75 1    
   146   74  195 1    
   147   75   76 1    
   148   75   77 1    
   149   75  196 1    
   150   76  197 1    
   151   76  198 1    
   152   76  199 1    
   153   77   78 2    
   154   77   79 am   BACKBONE|DICT|INTERRES
   155   79   80 1    
   156   79  200 1    
   157   80   81 1    
   158   80   82 1    
   159   80  201 1    
   160   81  202 1    
   161   81  203 1    
   162   81  204 1    
   163   82   83 2    
   164   82   84 am   BACKBONE|DICT|INTERRES
   165   84   85 1    
   166   84  205 1    
   167   85   86 1    
   168   85   87 1    
   169   85  206 1    
   170   86  207 1    
   171   86  208 1    
   172   86  209 1    
   173   87   88 2    
   174   87   89 am   BACKBONE|DICT|INTERRES
   175   89   90 1    
   176   89  210 1    
   177   90   91 1    
   178   90   92 1    
   179   90  211 1    
   180   91  212 1    
   181   91  213 1    
   182   91  214 1    
   183   92   93 2    
   184   92   94 am   BACKBONE|DICT|INTERRES
   185   94   95 1    
   186   94  215 1    
   187   95   96 1    
   188   95   97 1    
   189   95  216 1    
   190   96  217 1    
   191   96  218 1    
   192   96  219 1    
   193   97   98 2    
   194   97   99 am   BACKBONE|DICT|INTERRES
   195   99  100 1    
   196   99  220 1    
   197  100  101 1    
   198  100  102 1    
   199  100  221 1    
   200  101  222 1    
   201  101  223 1    
   202  101  224 1    
   203  102  103 2    
   204  102  104 am   BACKBONE|DICT|INTERRES
   205  104  105 1    
   206  104  225 1    
   207  105  106 1    
   208  105  107 1    
   209  105  226 1    
   210  106  227 1    
   211  106  228 1    
   212  106  229 1    
   213  107  108 2    
   214  107  109 am   BACKBONE|DICT|INTERRES
   215  109  110 1    
   216  109  230 1    
   217  110  111 1    
   218  110  112 1    
   219  110  231 1    
   220  111  232 1    
   221  111  233 1    
   222  111  234 1    
   223  112  113 2    
   224  112  114 am   BACKBONE|DICT|INTERRES
   225  114  115 1    
   226  114  235 1    
   227  115  116 1    
   228  115  117 1    
   229  115  236 1    
   230  116  237 1    
   231  116  238 1    
   232  116  239 1    
   233  117  118 2    
   234  117  119 am   BACKBONE|DICT|INTERRES
   235  119  120 1    
   236  119  240 1    
   237  120  121 1    
   238  120  124 1    
   239  120  241 1    
   240  121  122 am   BACKBONE|DICT|INTERRES
   241  121  123 2    
   242  122  242 1    
   243  122  243 1    
   244  124  125 1    
   245  124  244 1    
   246  124  245 1    
   247  125  126 1    
   248  126  246 1    
   249  126  247 1    
@<TRIPOS>SUBSTRUCTURE
     1 UNK         1 GROUP             0       ****    0 ROOT    
