@<TRIPOS>MOLECULE
3R540
247   249    1
SMALL
USER_CHARGES


@<TRIPOS>ATOM
      1 CA         -6.7629  -18.0110  -46.9074 C.3       0 UNK        -0.1800 
      2 C          -5.7236  -16.9160  -47.0921 C.2       0 UNK         0.5000 
      3 O          -5.9410  -15.7859  -46.6542 O.2       0 UNK        -0.5000 
      4 N          -4.6022  -17.2430  -47.7489 N.am      1 UNK        -0.5000 
      5 CA         -3.4511  -16.3672  -47.9975 C.3       1 UNK         0.1400 
      6 C6         -2.5753  -16.9316  -49.1472 C.3       23 UNK        -0.0398 
      7 S7         -1.6020  -15.6499  -50.0084 S.3       23 UNK        -0.2404 
      8 C8          0.1047  -16.0423  -49.5064 C.3       23 UNK        -0.0205 
      9 C9          0.6813  -17.2311  -50.2621 C.ar      23 UNK        -0.0193 
     10 C10         1.2594  -17.0430  -51.5210 C.ar      23 UNK        -0.1150 
     11 C11         1.8292  -18.1175  -52.2109 C.ar      23 UNK        -0.0193 
     12 C12         1.8254  -19.3860  -51.6270 C.ar      23 UNK        -0.1150 
     13 C13         1.2073  -19.5977  -50.3931 C.ar      23 UNK        -0.0193 
     14 C14         0.6529  -18.5137  -49.7051 C.ar      23 UNK        -0.1150 
     15 C15         1.0469  -21.0086  -49.8545 C.3       23 UNK        -0.0205 
     16 S16         2.0517  -21.3446  -48.3770 S.3       23 UNK        -0.2404 
     17 C17         0.9575  -22.5814  -47.6019 C.3       23 UNK        -0.0398 
     18 CA          1.6308  -23.4783  -46.5363 C.3       11 UNK         0.1400 
     19 N           2.1506  -22.7058  -45.4041 N.am      11 UNK        -0.5000 
     20 C           3.0749  -23.1546  -44.5442 C.2       10 UNK         0.5000 
     21 O           3.6162  -24.2570  -44.6370 O.2       10 UNK        -0.5000 
     22 CA          3.4429  -22.2268  -43.3717 C.3       10 UNK         0.1400 
     23 CB          4.3832  -21.1061  -43.8387 C.3       10 UNK        -0.1800 
     24 N           2.2729  -21.6452  -42.7103 N.am      10 UNK        -0.5000 
     25 C           1.3671  -22.3453  -42.0111 C.2       9 UNK         0.5000 
     26 O           1.4026  -23.5676  -41.8707 O.2       9 UNK        -0.5000 
     27 CA          0.2181  -21.5485  -41.3712 C.3       9 UNK         0.1400 
     28 CB          0.6596  -20.9229  -40.0389 C.3       9 UNK        -0.1800 
     29 N          -0.2738  -20.5019  -42.2638 N.am      9 UNK        -0.5000 
     30 C          -1.0966  -20.7231  -43.2976 C.2       8 UNK         0.5000 
     31 O          -1.5621  -21.8263  -43.5813 O.2       8 UNK        -0.5000 
     32 CA         -1.4211  -19.5140  -44.1933 C.3       8 UNK         0.1400 
     33 CB         -2.6156  -18.7253  -43.6372 C.3       8 UNK        -0.1800 
     34 N          -0.2772  -18.6232  -44.3978 N.am      8 UNK        -0.5000 
     35 C           0.8604  -18.9958  -45.0012 C.2       7 UNK         0.5000 
     36 O           1.0428  -20.1194  -45.4635 O.2       7 UNK        -0.5000 
     37 CA          2.0138  -17.9780  -45.0330 C.3       7 UNK         0.1400 
     38 CB          1.9652  -17.1271  -46.3059 C.3       7 UNK        -0.1800 
     39 N           2.0674  -17.1017  -43.8629 N.am      7 UNK        -0.5000 
     40 C           2.2228  -17.5096  -42.5950 C.2       6 UNK         0.5000 
     41 O           2.2446  -18.6949  -42.2567 O.2       6 UNK        -0.5000 
     42 CA          2.3735  -16.3877  -41.5503 C.3       6 UNK         0.1400 
     43 CB          2.8628  -16.8894  -40.1755 C.3       6 UNK        -0.1800 
     44 N           3.1964  -15.2857  -42.0636 N.am      6 UNK        -0.5000 
     45 C           4.5100  -15.3000  -42.3466 C.2       5 UNK         0.5000 
     46 O           5.2506  -16.2528  -42.1022 O.2       5 UNK        -0.5000 
     47 CA          5.1056  -14.0611  -43.0567 C.3       5 UNK         0.1400 
     48 CB          5.6922  -14.4547  -44.4231 C.3       5 UNK        -0.1800 
     49 N           4.1430  -12.9784  -43.2710 N.am      5 UNK        -0.5000 
     50 C           3.6800  -12.1458  -42.3299 C.2       4 UNK         0.5000 
     51 O           4.0931  -12.1324  -41.1702 O.2       4 UNK        -0.5000 
     52 CA          2.5376  -11.1916  -42.7415 C.3       4 UNK         0.1400 
     53 CB          3.0817   -9.7716  -42.9615 C.3       4 UNK        -0.1800 
     54 N           1.7781  -11.5971  -43.9340 N.am      4 UNK        -0.5000 
     55 C           1.0962  -12.7414  -44.0831 C.2       3 UNK         0.5000 
     56 O           1.1086  -13.6583  -43.2568 O.2       3 UNK        -0.5000 
     57 CA          0.3186  -12.9056  -45.4041 C.3       3 UNK         0.1400 
     58 CB          1.2688  -13.3150  -46.5404 C.3       3 UNK        -0.1800 
     59 N          -0.7388  -13.9099  -45.2869 N.am      3 UNK        -0.5000 
     60 C          -1.8471  -13.7688  -44.5498 C.2       2 UNK         0.5000 
     61 O          -2.1640  -12.7180  -43.9883 O.2       2 UNK        -0.5000 
     62 CA         -2.7498  -15.0125  -44.4460 C.3       2 UNK         0.1400 
     63 CB         -3.9188  -14.8281  -43.4627 C.3       2 UNK        -0.1800 
     64 N          -3.2914  -15.3912  -45.7491 N.am      2 UNK        -0.5000 
     65 C          -2.6581  -16.0920  -46.6952 C.2       1 UNK         0.5000 
     66 O          -1.5176  -16.5300  -46.5440 O.2       1 UNK        -0.5000 
     67 C           0.6127  -24.5466  -46.0839 C.2       11 UNK         0.5000 
     68 O           0.4013  -25.5178  -46.8106 O.2       11 UNK        -0.5000 
     69 N          -0.0533  -24.3122  -44.9424 N.am      12 UNK        -0.5000 
     70 CA         -1.1551  -25.0709  -44.3309 C.3       12 UNK         0.1400 
     71 CB         -0.7486  -26.5254  -44.0288 C.3       12 UNK        -0.1800 
     72 C          -2.4796  -25.0064  -45.1214 C.2       12 UNK         0.5000 
     73 O          -3.5365  -24.8199  -44.5184 O.2       12 UNK        -0.5000 
     74 N          -2.4046  -25.1340  -46.4524 N.am      13 UNK        -0.5000 
     75 CA         -3.5275  -25.0077  -47.3857 C.3       13 UNK         0.1400 
     76 CB         -3.1662  -25.7335  -48.6910 C.3       13 UNK        -0.1800 
     77 C          -3.9068  -23.5435  -47.6840 C.2       13 UNK         0.5000 
     78 O          -4.9771  -23.3009  -48.2434 O.2       13 UNK        -0.5000 
     79 N          -3.0141  -22.6003  -47.3427 N.am      14 UNK        -0.5000 
     80 CA         -3.1650  -21.1464  -47.4784 C.3       14 UNK         0.1400 
     81 CB         -4.2050  -20.6353  -46.4626 C.3       14 UNK        -0.1800 
     82 C          -3.4517  -20.6955  -48.9271 C.2       14 UNK         0.5000 
     83 O          -4.3347  -19.8649  -49.1604 O.2       14 UNK        -0.5000 
     84 N          -2.6952  -21.2858  -49.8651 N.am      15 UNK        -0.5000 
     85 CA         -2.7822  -21.1299  -51.3235 C.3       15 UNK         0.1400 
     86 CB         -2.5007  -19.6760  -51.7532 C.3       15 UNK        -0.1800 
     87 C          -4.1086  -21.6763  -51.8883 C.2       15 UNK         0.5000 
     88 O          -4.6849  -21.0764  -52.7985 O.2       15 UNK        -0.5000 
     89 N          -4.5640  -22.7959  -51.3047 N.am      16 UNK        -0.5000 
     90 CA         -5.8523  -23.4638  -51.5115 C.3       16 UNK         0.1400 
     91 CB         -5.9424  -24.0936  -52.9148 C.3       16 UNK        -0.1800 
     92 C          -7.0299  -22.5314  -51.1717 C.2       16 UNK         0.5000 
     93 O          -7.9236  -22.3280  -51.9936 O.2       16 UNK        -0.5000 
     94 N          -6.9744  -21.9663  -49.9570 N.am      17 UNK        -0.5000 
     95 CA         -7.9146  -20.9985  -49.3865 C.3       17 UNK         0.1400 
     96 CB         -9.2863  -21.6562  -49.1284 C.3       17 UNK        -0.1800 
     97 C          -8.0063  -19.7015  -50.2201 C.2       17 UNK         0.5000 
     98 O          -9.1006  -19.2909  -50.6108 O.2       17 UNK        -0.5000 
     99 N          -6.8403  -19.0877  -50.4743 N.am      18 UNK        -0.5000 
    100 CA        -6.6449  -17.8394  -51.2246 C.3       18 UNK         0.1400 
    101 CB        -7.3300  -16.6459  -50.5247 C.3       18 UNK        -0.1800 
    102 C         -7.0302  -17.9288  -52.7173 C.2       18 UNK         0.5000 
    103 O         -7.4087  -16.9185  -53.3128 O.2       18 UNK        -0.5000 
    104 N         -6.8889  -19.1173  -53.3182 N.am      19 UNK        -0.5000 
    105 CA        -7.0738  -19.3385  -54.7564 C.3       19 UNK         0.1400 
    106 CB        -7.4667  -20.8040  -54.9907 C.3       19 UNK        -0.1800 
    107 C         -5.8188  -18.9760  -55.5786 C.2       19 UNK         0.5000 
    108 O         -5.8651  -19.0466  -56.8072 O.2       19 UNK        -0.5000 
    109 N         -4.7245  -18.6178  -54.8882 N.am      20 UNK        -0.5000 
    110 CA        -3.3853  -18.3229  -55.4082 C.3       20 UNK         0.1400 
    111 CB        -3.4015  -17.1320  -56.3892 C.3       20 UNK        -0.1800 
    112 C         -2.6841  -19.5727  -55.9780 C.2       20 UNK         0.5000 
    113 O         -1.8257  -19.4566  -56.8550 O.2       20 UNK        -0.5000 
    114 N         -3.0387  -20.7526  -55.4495 N.am      21 UNK        -0.5000 
    115 CA        -2.4245  -22.0364  -55.7771 C.3       21 UNK         0.1400 
    116 CB        -3.4441  -23.1567  -55.5145 C.3       21 UNK        -0.1800 
    117 C         -1.1238  -22.2159  -54.9721 C.2       21 UNK         0.5000 
    118 O         -1.0749  -23.0191  -54.0384 O.2       21 UNK        -0.5000 
    119 N         -0.1101  -21.4150  -55.3172 N.am      22 UNK        -0.5000 
    120 CA         1.2257  -21.4299  -54.7075 C.3       22 UNK         0.1400 
    121 C          1.9785  -22.7723  -54.9333 C.2       22 UNK         0.5000 
    122 N          2.7519  -23.2316  -53.9587 N.am      22 UNK        -0.7600 
    123 O          1.9049  -23.3764  -56.0015 O.2       22 UNK        -0.5000 
    124 C124        2.0970  -20.2455  -55.2009 C.3       23 UNK        -0.0398 
    125 S125        1.3617  -18.5968  -54.9024 S.3       23 UNK        -0.2404 
    126 C126        2.4315  -17.9104  -53.5923 C.3       23 UNK        -0.0205 
    127 H127       -6.8830  -18.2404  -45.8487 H         1 UNK         0.0600 
    128 H128       -6.4720  -18.9235  -47.4235 H         1 UNK         0.0600 
    129 H129       -7.7269  -17.6898  -47.3018 H         1 UNK         0.0600 
    130 H130       -4.5133  -18.1832  -48.1201 H         1 UNK         0.3000 
    131 H131       -3.8523  -15.4077  -48.3312 H         1 UNK         0.0600 
    132 H132       -1.9417  -17.7502  -48.8070 H         1 UNK         0.0800 
    133 H133       -3.2216  -17.3653  -49.9098 H         1 UNK         0.0800 
    134 H134        0.7285  -15.1656  -49.6863 H         1 UNK         0.0800 
    135 H135        0.1455  -16.2181  -48.4339 H         1 UNK         0.0800 
    136 H136        1.2640  -16.0563  -51.9626 H         1 UNK         0.1150 
    137 H137        2.2726  -20.2153  -52.1524 H         1 UNK         0.1150 
    138 H138        0.1884  -18.6758  -48.7427 H         1 UNK         0.1150 
    139 H139       -0.0059  -21.1458  -49.6151 H         1 UNK         0.0800 
    140 H140        1.2823  -21.7497  -50.6202 H         1 UNK         0.0800 
    141 H141        0.5510  -23.2056  -48.4008 H         1 UNK         0.0800 
    142 H142        0.1111  -22.0463  -47.1682 H         1 UNK         0.0800 
    143 H143        2.4636  -24.0013  -47.0113 H         1 UNK         0.0600 
    144 H144        1.7813  -21.7615  -45.3010 H         1 UNK         0.3000 
    145 H145        3.9764  -22.8233  -42.6286 H         1 UNK         0.0600 
    146 H146        3.9418  -20.5241  -44.6463 H         1 UNK         0.0600 
    147 H147        4.6271  -20.4237  -43.0240 H         1 UNK         0.0600 
    148 H148        5.3212  -21.5186  -44.2120 H         1 UNK         0.0600 
    149 H149        2.1887  -20.6338  -42.7340 H         1 UNK         0.3000 
    150 H150       -0.5975  -22.2441  -41.1609 H         1 UNK         0.0600 
    151 H151        0.9962  -21.6912  -39.3418 H         1 UNK         0.0600 
    152 H152       -0.1631  -20.3898  -39.5622 H         1 UNK         0.0600 
    153 H153        1.4823  -20.2196  -40.1716 H         1 UNK         0.0600 
    154 H154        0.1278  -19.5819  -42.1459 H         1 UNK         0.3000 
    155 H155       -1.7040  -19.9068  -45.1684 H         1 UNK         0.0600 
    156 H156       -3.4448  -19.3903  -43.3919 H         1 UNK         0.0600 
    157 H157       -2.9898  -18.0144  -44.3719 H         1 UNK         0.0600 
    158 H158       -2.3548  -18.1775  -42.7311 H         1 UNK         0.0600 
    159 H159       -0.3543  -17.6792  -44.0528 H         1 UNK         0.3000 
    160 H160        2.9452  -18.5437  -45.0532 H         1 UNK         0.0600 
    161 H161        2.8503  -16.4971  -46.3940 H         1 UNK         0.0600 
    162 H162        1.0880  -16.4829  -46.3167 H         1 UNK         0.0600 
    163 H163        1.9285  -17.7573  -47.1949 H         1 UNK         0.0600 
    164 H164        2.0454  -16.1079  -44.0383 H         1 UNK         0.3000 
    165 H165        1.3744  -15.9738  -41.4071 H         1 UNK         0.0600 
    166 H166        3.8160  -17.4137  -40.2454 H         1 UNK         0.0600 
    167 H167        2.9825  -16.0639  -39.4739 H         1 UNK         0.0600 
    168 H168        2.1445  -17.5848  -39.7398 H         1 UNK         0.0600 
    169 H169        2.6654  -14.4670  -42.3443 H         1 UNK         0.3000 
    170 H170        5.9169  -13.6862  -42.4294 H         1 UNK         0.0600 
    171 H171        4.9259  -14.8521  -45.0900 H         1 UNK         0.0600 
    172 H172        6.1562  -13.5996  -44.9151 H         1 UNK         0.0600 
    173 H173        6.4621  -15.2199  -44.3158 H         1 UNK         0.0600 
    174 H174        3.7467  -12.9070  -44.1961 H         1 UNK         0.3000 
    175 H175        1.8352  -11.1611  -41.9061 H         1 UNK         0.0600 
    176 H176        3.7659   -9.7310  -43.8100 H         1 UNK         0.0600 
    177 H177        2.2743   -9.0626  -43.1454 H         1 UNK         0.0600 
    178 H178        3.6259   -9.4192  -42.0841 H         1 UNK         0.0600 
    179 H179        1.7339  -10.9128  -44.6757 H         1 UNK         0.3000 
    180 H180       -0.1445  -11.9501  -45.6589 H         1 UNK         0.0600 
    181 H181        1.8293  -14.2158  -46.2936 H         1 UNK         0.0600 
    182 H182        1.9951  -12.5278  -46.7455 H         1 UNK         0.0600 
    183 H183        0.7239  -13.5000  -47.4665 H         1 UNK         0.0600 
    184 H184       -0.5817  -14.8039  -45.7358 H         1 UNK         0.3000 
    185 H185       -2.1255  -15.8228  -44.0661 H         1 UNK         0.0600 
    186 H186       -4.4962  -15.7475  -43.3631 H         1 UNK         0.0600 
    187 H187       -3.5569  -14.5635  -42.4684 H         1 UNK         0.0600 
    188 H188       -4.5990  -14.0400  -43.7881 H         1 UNK         0.0600 
    189 H189       -4.2543  -15.1265  -45.9349 H         1 UNK         0.3000 
    190 H190        0.1833  -23.4638  -44.4461 H         1 UNK         0.3000 
    191 H191       -1.3421  -24.5843  -43.3722 H         1 UNK         0.0600 
    192 H192       -0.5777  -27.1027  -44.9376 H         1 UNK         0.0600 
    193 H193        0.1621  -26.5618  -43.4307 H         1 UNK         0.0600 
    194 H194       -1.5295  -27.0355  -43.4637 H         1 UNK         0.0600 
    195 H195       -1.4906  -25.3377  -46.8478 H         1 UNK         0.3000 
    196 H196       -4.4048  -25.4930  -46.9529 H         1 UNK         0.0600 
    197 H197       -2.9514  -26.7866  -48.5079 H         1 UNK         0.0600 
    198 H198       -2.2909  -25.2924  -49.1696 H         1 UNK         0.0600 
    199 H199       -3.9895  -25.6924  -49.4055 H         1 UNK         0.0600 
    200 H200       -2.1824  -22.9172  -46.8680 H         1 UNK         0.3000 
    201 H201       -2.1991  -20.7121  -47.2211 H         1 UNK         0.0600 
    202 H202       -4.1718  -19.5508  -46.3783 H         1 UNK         0.0600 
    203 H203       -4.0119  -21.0364  -45.4675 H         1 UNK         0.0600 
    204 H204       -5.2192  -20.9228  -46.7418 H         1 UNK         0.0600 
    205 H205       -2.0304  -21.9752  -49.5480 H         1 UNK         0.3000 
    206 H206       -1.9905  -21.7522  -51.7426 H         1 UNK         0.0600 
    207 H207       -1.6309  -19.2680  -51.2410 H         1 UNK         0.0600 
    208 H208       -3.3483  -19.0216  -51.5525 H         1 UNK         0.0600 
    209 H209       -2.2930  -19.6271  -52.8210 H         1 UNK         0.0600 
    210 H210       -4.0210  -23.1643  -50.5385 H         1 UNK         0.3000 
    211 H211       -5.8950  -24.2806  -50.7894 H         1 UNK         0.0600 
    212 H212       -5.1157  -24.7815  -53.0906 H         1 UNK         0.0600 
    213 H213       -6.8665  -24.6614  -53.0276 H         1 UNK         0.0600 
    214 H214       -5.9266  -23.3414  -53.7004 H         1 UNK         0.0600 
    215 H215       -6.2016  -22.2355  -49.3538 H         1 UNK         0.3000 
    216 H216       -7.5059  -20.7182  -48.4161 H         1 UNK         0.0600 
    217 H217       -9.9532  -20.9717  -48.6032 H         1 UNK         0.0600 
    218 H218       -9.7808  -21.9462  -50.0559 H         1 UNK         0.0600 
    219 H219       -9.1847  -22.5480  -48.5099 H         1 UNK         0.0600 
    220 H220       -5.9906  -19.5090  -50.1074 H         1 UNK         0.3000 
    221 H221       -5.5707  -17.6515  -51.2051 H         1 UNK         0.0600 
    222 H222       -8.4168  -16.7084  -50.5842 H         1 UNK         0.0600 
    223 H223       -7.0588  -16.5859  -49.4754 H         1 UNK         0.0600 
    224 H224       -7.0339  -15.7013  -50.9823 H         1 UNK         0.0600 
    225 H225       -6.5407  -19.9066  -52.7864 H         1 UNK         0.3000 
    226 H226       -7.8927  -18.7115  -55.1149 H         1 UNK         0.0600 
    227 H227       -8.3542  -21.0728  -54.4179 H         1 UNK         0.0600 
    228 H228       -7.6905  -20.9883  -56.0420 H         1 UNK         0.0600 
    229 H229       -6.6619  -21.4789  -54.7049 H         1 UNK         0.0600 
    230 H230       -4.8047  -18.6441  -53.8822 H         1 UNK         0.3000 
    231 H231       -2.7910  -18.0159  -54.5469 H         1 UNK         0.0600 
    232 H232       -2.3866  -16.8095  -56.6246 H         1 UNK         0.0600 
    233 H233       -3.9220  -16.2751  -55.9615 H         1 UNK         0.0600 
    234 H234       -3.8869  -17.3853  -57.3318 H         1 UNK         0.0600 
    235 H235       -3.7312  -20.7640  -54.7095 H         1 UNK         0.3000 
    236 H236       -2.1718  -22.0597  -56.8393 H         1 UNK         0.0600 
    237 H237       -4.3654  -22.9955  -56.0745 H         1 UNK         0.0600 
    238 H238       -3.0434  -24.1256  -55.8141 H         1 UNK         0.0600 
    239 H239       -3.6999  -23.2222  -54.4583 H         1 UNK         0.0600 
    240 H240       -0.2606  -20.7416  -56.0586 H         1 UNK         0.3000 
    241 H241        1.0665  -21.3202  -53.6351 H         1 UNK         0.0600 
    242 H242        3.2560  -24.0928  -54.1043 H         1 UNK         0.3800 
    243 H243        2.8417  -22.7545  -53.0760 H         1 UNK         0.3800 
    244 H244        3.0849  -20.2876  -54.7402 H         1 UNK         0.0800 
    245 H245        2.2711  -20.3352  -56.2747 H         1 UNK         0.0800 
    246 H246        2.5626  -16.8446  -53.7855 H         1 UNK         0.0800 
    247 H247        3.4317  -18.3429  -53.6329 H         1 UNK         0.0800 
@<TRIPOS>BOND
     1    1    2 1    
     2    1  127 1    
     3    1  128 1    
     4    1  129 1    
     5    2    3 2    
     6    2    4 am   BACKBONE|DICT|INTERRES
     7    4    5 1    
     8    4  130 1    
     9    5    6 1    
    10    5   65 1    
    11    5  131 1    
    12    6    7 1    
    13    6  132 1    
    14    6  133 1    
    15    7    8 1    
    16    8    9 1    
    17    8  134 1    
    18    8  135 1    
    19    9   10 ar   
    20    9   14 ar   
    21   10   11 ar   
    22   10  136 1    
    23   11   12 ar   
    24   11  126 1    
    25   12   13 ar   
    26   12  137 1    
    27   13   14 ar   
    28   13   15 1    
    29   14  138 1    
    30   15   16 1    
    31   15  139 1    
    32   15  140 1    
    33   16   17 1    
    34   17   18 1    
    35   17  141 1    
    36   17  142 1    
    37   18   19 1    
    38   18   67 1    
    39   18  143 1    
    40   19   20 am   BACKBONE|DICT|INTERRES
    41   19  144 1    
    42   20   21 2    
    43   20   22 1    
    44   22   23 1    
    45   22   24 1    
    46   22  145 1    
    47   23  146 1    
    48   23  147 1    
    49   23  148 1    
    50   24   25 am   BACKBONE|DICT|INTERRES
    51   24  149 1    
    52   25   26 2    
    53   25   27 1    
    54   27   28 1    
    55   27   29 1    
    56   27  150 1    
    57   28  151 1    
    58   28  152 1    
    59   28  153 1    
    60   29   30 am   BACKBONE|DICT|INTERRES
    61   29  154 1    
    62   30   31 2    
    63   30   32 1    
    64   32   33 1    
    65   32   34 1    
    66   32  155 1    
    67   33  156 1    
    68   33  157 1    
    69   33  158 1    
    70   34   35 am   BACKBONE|DICT|INTERRES
    71   34  159 1    
    72   35   36 2    
    73   35   37 1    
    74   37   38 1    
    75   37   39 1    
    76   37  160 1    
    77   38  161 1    
    78   38  162 1    
    79   38  163 1    
    80   39   40 am   BACKBONE|DICT|INTERRES
    81   39  164 1    
    82   40   41 2    
    83   40   42 1    
    84   42   43 1    
    85   42   44 1    
    86   42  165 1    
    87   43  166 1    
    88   43  167 1    
    89   43  168 1    
    90   44   45 am   BACKBONE|DICT|INTERRES
    91   44  169 1    
    92   45   46 2    
    93   45   47 1    
    94   47   48 1    
    95   47   49 1    
    96   47  170 1    
    97   48  171 1    
    98   48  172 1    
    99   48  173 1    
   100   49   50 am   BACKBONE|DICT|INTERRES
   101   49  174 1    
   102   50   51 2    
   103   50   52 1    
   104   52   53 1    
   105   52   54 1    
   106   52  175 1    
   107   53  176 1    
   108   53  177 1    
   109   53  178 1    
   110   54   55 am   BACKBONE|DICT|INTERRES
   111   54  179 1    
   112   55   56 2    
   113   55   57 1    
   114   57   58 1    
   115   57   59 1    
   116   57  180 1    
   117   58  181 1    
   118   58  182 1    
   119   58  183 1    
   120   59   60 am   BACKBONE|DICT|INTERRES
   121   59  184 1    
   122   60   61 2    
   123   60   62 1    
   124   62   63 1    
   125   62   64 1    
   126   62  185 1    
   127   63  186 1    
   128   63  187 1    
   129   63  188 1    
   130   64   65 am   BACKBONE|DICT|INTERRES
   131   64  189 1    
   132   65   66 2    
   133   67   68 2    
   134   67   69 am   BACKBONE|DICT|INTERRES
   135   69   70 1    
   136   69  190 1    
   137   70   71 1    
   138   70   72 1    
   139   70  191 1    
   140   71  192 1    
   141   71  193 1    
   142   71  194 1    
   143   72   73 2    
   144   72   74 am   BACKBONE|DICT|INTERRES
   145   74   75 1    
   146   74  195 1    
   147   75   76 1    
   148   75   77 1    
   149   75  196 1    
   150   76  197 1    
   151   76  198 1    
   152   76  199 1    
   153   77   78 2    
   154   77   79 am   BACKBONE|DICT|INTERRES
   155   79   80 1    
   156   79  200 1    
   157   80   81 1    
   158   80   82 1    
   159   80  201 1    
   160   81  202 1    
   161   81  203 1    
   162   81  204 1    
   163   82   83 2    
   164   82   84 am   BACKBONE|DICT|INTERRES
   165   84   85 1    
   166   84  205 1    
   167   85   86 1    
   168   85   87 1    
   169   85  206 1    
   170   86  207 1    
   171   86  208 1    
   172   86  209 1    
   173   87   88 2    
   174   87   89 am   BACKBONE|DICT|INTERRES
   175   89   90 1    
   176   89  210 1    
   177   90   91 1    
   178   90   92 1    
   179   90  211 1    
   180   91  212 1    
   181   91  213 1    
   182   91  214 1    
   183   92   93 2    
   184   92   94 am   BACKBONE|DICT|INTERRES
   185   94   95 1    
   186   94  215 1    
   187   95   96 1    
   188   95   97 1    
   189   95  216 1    
   190   96  217 1    
   191   96  218 1    
   192   96  219 1    
   193   97   98 2    
   194   97   99 am   BACKBONE|DICT|INTERRES
   195   99  100 1    
   196   99  220 1    
   197  100  101 1    
   198  100  102 1    
   199  100  221 1    
   200  101  222 1    
   201  101  223 1    
   202  101  224 1    
   203  102  103 2    
   204  102  104 am   BACKBONE|DICT|INTERRES
   205  104  105 1    
   206  104  225 1    
   207  105  106 1    
   208  105  107 1    
   209  105  226 1    
   210  106  227 1    
   211  106  228 1    
   212  106  229 1    
   213  107  108 2    
   214  107  109 am   BACKBONE|DICT|INTERRES
   215  109  110 1    
   216  109  230 1    
   217  110  111 1    
   218  110  112 1    
   219  110  231 1    
   220  111  232 1    
   221  111  233 1    
   222  111  234 1    
   223  112  113 2    
   224  112  114 am   BACKBONE|DICT|INTERRES
   225  114  115 1    
   226  114  235 1    
   227  115  116 1    
   228  115  117 1    
   229  115  236 1    
   230  116  237 1    
   231  116  238 1    
   232  116  239 1    
   233  117  118 2    
   234  117  119 am   BACKBONE|DICT|INTERRES
   235  119  120 1    
   236  119  240 1    
   237  120  121 1    
   238  120  124 1    
   239  120  241 1    
   240  121  122 am   BACKBONE|DICT|INTERRES
   241  121  123 2    
   242  122  242 1    
   243  122  243 1    
   244  124  125 1    
   245  124  244 1    
   246  124  245 1    
   247  125  126 1    
   248  126  246 1    
   249  126  247 1    
@<TRIPOS>SUBSTRUCTURE
     1 UNK         1 GROUP             0       ****    0 ROOT    
