@<TRIPOS>MOLECULE
3R540
247   249    1
SMALL
USER_CHARGES


@<TRIPOS>ATOM
      1 CA          4.5705  -15.0096  -51.8752 C.3       0 UNK        -0.1800 
      2 C           4.0990  -14.5441  -50.5051 C.2       0 UNK         0.5000 
      3 O           4.7583  -13.7170  -49.8757 O.2       0 UNK        -0.5000 
      4 N           2.9596  -15.0733  -50.0448 N.am      1 UNK        -0.5000 
      5 CA          2.3273  -14.7445  -48.7614 C.3       1 UNK         0.1400 
      6 C6          1.3134  -15.8324  -48.3378 C.3       23 UNK        -0.0398 
      7 S7          0.0367  -16.1919  -49.5979 S.3       23 UNK        -0.2404 
      8 C8         -0.0560  -18.0092  -49.5325 C.3       23 UNK        -0.0205 
      9 C9          1.2147  -18.6758  -50.0347 C.ar      23 UNK        -0.0193 
     10 C10         1.6366  -18.4774  -51.3512 C.ar      23 UNK        -0.1150 
     11 C11         2.7986  -19.0897  -51.8289 C.ar      23 UNK        -0.0193 
     12 C12         3.5379  -19.9112  -50.9702 C.ar      23 UNK        -0.1150 
     13 C13         3.1245  -20.1211  -49.6498 C.ar      23 UNK        -0.0193 
     14 C14         1.9645  -19.4955  -49.1884 C.ar      23 UNK        -0.1150 
     15 C15         3.9482  -20.9882  -48.7066 C.3       23 UNK        -0.0205 
     16 S16         4.0890  -22.7136  -49.2709 S.3       23 UNK        -0.2404 
     17 C17         2.4156  -23.3809  -48.9750 C.3       23 UNK        -0.0398 
     18 CA          2.3739  -24.2771  -47.7085 C.3       11 UNK         0.1400 
     19 N           2.4559  -23.4848  -46.4754 N.am      11 UNK        -0.5000 
     20 C           3.3641  -23.6533  -45.5064 C.2       10 UNK         0.5000 
     21 O           4.2916  -24.4610  -45.5643 O.2       10 UNK        -0.5000 
     22 CA          3.1904  -22.7941  -44.2371 C.3       10 UNK         0.1400 
     23 CB          4.0312  -21.5135  -44.3491 C.3       10 UNK        -0.1800 
     24 N           1.7985  -22.4428  -43.9178 N.am      10 UNK        -0.5000 
     25 C           0.8205  -23.3294  -43.6656 C.2       9 UNK         0.5000 
     26 O           0.9921  -24.5478  -43.7229 O.2       9 UNK        -0.5000 
     27 CA         -0.5808  -22.7722  -43.3264 C.3       9 UNK         0.1400 
     28 CB         -1.4780  -23.7934  -42.5977 C.3       9 UNK        -0.1800 
     29 N          -0.5468  -21.4974  -42.6059 N.am      9 UNK        -0.5000 
     30 C           0.0096  -21.2401  -41.4098 C.2       8 UNK         0.5000 
     31 O           0.5125  -22.1044  -40.6900 O.2       8 UNK        -0.5000 
     32 CA          0.0218  -19.7574  -40.9577 C.3       8 UNK         0.1400 
     33 CB          1.1751  -19.4423  -39.9824 C.3       8 UNK        -0.1800 
     34 N           0.0216  -18.8073  -42.0799 N.am      8 UNK        -0.5000 
     35 C           0.9111  -18.7542  -43.0838 C.2       7 UNK         0.5000 
     36 O           1.9404  -19.4281  -43.1088 O.2       7 UNK        -0.5000 
     37 CA          0.5615  -17.8674  -44.2989 C.3       7 UNK         0.1400 
     38 CB          1.1113  -18.4758  -45.6024 C.3       7 UNK        -0.1800 
     39 N          -0.8683  -17.5653  -44.4622 N.am      7 UNK        -0.5000 
     40 C          -1.8993  -18.4235  -44.5370 C.2       6 UNK         0.5000 
     41 O          -1.7896  -19.6427  -44.4029 O.2       6 UNK        -0.5000 
     42 CA         -3.2969  -17.8144  -44.7602 C.3       6 UNK         0.1400 
     43 CB         -4.0115  -17.5964  -43.4191 C.3       6 UNK        -0.1800 
     44 N          -3.2707  -16.5536  -45.5027 N.am      6 UNK        -0.5000 
     45 C          -2.9620  -16.4515  -46.8030 C.2       5 UNK         0.5000 
     46 O          -2.7400  -17.4187  -47.5290 O.2       5 UNK        -0.5000 
     47 CA         -2.8928  -15.0337  -47.4005 C.3       5 UNK         0.1400 
     48 CB         -4.2286  -14.6721  -48.0670 C.3       5 UNK        -0.1800 
     49 N          -2.5206  -13.9578  -46.4757 N.am      5 UNK        -0.5000 
     50 C          -1.4340  -13.9017  -45.6926 C.2       4 UNK         0.5000 
     51 O          -0.6879  -14.8581  -45.4831 O.2       4 UNK        -0.5000 
     52 CA         -1.1272  -12.5292  -45.0612 C.3       4 UNK         0.1400 
     53 CB          0.1832  -12.5259  -44.2533 C.3       4 UNK        -0.1800 
     54 N          -1.0452  -11.4979  -46.0967 N.am      4 UNK        -0.5000 
     55 C          -2.0884  -10.8247  -46.6003 C.2       3 UNK         0.5000 
     56 O          -3.2457  -10.9830  -46.2097 O.2       3 UNK        -0.5000 
     57 CA         -1.8075   -9.8415  -47.7528 C.3       3 UNK         0.1400 
     58 CB         -1.6187   -8.4173  -47.2090 C.3       3 UNK        -0.1800 
     59 N          -0.6414  -10.2015  -48.5627 N.am      3 UNK        -0.5000 
     60 C          -0.5593  -11.2742  -49.3623 C.2       2 UNK         0.5000 
     61 O          -1.4748  -12.0863  -49.5067 O.2       2 UNK        -0.5000 
     62 CA          0.7569  -11.4778  -50.1453 C.3       2 UNK         0.1400 
     63 CB          1.8185  -10.3793  -49.9082 C.3       2 UNK        -0.1800 
     64 N           1.3392  -12.8012  -49.9093 N.am      2 UNK        -0.5000 
     65 C           1.6986  -13.3320  -48.7297 C.2       1 UNK         0.5000 
     66 O           1.5730  -12.7520  -47.6494 O.2       1 UNK        -0.5000 
     67 C           1.1478  -25.2200  -47.6697 C.2       11 UNK         0.5000 
     68 O           0.6827  -25.6615  -48.7211 O.2       11 UNK        -0.5000 
     69 N           0.6505  -25.5363  -46.4624 N.am      12 UNK        -0.5000 
     70 CA         -0.4825  -26.4200  -46.1761 C.3       12 UNK         0.1400 
     71 CB         -0.0995  -27.8903  -46.4580 C.3       12 UNK        -0.1800 
     72 C          -1.7659  -25.9477  -46.8885 C.2       12 UNK         0.5000 
     73 O          -2.0935  -24.7624  -46.8081 O.2       12 UNK        -0.5000 
     74 N          -2.4527  -26.8551  -47.5948 N.am      13 UNK        -0.5000 
     75 CA         -3.6958  -26.6140  -48.3345 C.3       13 UNK         0.1400 
     76 CB         -4.2066  -27.9546  -48.8847 C.3       13 UNK        -0.1800 
     77 C          -3.5911  -25.5707  -49.4677 C.2       13 UNK         0.5000 
     78 O          -4.6225  -25.0661  -49.9096 O.2       13 UNK        -0.5000 
     79 N          -2.3651  -25.2497  -49.9052 N.am      14 UNK        -0.5000 
     80 CA         -2.0777  -24.1975  -50.8813 C.3       14 UNK         0.1400 
     81 CB         -0.7571  -24.5304  -51.5942 C.3       14 UNK        -0.1800 
     82 C          -2.0344  -22.7838  -50.2613 C.2       14 UNK         0.5000 
     83 O          -1.7965  -21.8243  -50.9971 O.2       14 UNK        -0.5000 
     84 N          -2.2432  -22.6716  -48.9417 N.am      15 UNK        -0.5000 
     85 CA         -2.2998  -21.4084  -48.2101 C.3       15 UNK         0.1400 
     86 CB         -0.9506  -21.1616  -47.5237 C.3       15 UNK        -0.1800 
     87 C          -3.4421  -21.3796  -47.1828 C.2       15 UNK         0.5000 
     88 O          -4.0873  -20.3420  -47.0433 O.2       15 UNK        -0.5000 
     89 N          -3.6692  -22.4981  -46.4749 N.am      16 UNK        -0.5000 
     90 CA         -4.6329  -22.6465  -45.3787 C.3       16 UNK         0.1400 
     91 CB         -4.6553  -24.1122  -44.9206 C.3       16 UNK        -0.1800 
     92 C          -6.0595  -22.1767  -45.7231 C.2       16 UNK         0.5000 
     93 O          -6.5163  -22.3660  -46.8516 O.2       16 UNK        -0.5000 
     94 N          -6.7205  -21.5478  -44.7397 N.am      17 UNK        -0.5000 
     95 CA         -8.0358  -20.8959  -44.8394 C.3       17 UNK         0.1400 
     96 CB         -9.1473  -21.9324  -45.1086 C.3       17 UNK        -0.1800 
     97 C          -8.0617  -19.7174  -45.8413 C.2       17 UNK         0.5000 
     98 O          -9.1233  -19.3793  -46.3662 O.2       17 UNK        -0.5000 
     99 N          -6.8830  -19.1233  -46.0857 N.am      18 UNK        -0.5000 
    100 CA        -6.5921  -18.0518  -47.0431 C.3       18 UNK         0.1400 
    101 CB        -7.3417  -16.7539  -46.6786 C.3       18 UNK        -0.1800 
    102 C         -6.7736  -18.4623  -48.5195 C.2       18 UNK         0.5000 
    103 O         -6.8829  -17.5913  -49.3848 O.2       18 UNK        -0.5000 
    104 N         -6.7607  -19.7720  -48.8052 N.am      19 UNK        -0.5000 
    105 CA        -6.8394  -20.3442  -50.1489 C.3       19 UNK         0.1400 
    106 CB        -7.4433  -21.7568  -50.0541 C.3       19 UNK        -0.1800 
    107 C         -5.4570  -20.3310  -50.8325 C.2       19 UNK         0.5000 
    108 O         -4.9345  -21.3870  -51.1872 O.2       19 UNK        -0.5000 
    109 N         -4.8839  -19.1284  -50.9727 N.am      20 UNK        -0.5000 
    110 CA        -3.5675  -18.8500  -51.5421 C.3       20 UNK         0.1400 
    111 CB        -3.2548  -17.3556  -51.3523 C.3       20 UNK        -0.1800 
    112 C         -3.4756  -19.2605  -53.0232 C.2       20 UNK         0.5000 
    113 O         -3.9484  -18.5256  -53.8937 O.2       20 UNK        -0.5000 
    114 N         -2.8701  -20.4259  -53.2838 N.am      21 UNK        -0.5000 
    115 CA        -2.7451  -21.0285  -54.6151 C.3       21 UNK         0.1400 
    116 CB        -2.1796  -22.4477  -54.4758 C.3       21 UNK        -0.1800 
    117 C         -1.8821  -20.2067  -55.5904 C.2       21 UNK         0.5000 
    118 O         -2.0939  -20.2849  -56.8013 O.2       21 UNK        -0.5000 
    119 N         -0.9429  -19.4246  -55.0452 N.am      22 UNK        -0.5000 
    120 CA        -0.1021  -18.4763  -55.7911 C.3       22 UNK         0.1400 
    121 C         -0.8487  -17.1869  -56.2520 C.2       22 UNK         0.5000 
    122 N         -2.0850  -16.9343  -55.8338 N.am      22 UNK        -0.7600 
    123 O         -0.2942  -16.3988  -57.0130 O.2       22 UNK        -0.5000 
    124 C124        1.1906  -18.1125  -55.0157 C.3       23 UNK        -0.0398 
    125 S125        2.1715  -19.5696  -54.5068 S.3       23 UNK        -0.2404 
    126 C126        3.2774  -18.8408  -53.2545 C.3       23 UNK        -0.0205 
    127 H127        4.7803  -14.1507  -52.5131 H         1 UNK         0.0600 
    128 H128        3.8195  -15.6238  -52.3721 H         1 UNK         0.0600 
    129 H129        5.4839  -15.5969  -51.7787 H         1 UNK         0.0600 
    130 H130        2.4656  -15.7586  -50.5990 H         1 UNK         0.3000 
    131 H131        3.1168  -14.7365  -48.0066 H         1 UNK         0.0600 
    132 H132        1.8673  -16.7455  -48.1219 H         1 UNK         0.0800 
    133 H133        0.8213  -15.5634  -47.4039 H         1 UNK         0.0800 
    134 H134       -0.8872  -18.3452  -50.1491 H         1 UNK         0.0800 
    135 H135       -0.2947  -18.3197  -48.5155 H         1 UNK         0.0800 
    136 H136        1.0561  -17.8354  -51.9945 H         1 UNK         0.1150 
    137 H137        4.4422  -20.3859  -51.3243 H         1 UNK         0.1150 
    138 H138        1.6491  -19.6429  -48.1664 H         1 UNK         0.1150 
    139 H139        4.9502  -20.5640  -48.6316 H         1 UNK         0.0800 
    140 H140        3.5362  -20.9748  -47.6967 H         1 UNK         0.0800 
    141 H141        2.1646  -23.9523  -49.8692 H         1 UNK         0.0800 
    142 H142        1.6836  -22.5751  -48.9163 H         1 UNK         0.0800 
    143 H143        3.2270  -24.9559  -47.7686 H         1 UNK         0.0600 
    144 H144        1.7251  -22.8047  -46.3300 H         1 UNK         0.3000 
    145 H145        3.5774  -23.3793  -43.4006 H         1 UNK         0.0600 
    146 H146        4.0793  -20.9918  -43.3934 H         1 UNK         0.0600 
    147 H147        5.0577  -21.7385  -44.6420 H         1 UNK         0.0600 
    148 H148        3.6208  -20.8250  -45.0886 H         1 UNK         0.0600 
    149 H149        1.6082  -21.4554  -43.7904 H         1 UNK         0.3000 
    150 H150       -1.0528  -22.5577  -44.2865 H         1 UNK         0.0600 
    151 H151       -1.6151  -24.6933  -43.1981 H         1 UNK         0.0600 
    152 H152       -2.4681  -23.3802  -42.4053 H         1 UNK         0.0600 
    153 H153       -1.0502  -24.1008  -41.6433 H         1 UNK         0.0600 
    154 H154       -0.9409  -20.7155  -43.1255 H         1 UNK         0.3000 
    155 H155       -0.9157  -19.5991  -40.4231 H         1 UNK         0.0600 
    156 H156        2.1492  -19.6485  -40.4270 H         1 UNK         0.0600 
    157 H157        1.1598  -18.3956  -39.6789 H         1 UNK         0.0600 
    158 H158        1.0968  -20.0424  -39.0753 H         1 UNK         0.0600 
    159 H159       -0.7992  -18.2247  -42.1601 H         1 UNK         0.3000 
    160 H160        1.0565  -16.9086  -44.1391 H         1 UNK         0.0600 
    161 H161        0.8207  -19.5205  -45.7102 H         1 UNK         0.0600 
    162 H162        2.2009  -18.4359  -45.6268 H         1 UNK         0.0600 
    163 H163        0.7426  -17.9337  -46.4697 H         1 UNK         0.0600 
    164 H164       -1.0621  -16.5836  -44.6395 H         1 UNK         0.3000 
    165 H165       -3.8790  -18.5357  -45.3302 H         1 UNK         0.0600 
    166 H166       -5.0348  -17.2519  -43.5706 H         1 UNK         0.0600 
    167 H167       -4.0643  -18.5249  -42.8487 H         1 UNK         0.0600 
    168 H168       -3.4959  -16.8596  -42.8020 H         1 UNK         0.0600 
    169 H169       -3.4389  -15.7063  -44.9808 H         1 UNK         0.3000 
    170 H170       -2.1298  -15.0516  -48.1777 H         1 UNK         0.0600 
    171 H171       -5.0184  -14.5327  -47.3285 H         1 UNK         0.0600 
    172 H172       -4.1418  -13.7511  -48.6442 H         1 UNK         0.0600 
    173 H173       -4.5533  -15.4549  -48.7545 H         1 UNK         0.0600 
    174 H174       -3.0615  -13.1051  -46.5559 H         1 UNK         0.3000 
    175 H175       -1.9421  -12.2957  -44.3730 H         1 UNK         0.0600 
    176 H176        0.3639  -11.5512  -43.8000 H         1 UNK         0.0600 
    177 H177        1.0428  -12.7689  -44.8792 H         1 UNK         0.0600 
    178 H178        0.1470  -13.2575  -43.4451 H         1 UNK         0.0600 
    179 H179       -0.1404  -11.3804  -46.5338 H         1 UNK         0.3000 
    180 H180       -2.6834   -9.8439  -48.4050 H         1 UNK         0.0600 
    181 H181       -0.7414   -8.3452  -46.5650 H         1 UNK         0.0600 
    182 H182       -2.4835   -8.1056  -46.6216 H         1 UNK         0.0600 
    183 H183       -1.5019   -7.6972  -48.0192 H         1 UNK         0.0600 
    184 H184        0.1590   -9.5895  -48.4977 H         1 UNK         0.3000 
    185 H185        0.4845  -11.4472  -51.2011 H         1 UNK         0.0600 
    186 H186        1.4400   -9.3947  -50.1859 H         1 UNK         0.0600 
    187 H187        2.1417  -10.3351  -48.8675 H         1 UNK         0.0600 
    188 H188        2.7046  -10.5605  -50.5169 H         1 UNK         0.0600 
    189 H189        1.4543  -13.3800  -50.7285 H         1 UNK         0.3000 
    190 H190        1.0752  -25.1215  -45.6398 H         1 UNK         0.3000 
    191 H191       -0.6820  -26.3292  -45.1077 H         1 UNK         0.0600 
    192 H192       -0.8843  -28.5749  -46.1342 H         1 UNK         0.0600 
    193 H193        0.0901  -28.0713  -47.5168 H         1 UNK         0.0600 
    194 H194        0.8034  -28.1655  -45.9125 H         1 UNK         0.0600 
    195 H195       -2.0931  -27.7979  -47.6293 H         1 UNK         0.3000 
    196 H196       -4.4320  -26.2360  -47.6228 H         1 UNK         0.0600 
    197 H197       -5.1525  -27.8272  -49.4131 H         1 UNK         0.0600 
    198 H198       -4.3804  -28.6714  -48.0819 H         1 UNK         0.0600 
    199 H199       -3.4969  -28.3974  -49.5846 H         1 UNK         0.0600 
    200 H200       -1.5617  -25.6920  -49.4760 H         1 UNK         0.3000 
    201 H201       -2.8700  -24.1899  -51.6322 H         1 UNK         0.0600 
    202 H202        0.0882  -24.5003  -50.9102 H         1 UNK         0.0600 
    203 H203       -0.7895  -25.5208  -52.0482 H         1 UNK         0.0600 
    204 H204       -0.5448  -23.8170  -52.3886 H         1 UNK         0.0600 
    205 H205       -2.4024  -23.5144  -48.4033 H         1 UNK         0.3000 
    206 H206       -2.4861  -20.5861  -48.9037 H         1 UNK         0.0600 
    207 H207       -0.1449  -21.1412  -48.2546 H         1 UNK         0.0600 
    208 H208       -0.9584  -20.2006  -47.0105 H         1 UNK         0.0600 
    209 H209       -0.7216  -21.9336  -46.7885 H         1 UNK         0.0600 
    210 H210       -3.0770  -23.3092  -46.6365 H         1 UNK         0.3000 
    211 H211       -4.2591  -22.0354  -44.5546 H         1 UNK         0.0600 
    212 H212       -4.9741  -24.7760  -45.7246 H         1 UNK         0.0600 
    213 H213       -5.3425  -24.2537  -44.0854 H         1 UNK         0.0600 
    214 H214       -3.6711  -24.4388  -44.5868 H         1 UNK         0.0600 
    215 H215       -6.2663  -21.4554  -43.8414 H         1 UNK         0.3000 
    216 H216       -8.2302  -20.4569  -43.8599 H         1 UNK         0.0600 
    217 H217      -10.1350  -21.4794  -45.0166 H         1 UNK         0.0600 
    218 H218       -9.1017  -22.7544  -44.3943 H         1 UNK         0.0600 
    219 H219       -9.0760  -22.3543  -46.1114 H         1 UNK         0.0600 
    220 H220       -6.0679  -19.5262  -45.6456 H         1 UNK         0.3000 
    221 H221       -5.5279  -17.8473  -46.9395 H         1 UNK         0.0600 
    222 H222       -8.4197  -16.8582  -46.8008 H         1 UNK         0.0600 
    223 H223       -7.1452  -16.4631  -45.6467 H         1 UNK         0.0600 
    224 H224       -7.0248  -15.9259  -47.3128 H         1 UNK         0.0600 
    225 H225       -6.6015  -20.4300  -48.0510 H         1 UNK         0.3000 
    226 H226       -7.5134  -19.7383  -50.7578 H         1 UNK         0.0600 
    227 H227       -8.4111  -21.7411  -49.5525 H         1 UNK         0.0600 
    228 H228       -7.5966  -22.1820  -51.0465 H         1 UNK         0.0600 
    229 H229       -6.7923  -22.4378  -49.5046 H         1 UNK         0.0600 
    230 H230       -5.4085  -18.3271  -50.6409 H         1 UNK         0.3000 
    231 H231       -2.8309  -19.4203  -50.9767 H         1 UNK         0.0600 
    232 H232       -4.0126  -16.7212  -51.8136 H         1 UNK         0.0600 
    233 H233       -2.2942  -17.0954  -51.7989 H         1 UNK         0.0600 
    234 H234       -3.2010  -17.0964  -50.2947 H         1 UNK         0.0600 
    235 H235       -2.5227  -20.9751  -52.4990 H         1 UNK         0.3000 
    236 H236       -3.7480  -21.0995  -55.0408 H         1 UNK         0.0600 
    237 H237       -2.7916  -23.0549  -53.8094 H         1 UNK         0.0600 
    238 H238       -2.1496  -22.9533  -55.4418 H         1 UNK         0.0600 
    239 H239       -1.1623  -22.4280  -54.0850 H         1 UNK         0.0600 
    240 H240       -0.8254  -19.4412  -54.0435 H         1 UNK         0.3000 
    241 H241        0.2093  -18.9775  -56.7096 H         1 UNK         0.0600 
    242 H242       -2.5771  -17.5723  -55.2204 H         1 UNK         0.3800 
    243 H243       -2.5479  -16.0968  -56.1495 H         1 UNK         0.3800 
    244 H244        1.8360  -17.4858  -55.6339 H         1 UNK         0.0800 
    245 H245        0.9414  -17.5132  -54.1414 H         1 UNK         0.0800 
    246 H246        4.2728  -19.2647  -53.3951 H         1 UNK         0.0800 
    247 H247        3.3839  -17.7693  -53.4249 H         1 UNK         0.0800 
@<TRIPOS>BOND
     1    1    2 1    
     2    1  127 1    
     3    1  128 1    
     4    1  129 1    
     5    2    3 2    
     6    2    4 am   BACKBONE|DICT|INTERRES
     7    4    5 1    
     8    4  130 1    
     9    5    6 1    
    10    5   65 1    
    11    5  131 1    
    12    6    7 1    
    13    6  132 1    
    14    6  133 1    
    15    7    8 1    
    16    8    9 1    
    17    8  134 1    
    18    8  135 1    
    19    9   10 ar   
    20    9   14 ar   
    21   10   11 ar   
    22   10  136 1    
    23   11   12 ar   
    24   11  126 1    
    25   12   13 ar   
    26   12  137 1    
    27   13   14 ar   
    28   13   15 1    
    29   14  138 1    
    30   15   16 1    
    31   15  139 1    
    32   15  140 1    
    33   16   17 1    
    34   17   18 1    
    35   17  141 1    
    36   17  142 1    
    37   18   19 1    
    38   18   67 1    
    39   18  143 1    
    40   19   20 am   BACKBONE|DICT|INTERRES
    41   19  144 1    
    42   20   21 2    
    43   20   22 1    
    44   22   23 1    
    45   22   24 1    
    46   22  145 1    
    47   23  146 1    
    48   23  147 1    
    49   23  148 1    
    50   24   25 am   BACKBONE|DICT|INTERRES
    51   24  149 1    
    52   25   26 2    
    53   25   27 1    
    54   27   28 1    
    55   27   29 1    
    56   27  150 1    
    57   28  151 1    
    58   28  152 1    
    59   28  153 1    
    60   29   30 am   BACKBONE|DICT|INTERRES
    61   29  154 1    
    62   30   31 2    
    63   30   32 1    
    64   32   33 1    
    65   32   34 1    
    66   32  155 1    
    67   33  156 1    
    68   33  157 1    
    69   33  158 1    
    70   34   35 am   BACKBONE|DICT|INTERRES
    71   34  159 1    
    72   35   36 2    
    73   35   37 1    
    74   37   38 1    
    75   37   39 1    
    76   37  160 1    
    77   38  161 1    
    78   38  162 1    
    79   38  163 1    
    80   39   40 am   BACKBONE|DICT|INTERRES
    81   39  164 1    
    82   40   41 2    
    83   40   42 1    
    84   42   43 1    
    85   42   44 1    
    86   42  165 1    
    87   43  166 1    
    88   43  167 1    
    89   43  168 1    
    90   44   45 am   BACKBONE|DICT|INTERRES
    91   44  169 1    
    92   45   46 2    
    93   45   47 1    
    94   47   48 1    
    95   47   49 1    
    96   47  170 1    
    97   48  171 1    
    98   48  172 1    
    99   48  173 1    
   100   49   50 am   BACKBONE|DICT|INTERRES
   101   49  174 1    
   102   50   51 2    
   103   50   52 1    
   104   52   53 1    
   105   52   54 1    
   106   52  175 1    
   107   53  176 1    
   108   53  177 1    
   109   53  178 1    
   110   54   55 am   BACKBONE|DICT|INTERRES
   111   54  179 1    
   112   55   56 2    
   113   55   57 1    
   114   57   58 1    
   115   57   59 1    
   116   57  180 1    
   117   58  181 1    
   118   58  182 1    
   119   58  183 1    
   120   59   60 am   BACKBONE|DICT|INTERRES
   121   59  184 1    
   122   60   61 2    
   123   60   62 1    
   124   62   63 1    
   125   62   64 1    
   126   62  185 1    
   127   63  186 1    
   128   63  187 1    
   129   63  188 1    
   130   64   65 am   BACKBONE|DICT|INTERRES
   131   64  189 1    
   132   65   66 2    
   133   67   68 2    
   134   67   69 am   BACKBONE|DICT|INTERRES
   135   69   70 1    
   136   69  190 1    
   137   70   71 1    
   138   70   72 1    
   139   70  191 1    
   140   71  192 1    
   141   71  193 1    
   142   71  194 1    
   143   72   73 2    
   144   72   74 am   BACKBONE|DICT|INTERRES
   145   74   75 1    
   146   74  195 1    
   147   75   76 1    
   148   75   77 1    
   149   75  196 1    
   150   76  197 1    
   151   76  198 1    
   152   76  199 1    
   153   77   78 2    
   154   77   79 am   BACKBONE|DICT|INTERRES
   155   79   80 1    
   156   79  200 1    
   157   80   81 1    
   158   80   82 1    
   159   80  201 1    
   160   81  202 1    
   161   81  203 1    
   162   81  204 1    
   163   82   83 2    
   164   82   84 am   BACKBONE|DICT|INTERRES
   165   84   85 1    
   166   84  205 1    
   167   85   86 1    
   168   85   87 1    
   169   85  206 1    
   170   86  207 1    
   171   86  208 1    
   172   86  209 1    
   173   87   88 2    
   174   87   89 am   BACKBONE|DICT|INTERRES
   175   89   90 1    
   176   89  210 1    
   177   90   91 1    
   178   90   92 1    
   179   90  211 1    
   180   91  212 1    
   181   91  213 1    
   182   91  214 1    
   183   92   93 2    
   184   92   94 am   BACKBONE|DICT|INTERRES
   185   94   95 1    
   186   94  215 1    
   187   95   96 1    
   188   95   97 1    
   189   95  216 1    
   190   96  217 1    
   191   96  218 1    
   192   96  219 1    
   193   97   98 2    
   194   97   99 am   BACKBONE|DICT|INTERRES
   195   99  100 1    
   196   99  220 1    
   197  100  101 1    
   198  100  102 1    
   199  100  221 1    
   200  101  222 1    
   201  101  223 1    
   202  101  224 1    
   203  102  103 2    
   204  102  104 am   BACKBONE|DICT|INTERRES
   205  104  105 1    
   206  104  225 1    
   207  105  106 1    
   208  105  107 1    
   209  105  226 1    
   210  106  227 1    
   211  106  228 1    
   212  106  229 1    
   213  107  108 2    
   214  107  109 am   BACKBONE|DICT|INTERRES
   215  109  110 1    
   216  109  230 1    
   217  110  111 1    
   218  110  112 1    
   219  110  231 1    
   220  111  232 1    
   221  111  233 1    
   222  111  234 1    
   223  112  113 2    
   224  112  114 am   BACKBONE|DICT|INTERRES
   225  114  115 1    
   226  114  235 1    
   227  115  116 1    
   228  115  117 1    
   229  115  236 1    
   230  116  237 1    
   231  116  238 1    
   232  116  239 1    
   233  117  118 2    
   234  117  119 am   BACKBONE|DICT|INTERRES
   235  119  120 1    
   236  119  240 1    
   237  120  121 1    
   238  120  124 1    
   239  120  241 1    
   240  121  122 am   BACKBONE|DICT|INTERRES
   241  121  123 2    
   242  122  242 1    
   243  122  243 1    
   244  124  125 1    
   245  124  244 1    
   246  124  245 1    
   247  125  126 1    
   248  126  246 1    
   249  126  247 1    
@<TRIPOS>SUBSTRUCTURE
     1 UNK         1 GROUP             0       ****    0 ROOT    
