@<TRIPOS>MOLECULE
3R540
247   249    1
SMALL
USER_CHARGES


@<TRIPOS>ATOM
      1 CA         -4.6781  -18.3079  -45.8531 C.3       0 UNK        -0.1800 
      2 C          -4.9792  -17.5234  -47.1224 C.2       0 UNK         0.5000 
      3 O          -6.0212  -17.7396  -47.7388 O.2       0 UNK        -0.5000 
      4 N          -4.0787  -16.6123  -47.5077 N.am      1 UNK        -0.5000 
      5 CA         -4.2441  -15.6966  -48.6419 C.3       1 UNK         0.1400 
      6 C6         -4.2095  -16.3924  -50.0398 C.3       23 UNK        -0.0398 
      7 S7         -2.5734  -16.6450  -50.8161 S.3       23 UNK        -0.2404 
      8 C8         -1.9247  -18.0305  -49.8288 C.3       23 UNK        -0.0205 
      9 C9         -0.4876  -18.3943  -50.1777 C.ar      23 UNK        -0.0193 
     10 C10         0.4623  -17.4055  -50.4487 C.ar      23 UNK        -0.1150 
     11 C11         1.7747  -17.7436  -50.7834 C.ar      23 UNK        -0.0193 
     12 C12         2.1479  -19.0909  -50.8126 C.ar      23 UNK        -0.1150 
     13 C13         1.2244  -20.0874  -50.4824 C.ar      23 UNK        -0.0193 
     14 C14        -0.0926  -19.7334  -50.1813 C.ar      23 UNK        -0.1150 
     15 C15         1.6514  -21.5426  -50.4086 C.3       23 UNK        -0.0205 
     16 S16         2.5020  -21.8724  -48.8329 S.3       23 UNK        -0.2404 
     17 C17         2.1694  -23.6524  -48.5962 C.3       23 UNK        -0.0398 
     18 CA          1.2077  -23.9615  -47.4213 C.3       11 UNK         0.1400 
     19 N           1.6952  -23.4386  -46.1422 N.am      11 UNK        -0.5000 
     20 C           1.1706  -23.7019  -44.9380 C.2       10 UNK         0.5000 
     21 O           0.1176  -24.3225  -44.7797 O.2       10 UNK        -0.5000 
     22 CA          1.9745  -23.2348  -43.7089 C.3       10 UNK         0.1400 
     23 CB          3.4556  -22.9352  -44.0159 C.3       10 UNK        -0.1800 
     24 N           1.3746  -22.0486  -43.1097 N.am      10 UNK        -0.5000 
     25 C           0.4435  -22.0508  -42.1480 C.2       9 UNK         0.5000 
     26 O          -0.0343  -23.0723  -41.6554 O.2       9 UNK        -0.5000 
     27 CA         -0.0117  -20.6788  -41.6192 C.3       9 UNK         0.1400 
     28 CB          0.8569  -20.2496  -40.4265 C.3       9 UNK        -0.1800 
     29 N           0.0519  -19.6408  -42.6464 N.am      9 UNK        -0.5000 
     30 C          -0.9340  -19.3670  -43.5106 C.2       8 UNK         0.5000 
     31 O          -2.0279  -19.9307  -43.5063 O.2       8 UNK        -0.5000 
     32 CA         -0.6437  -18.2820  -44.5654 C.3       8 UNK         0.1400 
     33 CB         -1.0759  -16.8980  -44.0548 C.3       8 UNK        -0.1800 
     34 N           0.7615  -18.2519  -44.9723 N.am      8 UNK        -0.5000 
     35 C           1.3645  -19.2235  -45.6774 C.2       7 UNK         0.5000 
     36 O           0.7959  -20.2468  -46.0581 O.2       7 UNK        -0.5000 
     37 CA          2.8653  -19.0465  -45.9777 C.3       7 UNK         0.1400 
     38 CB          3.0475  -18.2996  -47.3054 C.3       7 UNK        -0.1800 
     39 N           3.6017  -18.3360  -44.9317 N.am      7 UNK        -0.5000 
     40 C           3.6880  -18.7040  -43.6455 C.2       6 UNK         0.5000 
     41 O           3.1865  -19.7327  -43.1935 O.2       6 UNK        -0.5000 
     42 CA          4.3863  -17.7136  -42.6915 C.3       6 UNK         0.1400 
     43 CB          5.8812  -18.0445  -42.5751 C.3       6 UNK        -0.1800 
     44 N           4.2278  -16.3041  -43.0769 N.am      6 UNK        -0.5000 
     45 C           3.0497  -15.6864  -43.2393 C.2       5 UNK         0.5000 
     46 O           1.9643  -16.2544  -43.1042 O.2       5 UNK        -0.5000 
     47 CA          3.0917  -14.2182  -43.6999 C.3       5 UNK         0.1400 
     48 CB          3.4120  -14.1445  -45.2012 C.3       5 UNK        -0.1800 
     49 N           1.8067  -13.5607  -43.4643 N.am      5 UNK        -0.5000 
     50 C           1.3531  -13.1801  -42.2633 C.2       4 UNK         0.5000 
     51 O           2.0354  -13.2218  -41.2376 O.2       4 UNK        -0.5000 
     52 CA         -0.1139  -12.7004  -42.1963 C.3       4 UNK         0.1400 
     53 CB         -0.3691  -11.7147  -41.0365 C.3       4 UNK        -0.1800 
     54 N          -0.6301  -12.1633  -43.4623 N.am      4 UNK        -0.5000 
     55 C          -0.2182  -11.0704  -44.1190 C.2       3 UNK         0.5000 
     56 O           0.7273  -10.3672  -43.7591 O.2       3 UNK        -0.5000 
     57 CA         -0.9969  -10.7273  -45.4072 C.3       3 UNK         0.1400 
     58 CB         -0.6350   -9.3388  -45.9643 C.3       3 UNK        -0.1800 
     59 N          -0.7953  -11.7205  -46.4644 N.am      3 UNK        -0.5000 
     60 C          -1.3506  -12.9370  -46.5121 C.2       2 UNK         0.5000 
     61 O          -2.0694  -13.3976  -45.6210 O.2       2 UNK        -0.5000 
     62 CA         -1.0107  -13.7894  -47.7488 C.3       2 UNK         0.1400 
     63 CB          0.3310  -14.5131  -47.5522 C.3       2 UNK        -0.1800 
     64 N          -2.0451  -14.7838  -48.0290 N.am      2 UNK        -0.5000 
     65 C          -3.2735  -14.5068  -48.4967 C.2       1 UNK         0.5000 
     66 O          -3.6568  -13.3720  -48.7840 O.2       1 UNK        -0.5000 
     67 C          -0.2526  -23.5882  -47.7445 C.2       11 UNK         0.5000 
     68 O          -0.9632  -24.4209  -48.3054 O.2       11 UNK        -0.5000 
     69 N          -0.7027  -22.3871  -47.3540 N.am      12 UNK        -0.5000 
     70 CA         -2.0846  -21.9489  -47.5559 C.3       12 UNK         0.1400 
     71 CB         -2.2067  -20.4503  -47.2704 C.3       12 UNK        -0.1800 
     72 C          -3.0901  -22.7221  -46.6868 C.2       12 UNK         0.5000 
     73 O          -4.2218  -22.9251  -47.1211 O.2       12 UNK        -0.5000 
     74 N          -2.6748  -23.1530  -45.4891 N.am      13 UNK        -0.5000 
     75 CA         -3.5005  -23.9770  -44.6076 C.3       13 UNK         0.1400 
     76 CB         -2.9434  -23.9322  -43.1782 C.3       13 UNK        -0.1800 
     77 C          -3.5923  -25.4230  -45.1235 C.2       13 UNK         0.5000 
     78 O          -4.6650  -26.0242  -45.0633 O.2       13 UNK        -0.5000 
     79 N          -2.4727  -25.9396  -45.6482 N.am      14 UNK        -0.5000 
     80 CA         -2.3675  -27.2758  -46.2310 C.3       14 UNK         0.1400 
     81 CB         -0.8839  -27.6280  -46.4202 C.3       14 UNK        -0.1800 
     82 C          -3.1346  -27.4143  -47.5598 C.2       14 UNK         0.5000 
     83 O          -3.8390  -28.4057  -47.7526 O.2       14 UNK        -0.5000 
     84 N          -2.9825  -26.4244  -48.4494 N.am      15 UNK        -0.5000 
     85 CA         -3.5173  -26.4363  -49.8131 C.3       15 UNK         0.1400 
     86 CB         -2.4575  -25.8490  -50.7598 C.3       15 UNK        -0.1800 
     87 C          -4.8640  -25.6995  -49.9588 C.2       15 UNK         0.5000 
     88 O          -5.3029  -25.4934  -51.0906 O.2       15 UNK        -0.5000 
     89 N          -5.4913  -25.3075  -48.8386 N.am      16 UNK        -0.5000 
     90 CA         -6.8031  -24.6506  -48.7361 C.3       16 UNK         0.1400 
     91 CB         -7.9276  -25.6308  -49.1289 C.3       16 UNK        -0.1800 
     92 C          -6.8619  -23.3238  -49.5230 C.2       16 UNK         0.5000 
     93 O          -7.5773  -23.2117  -50.5195 O.2       16 UNK        -0.5000 
     94 N          -6.0415  -22.3668  -49.0733 N.am      17 UNK        -0.5000 
     95 CA         -5.7484  -21.0457  -49.6438 C.3       17 UNK         0.1400 
     96 CB         -7.0255  -20.2263  -49.9168 C.3       17 UNK        -0.1800 
     97 C          -4.8218  -21.0931  -50.8734 C.2       17 UNK         0.5000 
     98 O          -4.4722  -20.0354  -51.3965 O.2       17 UNK        -0.5000 
     99 N          -4.4324  -22.2994  -51.3163 N.am      18 UNK        -0.5000 
    100 CA        -3.5090  -22.5922  -52.4210 C.3       18 UNK         0.1400 
    101 CB        -2.0782  -22.1643  -52.0345 C.3       18 UNK        -0.1800 
    102 C         -3.9504  -22.0008  -53.7784 C.2       18 UNK         0.5000 
    103 O         -3.1032  -21.7012  -54.6198 O.2       18 UNK        -0.5000 
    104 N         -5.2684  -21.8088  -53.9473 N.am      19 UNK        -0.5000 
    105 CA        -5.9236  -21.0980  -55.0523 C.3       19 UNK         0.1400 
    106 CB        -5.7700  -21.8764  -56.3760 C.3       19 UNK        -0.1800 
    107 C         -5.4871  -19.6174  -55.1649 C.2       19 UNK         0.5000 
    108 O         -5.4578  -19.0703  -56.2685 O.2       19 UNK        -0.5000 
    109 N         -5.1625  -19.0031  -54.0152 N.am      20 UNK        -0.5000 
    110 CA        -4.6465  -17.6440  -53.8376 C.3       20 UNK         0.1400 
    111 CB        -5.6945  -16.5879  -54.2444 C.3       20 UNK        -0.1800 
    112 C         -3.2796  -17.4548  -54.5253 C.2       20 UNK         0.5000 
    113 O         -3.1144  -16.5417  -55.3365 O.2       20 UNK        -0.5000 
    114 N         -2.3316  -18.3435  -54.1913 N.am      21 UNK        -0.5000 
    115 CA        -1.0112  -18.4922  -54.8168 C.3       21 UNK         0.1400 
    116 CB        -0.2168  -19.5749  -54.0720 C.3       21 UNK        -0.1800 
    117 C         -0.1688  -17.2063  -54.9281 C.2       21 UNK         0.5000 
    118 O          0.5262  -17.0355  -55.9312 O.2       21 UNK        -0.5000 
    119 N         -0.2625  -16.3283  -53.9231 N.am      22 UNK        -0.5000 
    120 CA         0.3733  -14.9993  -53.9077 C.3       22 UNK         0.1400 
    121 C         -0.6664  -13.8397  -53.9472 C.2       22 UNK         0.5000 
    122 N         -1.9183  -14.0765  -54.3217 N.am      22 UNK        -0.7600 
    123 O         -0.3341  -12.6945  -53.6534 O.2       22 UNK        -0.5000 
    124 C124        1.3918  -14.8388  -52.7465 C.3       23 UNK        -0.0398 
    125 S125        2.7398  -16.0751  -52.7888 S.3       23 UNK        -0.2404 
    126 C126        2.7981  -16.6535  -51.0631 C.3       23 UNK        -0.0205 
    127 H127       -4.8058  -19.3760  -46.0288 H         1 UNK         0.0600 
    128 H128       -5.3636  -18.0114  -45.0595 H         1 UNK         0.0600 
    129 H129       -3.6604  -18.1405  -45.5034 H         1 UNK         0.0600 
    130 H130       -3.2938  -16.4128  -46.9054 H         1 UNK         0.3000 
    131 H131       -5.2429  -15.2681  -48.5307 H         1 UNK         0.0600 
    132 H132       -4.7323  -17.3490  -50.0166 H         1 UNK         0.0800 
    133 H133       -4.7812  -15.7798  -50.7383 H         1 UNK         0.0800 
    134 H134       -2.5787  -18.8912  -49.9681 H         1 UNK         0.0800 
    135 H135       -1.9589  -17.7746  -48.7716 H         1 UNK         0.0800 
    136 H136        0.1748  -16.3679  -50.3964 H         1 UNK         0.1150 
    137 H137        3.1674  -19.3630  -51.0463 H         1 UNK         0.1150 
    138 H138       -0.8065  -20.5038  -49.9304 H         1 UNK         0.1150 
    139 H139        0.7782  -22.1894  -50.5063 H         1 UNK         0.0800 
    140 H140        2.3138  -21.7845  -51.2407 H         1 UNK         0.0800 
    141 H141        1.8011  -24.0955  -49.5231 H         1 UNK         0.0800 
    142 H142        3.1277  -24.1385  -48.4096 H         1 UNK         0.0800 
    143 H143        1.2080  -25.0475  -47.3073 H         1 UNK         0.0600 
    144 H144        2.5348  -22.8813  -46.1910 H         1 UNK         0.3000 
    145 H145        1.9533  -24.0557  -42.9895 H         1 UNK         0.0600 
    146 H146        4.0006  -22.7053  -43.1001 H         1 UNK         0.0600 
    147 H147        3.5748  -22.0834  -44.6854 H         1 UNK         0.0600 
    148 H148        3.9466  -23.7949  -44.4734 H         1 UNK         0.0600 
    149 H149        1.7550  -21.1574  -43.4060 H         1 UNK         0.3000 
    150 H150       -1.0408  -20.7809  -41.2682 H         1 UNK         0.0600 
    151 H151        0.8169  -20.9911  -39.6276 H         1 UNK         0.0600 
    152 H152        0.5128  -19.3034  -40.0090 H         1 UNK         0.0600 
    153 H153        1.9030  -20.1299  -40.7112 H         1 UNK         0.0600 
    154 H154        0.9288  -19.1467  -42.7405 H         1 UNK         0.3000 
    155 H155       -1.2331  -18.4947  -45.4551 H         1 UNK         0.0600 
    156 H156       -2.1506  -16.8711  -43.8722 H         1 UNK         0.0600 
    157 H157       -0.8509  -16.1146  -44.7778 H         1 UNK         0.0600 
    158 H158       -0.5857  -16.6405  -43.1161 H         1 UNK         0.0600 
    159 H159        1.3138  -17.4797  -44.6166 H         1 UNK         0.3000 
    160 H160        3.3012  -20.0418  -46.0791 H         1 UNK         0.0600 
    161 H161        2.6759  -17.2755  -47.2509 H         1 UNK         0.0600 
    162 H162        2.5000  -18.8021  -48.1015 H         1 UNK         0.0600 
    163 H163        4.0952  -18.2661  -47.6039 H         1 UNK         0.0600 
    164 H164        4.0424  -17.4701  -45.2030 H         1 UNK         0.3000 
    165 H165        3.9306  -17.8381  -41.7072 H         1 UNK         0.0600 
    166 H166        6.3680  -17.4165  -41.8289 H         1 UNK         0.0600 
    167 H167        6.0287  -19.0816  -42.2707 H         1 UNK         0.0600 
    168 H168        6.4000  -17.9039  -43.5240 H         1 UNK         0.0600 
    169 H169        5.0790  -15.7799  -43.2186 H         1 UNK         0.3000 
    170 H170        3.8682  -13.6920  -43.1414 H         1 UNK         0.0600 
    171 H171        2.7130  -14.7373  -45.7910 H         1 UNK         0.0600 
    172 H172        3.3743  -13.1175  -45.5650 H         1 UNK         0.0600 
    173 H173        4.4138  -14.5229  -45.4077 H         1 UNK         0.0600 
    174 H174        1.1691  -13.5187  -44.2436 H         1 UNK         0.3000 
    175 H175       -0.7029  -13.5963  -41.9948 H         1 UNK         0.0600 
    176 H176        0.2426  -10.8166  -41.1258 H         1 UNK         0.0600 
    177 H177       -1.4143  -11.4074  -41.0026 H         1 UNK         0.0600 
    178 H178       -0.1371  -12.1725  -40.0743 H         1 UNK         0.0600 
    179 H179       -1.3693  -12.7045  -43.9024 H         1 UNK         0.3000 
    180 H180       -2.0572  -10.7087  -45.1469 H         1 UNK         0.0600 
    181 H181       -0.7926   -8.5630  -45.2139 H         1 UNK         0.0600 
    182 H182       -1.2550   -9.0858  -46.8244 H         1 UNK         0.0600 
    183 H183        0.4086   -9.2874  -46.2764 H         1 UNK         0.0600 
    184 H184       -0.1865  -11.4374  -47.2184 H         1 UNK         0.3000 
    185 H185       -0.9284  -13.1298  -48.6153 H         1 UNK         0.0600 
    186 H186        0.3087  -15.1865  -46.6961 H         1 UNK         0.0600 
    187 H187        0.5983  -15.0985  -48.4299 H         1 UNK         0.0600 
    188 H188        1.1376  -13.7986  -47.3889 H         1 UNK         0.0600 
    189 H189       -1.7907  -15.7420  -47.8558 H         1 UNK         0.3000 
    190 H190       -0.0706  -21.7366  -46.8911 H         1 UNK         0.3000 
    191 H191       -2.3390  -22.1182  -48.6044 H         1 UNK         0.0600 
    192 H192       -1.3540  -19.8907  -47.6500 H         1 UNK         0.0600 
    193 H193       -2.2767  -20.2679  -46.2000 H         1 UNK         0.0600 
    194 H194       -3.1048  -20.0413  -47.7312 H         1 UNK         0.0600 
    195 H195       -1.7149  -22.9976  -45.2102 H         1 UNK         0.3000 
    196 H196       -4.5100  -23.5605  -44.5855 H         1 UNK         0.0600 
    197 H197       -2.8604  -22.9064  -42.8179 H         1 UNK         0.0600 
    198 H198       -1.9565  -24.3904  -43.1137 H         1 UNK         0.0600 
    199 H199       -3.5969  -24.4689  -42.4898 H         1 UNK         0.0600 
    200 H200       -1.6296  -25.3782  -45.6274 H         1 UNK         0.3000 
    201 H201       -2.7957  -27.9878  -45.5223 H         1 UNK         0.0600 
    202 H202       -0.3435  -27.5818  -45.4744 H         1 UNK         0.0600 
    203 H203       -0.3938  -26.9493  -47.1185 H         1 UNK         0.0600 
    204 H204       -0.7702  -28.6397  -46.8116 H         1 UNK         0.0600 
    205 H205       -2.3518  -25.6562  -48.2294 H         1 UNK         0.3000 
    206 H206       -3.6928  -27.4678  -50.1247 H         1 UNK         0.0600 
    207 H207       -1.5016  -26.3612  -50.6496 H         1 UNK         0.0600 
    208 H208       -2.2930  -24.7907  -50.5636 H         1 UNK         0.0600 
    209 H209       -2.7584  -25.9500  -51.8030 H         1 UNK         0.0600 
    210 H210       -5.0203  -25.4815  -47.9616 H         1 UNK         0.3000 
    211 H211       -6.9422  -24.3978  -47.6837 H         1 UNK         0.0600 
    212 H212       -7.8576  -25.9358  -50.1735 H         1 UNK         0.0600 
    213 H213       -8.9081  -25.1747  -48.9872 H         1 UNK         0.0600 
    214 H214       -7.8963  -26.5310  -48.5151 H         1 UNK         0.0600 
    215 H215       -5.4558  -22.6074  -48.2712 H         1 UNK         0.3000 
    216 H216       -5.1890  -20.5158  -48.8724 H         1 UNK         0.0600 
    217 H217       -6.7760  -19.1927  -50.1605 H         1 UNK         0.0600 
    218 H218       -7.6733  -20.2016  -49.0407 H         1 UNK         0.0600 
    219 H219       -7.5995  -20.6236  -50.7537 H         1 UNK         0.0600 
    220 H220       -4.8288  -23.1095  -50.8597 H         1 UNK         0.3000 
    221 H221       -3.5148  -23.6749  -52.5482 H         1 UNK         0.0600 
    222 H222       -1.9819  -21.0789  -52.0048 H         1 UNK         0.0600 
    223 H223       -1.7946  -22.5504  -51.0561 H         1 UNK         0.0600 
    224 H224       -1.3484  -22.5393  -52.7526 H         1 UNK         0.0600 
    225 H225       -5.8768  -22.0991  -53.1943 H         1 UNK         0.3000 
    226 H226       -6.9865  -21.0766  -54.8084 H         1 UNK         0.0600 
    227 H227       -6.0864  -22.9132  -56.2628 H         1 UNK         0.0600 
    228 H228       -6.3841  -21.4357  -57.1621 H         1 UNK         0.0600 
    229 H229       -4.7389  -21.8766  -56.7303 H         1 UNK         0.0600 
    230 H230       -5.1601  -19.5578  -53.1646 H         1 UNK         0.3000 
    231 H231       -4.4763  -17.5312  -52.7684 H         1 UNK         0.0600 
    232 H232       -5.3463  -15.5837  -53.9997 H         1 UNK         0.0600 
    233 H233       -6.6348  -16.7430  -53.7156 H         1 UNK         0.0600 
    234 H234       -5.9030  -16.6084  -55.3142 H         1 UNK         0.0600 
    235 H235       -2.5776  -19.0548  -53.5181 H         1 UNK         0.3000 
    236 H236       -1.1873  -18.8460  -55.8344 H         1 UNK         0.0600 
    237 H237       -0.0976  -19.3252  -53.0185 H         1 UNK         0.0600 
    238 H238       -0.7091  -20.5437  -54.1384 H         1 UNK         0.0600 
    239 H239        0.7819  -19.6934  -54.4941 H         1 UNK         0.0600 
    240 H240       -0.8660  -16.5442  -53.1423 H         1 UNK         0.3000 
    241 H241        0.9416  -14.8630  -54.8290 H         1 UNK         0.0600 
    242 H242       -2.5732  -13.3116  -54.3503 H         1 UNK         0.3800 
    243 H243       -2.2099  -14.9947  -54.6437 H         1 UNK         0.3800 
    244 H244        0.8774  -14.8612  -51.7879 H         1 UNK         0.0800 
    245 H245        1.8685  -13.8586  -52.7982 H         1 UNK         0.0800 
    246 H246        2.6528  -15.8140  -50.3815 H         1 UNK         0.0800 
    247 H247        3.8009  -17.0318  -50.8597 H         1 UNK         0.0800 
@<TRIPOS>BOND
     1    1    2 1    
     2    1  127 1    
     3    1  128 1    
     4    1  129 1    
     5    2    3 2    
     6    2    4 am   BACKBONE|DICT|INTERRES
     7    4    5 1    
     8    4  130 1    
     9    5    6 1    
    10    5   65 1    
    11    5  131 1    
    12    6    7 1    
    13    6  132 1    
    14    6  133 1    
    15    7    8 1    
    16    8    9 1    
    17    8  134 1    
    18    8  135 1    
    19    9   10 ar   
    20    9   14 ar   
    21   10   11 ar   
    22   10  136 1    
    23   11   12 ar   
    24   11  126 1    
    25   12   13 ar   
    26   12  137 1    
    27   13   14 ar   
    28   13   15 1    
    29   14  138 1    
    30   15   16 1    
    31   15  139 1    
    32   15  140 1    
    33   16   17 1    
    34   17   18 1    
    35   17  141 1    
    36   17  142 1    
    37   18   19 1    
    38   18   67 1    
    39   18  143 1    
    40   19   20 am   BACKBONE|DICT|INTERRES
    41   19  144 1    
    42   20   21 2    
    43   20   22 1    
    44   22   23 1    
    45   22   24 1    
    46   22  145 1    
    47   23  146 1    
    48   23  147 1    
    49   23  148 1    
    50   24   25 am   BACKBONE|DICT|INTERRES
    51   24  149 1    
    52   25   26 2    
    53   25   27 1    
    54   27   28 1    
    55   27   29 1    
    56   27  150 1    
    57   28  151 1    
    58   28  152 1    
    59   28  153 1    
    60   29   30 am   BACKBONE|DICT|INTERRES
    61   29  154 1    
    62   30   31 2    
    63   30   32 1    
    64   32   33 1    
    65   32   34 1    
    66   32  155 1    
    67   33  156 1    
    68   33  157 1    
    69   33  158 1    
    70   34   35 am   BACKBONE|DICT|INTERRES
    71   34  159 1    
    72   35   36 2    
    73   35   37 1    
    74   37   38 1    
    75   37   39 1    
    76   37  160 1    
    77   38  161 1    
    78   38  162 1    
    79   38  163 1    
    80   39   40 am   BACKBONE|DICT|INTERRES
    81   39  164 1    
    82   40   41 2    
    83   40   42 1    
    84   42   43 1    
    85   42   44 1    
    86   42  165 1    
    87   43  166 1    
    88   43  167 1    
    89   43  168 1    
    90   44   45 am   BACKBONE|DICT|INTERRES
    91   44  169 1    
    92   45   46 2    
    93   45   47 1    
    94   47   48 1    
    95   47   49 1    
    96   47  170 1    
    97   48  171 1    
    98   48  172 1    
    99   48  173 1    
   100   49   50 am   BACKBONE|DICT|INTERRES
   101   49  174 1    
   102   50   51 2    
   103   50   52 1    
   104   52   53 1    
   105   52   54 1    
   106   52  175 1    
   107   53  176 1    
   108   53  177 1    
   109   53  178 1    
   110   54   55 am   BACKBONE|DICT|INTERRES
   111   54  179 1    
   112   55   56 2    
   113   55   57 1    
   114   57   58 1    
   115   57   59 1    
   116   57  180 1    
   117   58  181 1    
   118   58  182 1    
   119   58  183 1    
   120   59   60 am   BACKBONE|DICT|INTERRES
   121   59  184 1    
   122   60   61 2    
   123   60   62 1    
   124   62   63 1    
   125   62   64 1    
   126   62  185 1    
   127   63  186 1    
   128   63  187 1    
   129   63  188 1    
   130   64   65 am   BACKBONE|DICT|INTERRES
   131   64  189 1    
   132   65   66 2    
   133   67   68 2    
   134   67   69 am   BACKBONE|DICT|INTERRES
   135   69   70 1    
   136   69  190 1    
   137   70   71 1    
   138   70   72 1    
   139   70  191 1    
   140   71  192 1    
   141   71  193 1    
   142   71  194 1    
   143   72   73 2    
   144   72   74 am   BACKBONE|DICT|INTERRES
   145   74   75 1    
   146   74  195 1    
   147   75   76 1    
   148   75   77 1    
   149   75  196 1    
   150   76  197 1    
   151   76  198 1    
   152   76  199 1    
   153   77   78 2    
   154   77   79 am   BACKBONE|DICT|INTERRES
   155   79   80 1    
   156   79  200 1    
   157   80   81 1    
   158   80   82 1    
   159   80  201 1    
   160   81  202 1    
   161   81  203 1    
   162   81  204 1    
   163   82   83 2    
   164   82   84 am   BACKBONE|DICT|INTERRES
   165   84   85 1    
   166   84  205 1    
   167   85   86 1    
   168   85   87 1    
   169   85  206 1    
   170   86  207 1    
   171   86  208 1    
   172   86  209 1    
   173   87   88 2    
   174   87   89 am   BACKBONE|DICT|INTERRES
   175   89   90 1    
   176   89  210 1    
   177   90   91 1    
   178   90   92 1    
   179   90  211 1    
   180   91  212 1    
   181   91  213 1    
   182   91  214 1    
   183   92   93 2    
   184   92   94 am   BACKBONE|DICT|INTERRES
   185   94   95 1    
   186   94  215 1    
   187   95   96 1    
   188   95   97 1    
   189   95  216 1    
   190   96  217 1    
   191   96  218 1    
   192   96  219 1    
   193   97   98 2    
   194   97   99 am   BACKBONE|DICT|INTERRES
   195   99  100 1    
   196   99  220 1    
   197  100  101 1    
   198  100  102 1    
   199  100  221 1    
   200  101  222 1    
   201  101  223 1    
   202  101  224 1    
   203  102  103 2    
   204  102  104 am   BACKBONE|DICT|INTERRES
   205  104  105 1    
   206  104  225 1    
   207  105  106 1    
   208  105  107 1    
   209  105  226 1    
   210  106  227 1    
   211  106  228 1    
   212  106  229 1    
   213  107  108 2    
   214  107  109 am   BACKBONE|DICT|INTERRES
   215  109  110 1    
   216  109  230 1    
   217  110  111 1    
   218  110  112 1    
   219  110  231 1    
   220  111  232 1    
   221  111  233 1    
   222  111  234 1    
   223  112  113 2    
   224  112  114 am   BACKBONE|DICT|INTERRES
   225  114  115 1    
   226  114  235 1    
   227  115  116 1    
   228  115  117 1    
   229  115  236 1    
   230  116  237 1    
   231  116  238 1    
   232  116  239 1    
   233  117  118 2    
   234  117  119 am   BACKBONE|DICT|INTERRES
   235  119  120 1    
   236  119  240 1    
   237  120  121 1    
   238  120  124 1    
   239  120  241 1    
   240  121  122 am   BACKBONE|DICT|INTERRES
   241  121  123 2    
   242  122  242 1    
   243  122  243 1    
   244  124  125 1    
   245  124  244 1    
   246  124  245 1    
   247  125  126 1    
   248  126  246 1    
   249  126  247 1    
@<TRIPOS>SUBSTRUCTURE
     1 UNK         1 GROUP             0       ****    0 ROOT    
