@<TRIPOS>MOLECULE
3R540
247   249    1
SMALL
USER_CHARGES


@<TRIPOS>ATOM
      1 CA         -2.3320  -15.9847  -49.6268 C.3       0 UNK        -0.1800 
      2 C          -1.9543  -14.5780  -49.1822 C.2       0 UNK         0.5000 
      3 O          -2.8284  -13.8040  -48.7906 O.2       0 UNK        -0.5000 
      4 N          -0.6588  -14.2461  -49.2412 N.am      1 UNK        -0.5000 
      5 CA         -0.0892  -12.9853  -48.7511 C.3       1 UNK         0.1400 
      6 C6          1.3614  -12.7766  -49.2555 C.3       23 UNK        -0.0398 
      7 S7          1.4333  -12.4645  -51.0508 S.3       23 UNK        -0.2404 
      8 C8          2.4568  -13.8493  -51.6415 C.3       23 UNK        -0.0205 
      9 C9          1.7015  -15.1685  -51.6160 C.ar      23 UNK        -0.0193 
     10 C10         0.6600  -15.3907  -52.5193 C.ar      23 UNK        -0.1150 
     11 C11        -0.0400  -16.5981  -52.5112 C.ar      23 UNK        -0.0193 
     12 C12         0.3228  -17.5937  -51.6004 C.ar      23 UNK        -0.1150 
     13 C13         1.3691  -17.3931  -50.6881 C.ar      23 UNK        -0.0193 
     14 C14         2.0459  -16.1689  -50.7024 C.ar      23 UNK        -0.1150 
     15 C15         1.8057  -18.4472  -49.6648 C.3       23 UNK        -0.0205 
     16 S16         1.1762  -20.1419  -49.9359 S.3       23 UNK        -0.2404 
     17 C17        -0.5480  -19.9870  -49.3595 C.3       23 UNK        -0.0398 
     18 CA         -0.9355  -21.0660  -48.3257 C.3       11 UNK         0.1400 
     19 N          -0.0644  -21.0732  -47.1488 N.am      11 UNK        -0.5000 
     20 C          -0.0883  -21.9979  -46.1799 C.2       10 UNK         0.5000 
     21 O          -0.8538  -22.9627  -46.1795 O.2       10 UNK        -0.5000 
     22 CA          0.8553  -21.7824  -44.9785 C.3       10 UNK         0.1400 
     23 CB          2.0370  -20.8344  -45.2762 C.3       10 UNK        -0.1800 
     24 N           0.1294  -21.3176  -43.7929 N.am      10 UNK        -0.5000 
     25 C          -0.7085  -20.2748  -43.7131 C.2       9 UNK         0.5000 
     26 O          -0.9916  -19.5447  -44.6628 O.2       9 UNK        -0.5000 
     27 CA         -1.3236  -19.9769  -42.3384 C.3       9 UNK         0.1400 
     28 CB         -2.4087  -21.0017  -41.9530 C.3       9 UNK        -0.1800 
     29 N          -0.3113  -19.8042  -41.2943 N.am      9 UNK        -0.5000 
     30 C           0.4493  -20.7223  -40.6861 C.2       8 UNK         0.5000 
     31 O           0.3984  -21.9314  -40.9214 O.2       8 UNK        -0.5000 
     32 CA          1.4587  -20.1546  -39.6715 C.3       8 UNK         0.1400 
     33 CB          2.1194  -21.2372  -38.7919 C.3       8 UNK        -0.1800 
     34 N           2.4621  -19.3106  -40.3282 N.am      8 UNK        -0.5000 
     35 C           3.3985  -19.6851  -41.2135 C.2       7 UNK         0.5000 
     36 O           3.5504  -20.8430  -41.6036 O.2       7 UNK        -0.5000 
     37 CA          4.3363  -18.5894  -41.7644 C.3       7 UNK         0.1400 
     38 CB          4.2308  -18.4919  -43.2949 C.3       7 UNK        -0.1800 
     39 N           4.1081  -17.2581  -41.1982 N.am      7 UNK        -0.5000 
     40 C           4.5248  -16.8403  -39.9953 C.2       6 UNK         0.5000 
     41 O           5.1111  -17.5601  -39.1868 O.2       6 UNK        -0.5000 
     42 CA          4.2259  -15.3755  -39.6337 C.3       6 UNK         0.1400 
     43 CB          5.3093  -14.4491  -40.2080 C.3       6 UNK        -0.1800 
     44 N           2.9199  -14.9543  -40.1414 N.am      6 UNK        -0.5000 
     45 C           1.7779  -15.0004  -39.4422 C.2       5 UNK         0.5000 
     46 O           1.7076  -15.3772  -38.2720 O.2       5 UNK        -0.5000 
     47 CA          0.4917  -14.5618  -40.1722 C.3       5 UNK         0.1400 
     48 CB          0.2411  -13.0612  -39.9631 C.3       5 UNK        -0.1800 
     49 N           0.5153  -14.8494  -41.6077 N.am      5 UNK        -0.5000 
     50 C           0.5024  -16.0862  -42.1268 C.2       4 UNK         0.5000 
     51 O           0.4122  -17.1041  -41.4406 O.2       4 UNK        -0.5000 
     52 CA          0.6518  -16.2212  -43.6571 C.3       4 UNK         0.1400 
     53 CB         -0.7349  -16.2856  -44.3144 C.3       4 UNK        -0.1800 
     54 N           1.4218  -15.1451  -44.2884 N.am      4 UNK        -0.5000 
     55 C           2.6493  -14.7315  -43.9333 C.2       3 UNK         0.5000 
     56 O           3.3298  -15.2899  -43.0739 O.2       3 UNK        -0.5000 
     57 CA          3.1861  -13.4389  -44.5834 C.3       3 UNK         0.1400 
     58 CB          4.1592  -13.7830  -45.7206 C.3       3 UNK        -0.1800 
     59 N           2.1437  -12.5509  -45.1044 N.am      3 UNK        -0.5000 
     60 C           1.0998  -12.0576  -44.4205 C.2       2 UNK         0.5000 
     61 O           0.9530  -12.1975  -43.2054 O.2       2 UNK        -0.5000 
     62 CA         -0.0019  -11.3536  -45.2419 C.3       2 UNK         0.1400 
     63 CB          0.1041   -9.8297  -45.0809 C.3       2 UNK        -0.1800 
     64 N          -0.0148  -11.6815  -46.6759 N.am      2 UNK        -0.5000 
     65 C          -0.1300  -12.9085  -47.2086 C.2       1 UNK         0.5000 
     66 O          -0.1965  -13.9394  -46.5338 O.2       1 UNK        -0.5000 
     67 C          -2.4285  -20.9262  -47.9681 C.2       11 UNK         0.5000 
     68 O          -3.2610  -21.4758  -48.6848 O.2       11 UNK        -0.5000 
     69 N          -2.7605  -20.2388  -46.8645 N.am      12 UNK        -0.5000 
     70 CA         -4.1431  -20.0824  -46.4034 C.3       12 UNK         0.1400 
     71 CB         -4.2057  -19.0520  -45.2668 C.3       12 UNK        -0.1800 
     72 C          -4.7784  -21.4207  -45.9783 C.2       12 UNK         0.5000 
     73 O          -5.9631  -21.6395  -46.2355 O.2       12 UNK        -0.5000 
     74 N          -3.9626  -22.3125  -45.3961 N.am      13 UNK        -0.5000 
     75 CA         -4.3446  -23.6849  -45.0606 C.3       13 UNK         0.1400 
     76 CB         -3.3532  -24.2578  -44.0369 C.3       13 UNK        -0.1800 
     77 C          -4.4378  -24.5920  -46.3030 C.2       13 UNK         0.5000 
     78 O          -5.1992  -25.5599  -46.2884 O.2       13 UNK        -0.5000 
     79 N          -3.7104  -24.2463  -47.3750 N.am      14 UNK        -0.5000 
     80 CA         -3.7382  -24.9028  -48.6838 C.3       14 UNK         0.1400 
     81 CB         -2.4002  -24.6474  -49.4040 C.3       14 UNK        -0.1800 
     82 C          -4.9633  -24.4551  -49.5119 C.2       14 UNK         0.5000 
     83 O          -4.8168  -23.9815  -50.6422 O.2       14 UNK        -0.5000 
     84 N          -6.1548  -24.6194  -48.9196 N.am      15 UNK        -0.5000 
     85 CA         -7.4814  -24.3400  -49.4748 C.3       15 UNK         0.1400 
     86 CB         -7.8132  -25.3635  -50.5816 C.3       15 UNK        -0.1800 
     87 C          -7.6445  -22.8784  -49.9390 C.2       15 UNK         0.5000 
     88 O          -8.0885  -22.6386  -51.0617 O.2       15 UNK        -0.5000 
     89 N          -7.2428  -21.9245  -49.0832 N.am      16 UNK        -0.5000 
     90 CA         -7.2277  -20.4780  -49.3486 C.3       16 UNK         0.1400 
     91 CB         -8.6639  -19.9203  -49.4323 C.3       16 UNK        -0.1800 
     92 C          -6.3614  -20.1148  -50.5759 C.2       16 UNK         0.5000 
     93 O          -6.7565  -19.2954  -51.4064 O.2       16 UNK        -0.5000 
     94 N          -5.1999  -20.7745  -50.6621 N.am      17 UNK        -0.5000 
     95 CA         -4.1759  -20.7059  -51.7028 C.3       17 UNK         0.1400 
     96 CB         -3.6120  -19.2800  -51.8412 C.3       17 UNK        -0.1800 
     97 C          -4.5761  -21.3318  -53.0542 C.2       17 UNK         0.5000 
     98 O          -3.8156  -21.2087  -54.0168 O.2       17 UNK        -0.5000 
     99 N          -5.7109  -22.0448  -53.1118 N.am      18 UNK        -0.5000 
    100 CA        -6.1408  -22.7873  -54.2978 C.3       18 UNK         0.1400 
    101 CB        -7.6181  -23.1839  -54.1729 C.3       18 UNK        -0.1800 
    102 C         -5.2655  -24.0264  -54.5527 C.2       18 UNK         0.5000 
    103 O         -4.9212  -24.2917  -55.7043 O.2       18 UNK        -0.5000 
    104 N         -4.8715  -24.7335  -53.4819 N.am      19 UNK        -0.5000 
    105 CA        -3.9554  -25.8767  -53.5585 C.3       19 UNK         0.1400 
    106 CB        -4.2042  -26.8314  -52.3816 C.3       19 UNK        -0.1800 
    107 C         -2.4802  -25.4346  -53.6346 C.2       19 UNK         0.5000 
    108 O         -1.6382  -26.2172  -54.0749 O.2       19 UNK        -0.5000 
    109 N         -2.2001  -24.1748  -53.2645 N.am      20 UNK        -0.5000 
    110 CA        -0.9277  -23.4905  -53.5230 C.3       20 UNK         0.1400 
    111 CB        -0.7721  -22.3109  -52.5484 C.3       20 UNK        -0.1800 
    112 C         -0.7967  -23.0131  -54.9886 C.2       20 UNK         0.5000 
    113 O          0.2854  -22.5781  -55.3830 O.2       20 UNK        -0.5000 
    114 N         -1.8891  -23.1172  -55.7624 N.am      21 UNK        -0.5000 
    115 CA        -2.0301  -22.7944  -57.1836 C.3       21 UNK         0.1400 
    116 CB        -1.0947  -23.6660  -58.0487 C.3       21 UNK        -0.1800 
    117 C         -1.9242  -21.2882  -57.4960 C.2       21 UNK         0.5000 
    118 O         -1.4892  -20.9207  -58.5897 O.2       21 UNK        -0.5000 
    119 N         -2.3502  -20.4389  -56.5526 N.am      22 UNK        -0.5000 
    120 CA        -2.5184  -18.9948  -56.7711 C.3       22 UNK         0.1400 
    121 C         -3.7738  -18.6852  -57.6344 C.2       22 UNK         0.5000 
    122 N         -3.7321  -17.6344  -58.4424 N.am      22 UNK        -0.7600 
    123 O         -4.7971  -19.3619  -57.5539 O.2       22 UNK        -0.5000 
    124 C124       -2.5735  -18.2154  -55.4367 C.3       23 UNK        -0.0398 
    125 S125       -0.9777  -18.2410  -54.5552 S.3       23 UNK        -0.2404 
    126 C126       -1.2140  -16.8092  -53.4561 C.3       23 UNK        -0.0205 
    127 H127       -2.7763  -15.9598  -50.6215 H         1 UNK         0.0600 
    128 H128       -1.4637  -16.6417  -49.6516 H         1 UNK         0.0600 
    129 H129       -3.0574  -16.4177  -48.9379 H         1 UNK         0.0600 
    130 H130        0.0079  -14.9191  -49.5906 H         1 UNK         0.3000 
    131 H131       -0.7084  -12.1697  -49.1311 H         1 UNK         0.0600 
    132 H132        1.9882  -13.6303  -48.9923 H         1 UNK         0.0800 
    133 H133        1.8220  -11.9100  -48.7781 H         1 UNK         0.0800 
    134 H134        3.3729  -13.9070  -51.0515 H         1 UNK         0.0800 
    135 H135        2.7690  -13.6412  -52.6659 H         1 UNK         0.0800 
    136 H136        0.3877  -14.6125  -53.2187 H         1 UNK         0.1150 
    137 H137       -0.2256  -18.5214  -51.6217 H         1 UNK         0.1150 
    138 H138        2.8537  -15.9986  -50.0041 H         1 UNK         0.1150 
    139 H139        2.8952  -18.5039  -49.6727 H         1 UNK         0.0800 
    140 H140        1.5271  -18.1123  -48.6647 H         1 UNK         0.0800 
    141 H141       -0.7132  -18.9886  -48.9507 H         1 UNK         0.0800 
    142 H142       -1.1913  -20.0692  -50.2369 H         1 UNK         0.0800 
    143 H143       -0.8160  -22.0384  -48.8067 H         1 UNK         0.0600 
    144 H144        0.5749  -20.2979  -47.0579 H         1 UNK         0.3000 
    145 H145        1.2681  -22.7617  -44.7322 H         1 UNK         0.0600 
    146 H146        2.7424  -20.8404  -44.4462 H         1 UNK         0.0600 
    147 H147        2.5861  -21.1509  -46.1640 H         1 UNK         0.0600 
    148 H148        1.7171  -19.8028  -45.4277 H         1 UNK         0.0600 
    149 H149        0.2934  -21.8381  -42.9366 H         1 UNK         0.3000 
    150 H150       -1.8172  -19.0076  -42.4212 H         1 UNK         0.0600 
    151 H151       -3.2049  -21.0266  -42.6971 H         1 UNK         0.0600 
    152 H152       -2.8669  -20.7474  -40.9974 H         1 UNK         0.0600 
    153 H153       -2.0129  -22.0140  -41.8748 H         1 UNK         0.0600 
    154 H154       -0.0910  -18.8275  -41.1044 H         1 UNK         0.3000 
    155 H155        0.8962  -19.4987  -39.0051 H         1 UNK         0.0600 
    156 H156        1.3662  -21.7888  -38.2283 H         1 UNK         0.0600 
    157 H157        2.8049  -20.7929  -38.0703 H         1 UNK         0.0600 
    158 H158        2.6784  -21.9643  -39.3811 H         1 UNK         0.0600 
    159 H159        2.4012  -18.3232  -40.1233 H         1 UNK         0.3000 
    160 H160        5.3565  -18.8914  -41.5193 H         1 UNK         0.0600 
    161 H161        3.2118  -18.2764  -43.6146 H         1 UNK         0.0600 
    162 H162        4.5363  -19.4256  -43.7675 H         1 UNK         0.0600 
    163 H163        4.8782  -17.7076  -43.6880 H         1 UNK         0.0600 
    164 H164        3.6869  -16.5762  -41.8246 H         1 UNK         0.3000 
    165 H165        4.2496  -15.2853  -38.5455 H         1 UNK         0.0600 
    166 H166        6.2966  -14.7265  -39.8367 H         1 UNK         0.0600 
    167 H167        5.3441  -14.4919  -41.2974 H         1 UNK         0.0600 
    168 H168        5.1331  -13.4127  -39.9197 H         1 UNK         0.0600 
    169 H169        2.8824  -14.6892  -41.1178 H         1 UNK         0.3000 
    170 H170       -0.3429  -15.1110  -39.7311 H         1 UNK         0.0600 
    171 H171        0.1744  -12.8199  -38.9015 H         1 UNK         0.0600 
    172 H172        1.0437  -12.4569  -40.3880 H         1 UNK         0.0600 
    173 H173       -0.6944  -12.7486  -40.4274 H         1 UNK         0.0600 
    174 H174        0.6032  -14.0527  -42.2294 H         1 UNK         0.3000 
    175 H175        1.1668  -17.1624  -43.8536 H         1 UNK         0.0600 
    176 H176       -1.2530  -15.3278  -44.2521 H         1 UNK         0.0600 
    177 H177       -0.6589  -16.5576  -45.3674 H         1 UNK         0.0600 
    178 H178       -1.3701  -17.0295  -43.8336 H         1 UNK         0.0600 
    179 H179        0.9370  -14.6339  -45.0199 H         1 UNK         0.3000 
    180 H180        3.7315  -12.8906  -43.8128 H         1 UNK         0.0600 
    181 H181        3.6570  -14.3080  -46.5343 H         1 UNK         0.0600 
    182 H182        4.6198  -12.8849  -46.1325 H         1 UNK         0.0600 
    183 H183        4.9658  -14.4253  -45.3639 H         1 UNK         0.0600 
    184 H184        2.1693  -12.3742  -46.0965 H         1 UNK         0.3000 
    185 H185       -0.9594  -11.6755  -44.8276 H         1 UNK         0.0600 
    186 H186       -0.7297   -9.3217  -45.5658 H         1 UNK         0.0600 
    187 H187        0.0866   -9.5446  -44.0280 H         1 UNK         0.0600 
    188 H188        1.0297   -9.4438  -45.5100 H         1 UNK         0.0600 
    189 H189        0.0440  -10.8899  -47.3007 H         1 UNK         0.3000 
    190 H190       -2.0304  -19.8537  -46.2704 H         1 UNK         0.3000 
    191 H191       -4.7253  -19.6900  -47.2390 H         1 UNK         0.0600 
    192 H192       -5.2384  -18.8603  -44.9732 H         1 UNK         0.0600 
    193 H193       -3.7713  -18.0999  -45.5723 H         1 UNK         0.0600 
    194 H194       -3.6733  -19.3923  -44.3802 H         1 UNK         0.0600 
    195 H195       -2.9872  -22.0755  -45.2820 H         1 UNK         0.3000 
    196 H196       -5.3328  -23.6640  -44.5959 H         1 UNK         0.0600 
    197 H197       -3.6236  -25.2781  -43.7621 H         1 UNK         0.0600 
    198 H198       -3.3492  -23.6684  -43.1208 H         1 UNK         0.0600 
    199 H199       -2.3354  -24.2836  -44.4260 H         1 UNK         0.0600 
    200 H200       -3.1442  -23.4116  -47.3150 H         1 UNK         0.3000 
    201 H201       -3.8267  -25.9801  -48.5299 H         1 UNK         0.0600 
    202 H202       -1.5515  -24.8622  -48.7544 H         1 UNK         0.0600 
    203 H203       -2.3105  -23.6171  -49.7426 H         1 UNK         0.0600 
    204 H204       -2.2985  -25.2805  -50.2844 H         1 UNK         0.0600 
    205 H205       -6.1427  -25.0049  -47.9808 H         1 UNK         0.3000 
    206 H206       -8.1967  -24.4847  -48.6640 H         1 UNK         0.0600 
    207 H207       -7.7458  -26.3843  -50.2057 H         1 UNK         0.0600 
    208 H208       -8.8280  -25.2233  -50.9557 H         1 UNK         0.0600 
    209 H209       -7.1355  -25.2770  -51.4311 H         1 UNK         0.0600 
    210 H210       -6.8701  -22.2029  -48.1827 H         1 UNK         0.3000 
    211 H211       -6.7483  -20.0115  -48.4880 H         1 UNK         0.0600 
    212 H212       -9.1985  -20.3006  -50.3033 H         1 UNK         0.0600 
    213 H213       -8.6560  -18.8322  -49.5043 H         1 UNK         0.0600 
    214 H214       -9.2398  -20.1817  -48.5446 H         1 UNK         0.0600 
    215 H215       -4.9632  -21.4138  -49.9112 H         1 UNK         0.3000 
    216 H216       -3.3668  -21.3346  -51.3317 H         1 UNK         0.0600 
    217 H217       -4.3141  -18.6107  -52.3386 H         1 UNK         0.0600 
    218 H218       -2.6942  -19.2915  -52.4266 H         1 UNK         0.0600 
    219 H219       -3.3678  -18.8521  -50.8689 H         1 UNK         0.0600 
    220 H220       -6.2898  -22.1239  -52.2841 H         1 UNK         0.3000 
    221 H221       -6.0455  -22.1262  -55.1621 H         1 UNK         0.0600 
    222 H222       -7.7774  -23.9050  -53.3714 H         1 UNK         0.0600 
    223 H223       -8.2459  -22.3152  -53.9736 H         1 UNK         0.0600 
    224 H224       -7.9762  -23.6405  -55.0963 H         1 UNK         0.0600 
    225 H225       -5.1342  -24.4242  -52.5500 H         1 UNK         0.3000 
    226 H226       -4.1696  -26.4337  -54.4733 H         1 UNK         0.0600 
    227 H227       -5.2484  -27.1414  -52.3388 H         1 UNK         0.0600 
    228 H228       -3.6007  -27.7343  -52.4819 H         1 UNK         0.0600 
    229 H229       -3.9507  -26.3793  -51.4267 H         1 UNK         0.0600 
    230 H230       -2.9543  -23.6103  -52.9031 H         1 UNK         0.3000 
    231 H231       -0.1131  -24.1923  -53.3325 H         1 UNK         0.0600 
    232 H232       -1.4653  -21.5029  -52.7761 H         1 UNK         0.0600 
    233 H233       -0.9306  -22.6188  -51.5152 H         1 UNK         0.0600 
    234 H234        0.2329  -21.8915  -52.6088 H         1 UNK         0.0600 
    235 H235       -2.7334  -23.4603  -55.3262 H         1 UNK         0.3000 
    236 H236       -3.0527  -23.0707  -57.4436 H         1 UNK         0.0600 
    237 H237       -1.2056  -24.7231  -57.8069 H         1 UNK         0.0600 
    238 H238       -1.3240  -23.5521  -59.1088 H         1 UNK         0.0600 
    239 H239       -0.0470  -23.3974  -57.9121 H         1 UNK         0.0600 
    240 H240       -2.7319  -20.8075  -55.6871 H         1 UNK         0.3000 
    241 H241       -1.6477  -18.6381  -57.3258 H         1 UNK         0.0600 
    242 H242       -4.5434  -17.4132  -58.9992 H         1 UNK         0.3800 
    243 H243       -2.9065  -17.0608  -58.5253 H         1 UNK         0.3800 
    244 H244       -3.3519  -18.6167  -54.7865 H         1 UNK         0.0800 
    245 H245       -2.8368  -17.1721  -55.6204 H         1 UNK         0.0800 
    246 H246       -1.3774  -15.9196  -54.0665 H         1 UNK         0.0800 
    247 H247       -2.1201  -16.9479  -52.8661 H         1 UNK         0.0800 
@<TRIPOS>BOND
     1    1    2 1    
     2    1  127 1    
     3    1  128 1    
     4    1  129 1    
     5    2    3 2    
     6    2    4 am   BACKBONE|DICT|INTERRES
     7    4    5 1    
     8    4  130 1    
     9    5    6 1    
    10    5   65 1    
    11    5  131 1    
    12    6    7 1    
    13    6  132 1    
    14    6  133 1    
    15    7    8 1    
    16    8    9 1    
    17    8  134 1    
    18    8  135 1    
    19    9   10 ar   
    20    9   14 ar   
    21   10   11 ar   
    22   10  136 1    
    23   11   12 ar   
    24   11  126 1    
    25   12   13 ar   
    26   12  137 1    
    27   13   14 ar   
    28   13   15 1    
    29   14  138 1    
    30   15   16 1    
    31   15  139 1    
    32   15  140 1    
    33   16   17 1    
    34   17   18 1    
    35   17  141 1    
    36   17  142 1    
    37   18   19 1    
    38   18   67 1    
    39   18  143 1    
    40   19   20 am   BACKBONE|DICT|INTERRES
    41   19  144 1    
    42   20   21 2    
    43   20   22 1    
    44   22   23 1    
    45   22   24 1    
    46   22  145 1    
    47   23  146 1    
    48   23  147 1    
    49   23  148 1    
    50   24   25 am   BACKBONE|DICT|INTERRES
    51   24  149 1    
    52   25   26 2    
    53   25   27 1    
    54   27   28 1    
    55   27   29 1    
    56   27  150 1    
    57   28  151 1    
    58   28  152 1    
    59   28  153 1    
    60   29   30 am   BACKBONE|DICT|INTERRES
    61   29  154 1    
    62   30   31 2    
    63   30   32 1    
    64   32   33 1    
    65   32   34 1    
    66   32  155 1    
    67   33  156 1    
    68   33  157 1    
    69   33  158 1    
    70   34   35 am   BACKBONE|DICT|INTERRES
    71   34  159 1    
    72   35   36 2    
    73   35   37 1    
    74   37   38 1    
    75   37   39 1    
    76   37  160 1    
    77   38  161 1    
    78   38  162 1    
    79   38  163 1    
    80   39   40 am   BACKBONE|DICT|INTERRES
    81   39  164 1    
    82   40   41 2    
    83   40   42 1    
    84   42   43 1    
    85   42   44 1    
    86   42  165 1    
    87   43  166 1    
    88   43  167 1    
    89   43  168 1    
    90   44   45 am   BACKBONE|DICT|INTERRES
    91   44  169 1    
    92   45   46 2    
    93   45   47 1    
    94   47   48 1    
    95   47   49 1    
    96   47  170 1    
    97   48  171 1    
    98   48  172 1    
    99   48  173 1    
   100   49   50 am   BACKBONE|DICT|INTERRES
   101   49  174 1    
   102   50   51 2    
   103   50   52 1    
   104   52   53 1    
   105   52   54 1    
   106   52  175 1    
   107   53  176 1    
   108   53  177 1    
   109   53  178 1    
   110   54   55 am   BACKBONE|DICT|INTERRES
   111   54  179 1    
   112   55   56 2    
   113   55   57 1    
   114   57   58 1    
   115   57   59 1    
   116   57  180 1    
   117   58  181 1    
   118   58  182 1    
   119   58  183 1    
   120   59   60 am   BACKBONE|DICT|INTERRES
   121   59  184 1    
   122   60   61 2    
   123   60   62 1    
   124   62   63 1    
   125   62   64 1    
   126   62  185 1    
   127   63  186 1    
   128   63  187 1    
   129   63  188 1    
   130   64   65 am   BACKBONE|DICT|INTERRES
   131   64  189 1    
   132   65   66 2    
   133   67   68 2    
   134   67   69 am   BACKBONE|DICT|INTERRES
   135   69   70 1    
   136   69  190 1    
   137   70   71 1    
   138   70   72 1    
   139   70  191 1    
   140   71  192 1    
   141   71  193 1    
   142   71  194 1    
   143   72   73 2    
   144   72   74 am   BACKBONE|DICT|INTERRES
   145   74   75 1    
   146   74  195 1    
   147   75   76 1    
   148   75   77 1    
   149   75  196 1    
   150   76  197 1    
   151   76  198 1    
   152   76  199 1    
   153   77   78 2    
   154   77   79 am   BACKBONE|DICT|INTERRES
   155   79   80 1    
   156   79  200 1    
   157   80   81 1    
   158   80   82 1    
   159   80  201 1    
   160   81  202 1    
   161   81  203 1    
   162   81  204 1    
   163   82   83 2    
   164   82   84 am   BACKBONE|DICT|INTERRES
   165   84   85 1    
   166   84  205 1    
   167   85   86 1    
   168   85   87 1    
   169   85  206 1    
   170   86  207 1    
   171   86  208 1    
   172   86  209 1    
   173   87   88 2    
   174   87   89 am   BACKBONE|DICT|INTERRES
   175   89   90 1    
   176   89  210 1    
   177   90   91 1    
   178   90   92 1    
   179   90  211 1    
   180   91  212 1    
   181   91  213 1    
   182   91  214 1    
   183   92   93 2    
   184   92   94 am   BACKBONE|DICT|INTERRES
   185   94   95 1    
   186   94  215 1    
   187   95   96 1    
   188   95   97 1    
   189   95  216 1    
   190   96  217 1    
   191   96  218 1    
   192   96  219 1    
   193   97   98 2    
   194   97   99 am   BACKBONE|DICT|INTERRES
   195   99  100 1    
   196   99  220 1    
   197  100  101 1    
   198  100  102 1    
   199  100  221 1    
   200  101  222 1    
   201  101  223 1    
   202  101  224 1    
   203  102  103 2    
   204  102  104 am   BACKBONE|DICT|INTERRES
   205  104  105 1    
   206  104  225 1    
   207  105  106 1    
   208  105  107 1    
   209  105  226 1    
   210  106  227 1    
   211  106  228 1    
   212  106  229 1    
   213  107  108 2    
   214  107  109 am   BACKBONE|DICT|INTERRES
   215  109  110 1    
   216  109  230 1    
   217  110  111 1    
   218  110  112 1    
   219  110  231 1    
   220  111  232 1    
   221  111  233 1    
   222  111  234 1    
   223  112  113 2    
   224  112  114 am   BACKBONE|DICT|INTERRES
   225  114  115 1    
   226  114  235 1    
   227  115  116 1    
   228  115  117 1    
   229  115  236 1    
   230  116  237 1    
   231  116  238 1    
   232  116  239 1    
   233  117  118 2    
   234  117  119 am   BACKBONE|DICT|INTERRES
   235  119  120 1    
   236  119  240 1    
   237  120  121 1    
   238  120  124 1    
   239  120  241 1    
   240  121  122 am   BACKBONE|DICT|INTERRES
   241  121  123 2    
   242  122  242 1    
   243  122  243 1    
   244  124  125 1    
   245  124  244 1    
   246  124  245 1    
   247  125  126 1    
   248  126  246 1    
   249  126  247 1    
@<TRIPOS>SUBSTRUCTURE
     1 UNK         1 GROUP             0       ****    0 ROOT    
