@<TRIPOS>MOLECULE
3R540
247   249    1
SMALL
USER_CHARGES


@<TRIPOS>ATOM
      1 CA          2.0693  -16.3584  -50.4265 C.3       0 UNK        -0.1800 
      2 C           0.7709  -15.7793  -49.8846 C.2       0 UNK         0.5000 
      3 O          -0.2965  -16.0332  -50.4383 O.2       0 UNK        -0.5000 
      4 N           0.8628  -15.0033  -48.8031 N.am      1 UNK        -0.5000 
      5 CA         -0.2508  -14.3942  -48.0830 C.3       1 UNK         0.1400 
      6 C6         -0.8183  -13.1538  -48.8264 C.3       23 UNK        -0.0398 
      7 S7         -2.4137  -12.5472  -48.1705 S.3       23 UNK        -0.2404 
      8 C8         -3.6350  -13.2971  -49.3082 C.3       23 UNK        -0.0205 
      9 C9         -3.7854  -14.8118  -49.1723 C.ar      23 UNK        -0.0193 
     10 C10        -4.0424  -15.5878  -50.3084 C.ar      23 UNK        -0.1150 
     11 C11        -4.1825  -16.9779  -50.2172 C.ar      23 UNK        -0.0193 
     12 C12        -4.0526  -17.5913  -48.9661 C.ar      23 UNK        -0.1150 
     13 C13        -3.7740  -16.8325  -47.8276 C.ar      23 UNK        -0.0193 
     14 C14        -3.6865  -15.4441  -47.9287 C.ar      23 UNK        -0.1150 
     15 C15        -3.5119  -17.5145  -46.4961 C.3       23 UNK        -0.0205 
     16 S16        -1.7516  -17.4152  -46.0176 S.3       23 UNK        -0.2404 
     17 C17        -0.8699  -18.1980  -47.4191 C.3       23 UNK        -0.0398 
     18 CA         -0.5633  -19.7137  -47.3039 C.3       11 UNK         0.1400 
     19 N           0.5803  -20.0253  -46.4428 N.am      11 UNK        -0.5000 
     20 C           1.2142  -21.2082  -46.4604 C.2       10 UNK         0.5000 
     21 O           0.8790  -22.1473  -47.1829 O.2       10 UNK        -0.5000 
     22 CA          2.3937  -21.3977  -45.4909 C.3       10 UNK         0.1400 
     23 CB          3.6467  -20.6680  -45.9975 C.3       10 UNK        -0.1800 
     24 N           2.0832  -20.9705  -44.1280 N.am      10 UNK        -0.5000 
     25 C           1.1448  -21.5324  -43.3521 C.2       9 UNK         0.5000 
     26 O           0.4524  -22.4909  -43.6968 O.2       9 UNK        -0.5000 
     27 CA          0.9113  -20.8837  -41.9749 C.3       9 UNK         0.1400 
     28 CB          1.9822  -21.3240  -40.9657 C.3       9 UNK        -0.1800 
     29 N           0.8758  -19.4231  -42.0493 N.am      9 UNK        -0.5000 
     30 C          -0.0477  -18.7305  -42.7309 C.2       8 UNK         0.5000 
     31 O          -0.9992  -19.2511  -43.3111 O.2       8 UNK        -0.5000 
     32 CA          0.1542  -17.2090  -42.8150 C.3       8 UNK         0.1400 
     33 CB         -0.2990  -16.5226  -41.5175 C.3       8 UNK        -0.1800 
     34 N           1.5401  -16.8502  -43.1104 N.am      8 UNK        -0.5000 
     35 C           2.2042  -17.1665  -44.2317 C.2       7 UNK         0.5000 
     36 O           1.6978  -17.7513  -45.1869 O.2       7 UNK        -0.5000 
     37 CA          3.7060  -16.8279  -44.2656 C.3       7 UNK         0.1400 
     38 CB          3.9513  -15.3886  -44.7392 C.3       7 UNK        -0.1800 
     39 N           4.3388  -17.0250  -42.9627 N.am      7 UNK        -0.5000 
     40 C           4.5561  -18.2224  -42.4020 C.2       6 UNK         0.5000 
     41 O           4.2664  -19.2919  -42.9382 O.2       6 UNK        -0.5000 
     42 CA          5.1633  -18.2143  -40.9875 C.3       6 UNK         0.1400 
     43 CB          6.6921  -18.0818  -41.0539 C.3       6 UNK        -0.1800 
     44 N           4.6171  -17.1396  -40.1558 N.am      6 UNK        -0.5000 
     45 C           3.3537  -17.1067  -39.7101 C.2       5 UNK         0.5000 
     46 O           2.5328  -17.9994  -39.9242 O.2       5 UNK        -0.5000 
     47 CA          2.9256  -15.8431  -38.9371 C.3       5 UNK         0.1400 
     48 CB          3.3172  -15.9576  -37.4563 C.3       5 UNK        -0.1800 
     49 N           3.4663  -14.5940  -39.4899 N.am      5 UNK        -0.5000 
     50 C           3.2216  -14.1480  -40.7286 C.2       4 UNK         0.5000 
     51 O           2.5593  -14.7774  -41.5565 O.2       4 UNK        -0.5000 
     52 CA          3.8316  -12.7977  -41.1303 C.3       4 UNK         0.1400 
     53 CB          5.3482  -12.9215  -41.3605 C.3       4 UNK        -0.1800 
     54 N           3.1796  -12.3778  -42.3648 N.am      4 UNK        -0.5000 
     55 C           3.0565  -11.1353  -42.8395 C.2       3 UNK         0.5000 
     56 O           3.5298  -10.1422  -42.2858 O.2       3 UNK        -0.5000 
     57 CA          2.2747  -10.9740  -44.1609 C.3       3 UNK         0.1400 
     58 CB          3.2453  -10.7778  -45.3357 C.3       3 UNK        -0.1800 
     59 N           1.4088  -12.1177  -44.4617 N.am      3 UNK        -0.5000 
     60 C           0.2312  -12.3766  -43.8829 C.2       2 UNK         0.5000 
     61 O          -0.2951  -11.6237  -43.0618 O.2       2 UNK        -0.5000 
     62 CA         -0.4567  -13.7031  -44.2819 C.3       2 UNK         0.1400 
     63 CB         -1.8031  -13.9143  -43.5657 C.3       2 UNK        -0.1800 
     64 N          -0.6786  -13.8634  -45.7212 N.am      2 UNK        -0.5000 
     65 C           0.2501  -14.0996  -46.6543 C.2       1 UNK         0.5000 
     66 O           1.4616  -14.1093  -46.4175 O.2       1 UNK        -0.5000 
     67 C          -1.7991  -20.5668  -46.9602 C.2       11 UNK         0.5000 
     68 O          -2.4874  -21.0113  -47.8753 O.2       11 UNK        -0.5000 
     69 N          -2.0365  -20.8209  -45.6638 N.am      12 UNK        -0.5000 
     70 CA         -3.1182  -21.6787  -45.1784 C.3       12 UNK         0.1400 
     71 CB         -3.2315  -21.5554  -43.6522 C.3       12 UNK        -0.1800 
     72 C          -2.9479  -23.1513  -45.5932 C.2       12 UNK         0.5000 
     73 O          -3.9431  -23.8128  -45.8881 O.2       12 UNK        -0.5000 
     74 N          -1.6970  -23.6312  -45.6304 N.am      13 UNK        -0.5000 
     75 CA         -1.3444  -24.9646  -46.1167 C.3       13 UNK         0.1400 
     76 CB          0.0799  -25.3147  -45.6593 C.3       13 UNK        -0.1800 
     77 C          -1.4756  -25.0886  -47.6471 C.2       13 UNK         0.5000 
     78 O          -1.8893  -26.1409  -48.1346 O.2       13 UNK        -0.5000 
     79 N          -1.1168  -24.0215  -48.3737 N.am      14 UNK        -0.5000 
     80 CA         -1.1827  -23.9509  -49.8342 C.3       14 UNK         0.1400 
     81 CB         -0.2557  -22.8290  -50.3176 C.3       14 UNK        -0.1800 
     82 C          -2.6099  -23.7449  -50.3797 C.2       14 UNK         0.5000 
     83 O          -2.8870  -24.1614  -51.5050 O.2       14 UNK        -0.5000 
     84 N          -3.4811  -23.1014  -49.5917 N.am      15 UNK        -0.5000 
     85 CA         -4.8892  -22.8530  -49.9017 C.3       15 UNK         0.1400 
     86 CB         -5.4802  -21.9247  -48.8274 C.3       15 UNK        -0.1800 
     87 C          -5.7280  -24.1421  -50.0222 C.2       15 UNK         0.5000 
     88 O          -5.3318  -25.1988  -49.5252 O.2       15 UNK        -0.5000 
     89 N          -6.8923  -24.0087  -50.6753 N.am      16 UNK        -0.5000 
     90 CA         -7.8724  -25.0638  -50.9738 C.3       16 UNK         0.1400 
     91 CB         -8.4348  -25.6999  -49.6846 C.3       16 UNK        -0.1800 
     92 C          -7.3654  -26.1093  -51.9926 C.2       16 UNK         0.5000 
     93 O          -7.8890  -27.2227  -52.0482 O.2       16 UNK        -0.5000 
     94 N          -6.3851  -25.7144  -52.8161 N.am      17 UNK        -0.5000 
     95 CA         -5.7975  -26.5128  -53.8960 C.3       17 UNK         0.1400 
     96 CB         -4.3144  -26.1263  -54.0284 C.3       17 UNK        -0.1800 
     97 C          -6.5383  -26.3431  -55.2412 C.2       17 UNK         0.5000 
     98 O          -6.0277  -26.7894  -56.2693 O.2       17 UNK        -0.5000 
     99 N          -7.7073  -25.6826  -55.2174 N.am      18 UNK        -0.5000 
    100 CA        -8.5446  -25.2974  -56.3617 C.3       18 UNK         0.1400 
    101 CB        -9.0596  -26.5344  -57.1281 C.3       18 UNK        -0.1800 
    102 C         -7.8679  -24.2511  -57.2747 C.2       18 UNK         0.5000 
    103 O         -8.1150  -24.2248  -58.4819 O.2       18 UNK        -0.5000 
    104 N         -7.0379  -23.3930  -56.6716 N.am      19 UNK        -0.5000 
    105 CA        -6.3317  -22.2862  -57.3021 C.3       19 UNK         0.1400 
    106 CB        -5.0421  -22.7983  -57.9693 C.3       19 UNK        -0.1800 
    107 C         -6.0135  -21.2420  -56.2234 C.2       19 UNK         0.5000 
    108 O         -5.9165  -21.5903  -55.0435 O.2       19 UNK        -0.5000 
    109 N         -5.8301  -19.9882  -56.6521 N.am      20 UNK        -0.5000 
    110 CA        -5.4725  -18.8516  -55.7959 C.3       20 UNK         0.1400 
    111 CB        -6.0899  -17.5765  -56.3939 C.3       20 UNK        -0.1800 
    112 C         -3.9484  -18.6879  -55.6148 C.2       20 UNK         0.5000 
    113 O         -3.5153  -17.7553  -54.9364 O.2       20 UNK        -0.5000 
    114 N         -3.1546  -19.5747  -56.2304 N.am      21 UNK        -0.5000 
    115 CA        -1.6924  -19.6008  -56.1936 C.3       21 UNK         0.1400 
    116 CB        -1.1904  -20.4167  -57.3991 C.3       21 UNK        -0.1800 
    117 C         -1.1538  -20.1337  -54.8479 C.2       21 UNK         0.5000 
    118 O         -0.5086  -21.1827  -54.8069 O.2       21 UNK        -0.5000 
    119 N         -1.4433  -19.4027  -53.7666 N.am      22 UNK        -0.5000 
    120 CA        -1.0336  -19.7216  -52.3889 C.3       22 UNK         0.1400 
    121 C          0.4687  -19.4515  -52.0715 C.2       22 UNK         0.5000 
    122 N          1.2518  -18.8664  -52.9700 N.am      22 UNK        -0.7600 
    123 O          0.9370  -19.7868  -50.9882 O.2       22 UNK        -0.5000 
    124 C124       -1.9417  -19.0345  -51.3406 C.3       23 UNK        -0.0398 
    125 S125       -3.7098  -19.4496  -51.5209 S.3       23 UNK        -0.2404 
    126 C126       -4.4742  -17.7889  -51.4815 C.3       23 UNK        -0.0205 
    127 H127        2.1117  -16.2405  -51.5092 H         1 UNK         0.0600 
    128 H128        2.9418  -15.8655  -49.9969 H         1 UNK         0.0600 
    129 H129        2.1291  -17.4213  -50.1940 H         1 UNK         0.0600 
    130 H130        1.7547  -14.8548  -48.3449 H         1 UNK         0.3000 
    131 H131       -1.0289  -15.1521  -47.9998 H         1 UNK         0.0600 
    132 H132       -0.9592  -13.3853  -49.8828 H         1 UNK         0.0800 
    133 H133       -0.0984  -12.3342  -48.7998 H         1 UNK         0.0800 
    134 H134       -3.3682  -13.0303  -50.3321 H         1 UNK         0.0800 
    135 H135       -4.6074  -12.8423  -49.1166 H         1 UNK         0.0800 
    136 H136       -4.1334  -15.1063  -51.2720 H         1 UNK         0.1150 
    137 H137       -4.1347  -18.6651  -48.8786 H         1 UNK         0.1150 
    138 H138       -3.4933  -14.8656  -47.0374 H         1 UNK         0.1150 
    139 H139       -4.1131  -17.0360  -45.7220 H         1 UNK         0.0800 
    140 H140       -3.8294  -18.5572  -46.5237 H         1 UNK         0.0800 
    141 H141        0.0691  -17.6585  -47.5469 H         1 UNK         0.0800 
    142 H142       -1.4194  -18.0079  -48.3393 H         1 UNK         0.0800 
    143 H143       -0.2604  -20.0230  -48.3069 H         1 UNK         0.0600 
    144 H144        0.9194  -19.2760  -45.8418 H         1 UNK         0.3000 
    145 H145        2.6211  -22.4652  -45.4549 H         1 UNK         0.0600 
    146 H146        4.5012  -20.8524  -45.3462 H         1 UNK         0.0600 
    147 H147        3.9186  -21.0104  -46.9967 H         1 UNK         0.0600 
    148 H148        3.4936  -19.5907  -46.0518 H         1 UNK         0.0600 
    149 H149        2.6371  -20.2083  -43.7517 H         1 UNK         0.3000 
    150 H150       -0.0598  -21.2232  -41.6086 H         1 UNK         0.0600 
    151 H151        2.0069  -22.4104  -40.8728 H         1 UNK         0.0600 
    152 H152        1.7802  -20.9162  -39.9750 H         1 UNK         0.0600 
    153 H153        2.9785  -20.9968  -41.2632 H         1 UNK         0.0600 
    154 H154        1.6044  -18.9178  -41.5571 H         1 UNK         0.3000 
    155 H155       -0.4628  -16.8262  -43.6256 H         1 UNK         0.0600 
    156 H156        0.2302  -16.9083  -40.6471 H         1 UNK         0.0600 
    157 H157       -1.3646  -16.6814  -41.3487 H         1 UNK         0.0600 
    158 H158       -0.1312  -15.4469  -41.5555 H         1 UNK         0.0600 
    159 H159        2.0231  -16.3007  -42.4041 H         1 UNK         0.3000 
    160 H160        4.1880  -17.5010  -44.9773 H         1 UNK         0.0600 
    161 H161        5.0034  -15.1152  -44.6591 H         1 UNK         0.0600 
    162 H162        3.3703  -14.6656  -44.1678 H         1 UNK         0.0600 
    163 H163        3.6732  -15.2817  -45.7873 H         1 UNK         0.0600 
    164 H164        4.5586  -16.1957  -42.4331 H         1 UNK         0.3000 
    165 H165        4.9234  -19.1700  -40.5164 H         1 UNK         0.0600 
    166 H166        7.1365  -18.1479  -40.0607 H         1 UNK         0.0600 
    167 H167        7.1264  -18.8803  -41.6570 H         1 UNK         0.0600 
    168 H168        6.9974  -17.1328  -41.4964 H         1 UNK         0.0600 
    169 H169        5.2298  -16.3684  -39.9354 H         1 UNK         0.3000 
    170 H170        1.8369  -15.7822  -38.9941 H         1 UNK         0.0600 
    171 H171        2.9126  -16.8694  -37.0147 H         1 UNK         0.0600 
    172 H172        4.3998  -15.9818  -37.3257 H         1 UNK         0.0600 
    173 H173        2.9276  -15.1189  -36.8792 H         1 UNK         0.0600 
    174 H174        4.0266  -14.0307  -38.8664 H         1 UNK         0.3000 
    175 H175        3.6263  -12.0720  -40.3410 H         1 UNK         0.0600 
    176 H176        5.5777  -13.6465  -42.1426 H         1 UNK         0.0600 
    177 H177        5.7815  -11.9658  -41.6557 H         1 UNK         0.0600 
    178 H178        5.8614  -13.2406  -40.4528 H         1 UNK         0.0600 
    179 H179        2.7021  -13.1316  -42.8414 H         1 UNK         0.3000 
    180 H180        1.6556  -10.0789  -44.0727 H         1 UNK         0.0600 
    181 H181        3.8838  -11.6508  -45.4786 H         1 UNK         0.0600 
    182 H182        3.8953   -9.9181  -45.1680 H         1 UNK         0.0600 
    183 H183        2.7065  -10.6008  -46.2667 H         1 UNK         0.0600 
    184 H184        1.7374  -12.7773  -45.1634 H         1 UNK         0.3000 
    185 H185        0.2167  -14.4983  -43.9604 H         1 UNK         0.0600 
    186 H186       -1.6936  -13.8378  -42.4835 H         1 UNK         0.0600 
    187 H187       -2.5410  -13.1725  -43.8734 H         1 UNK         0.0600 
    188 H188       -2.2120  -14.9024  -43.7787 H         1 UNK         0.0600 
    189 H189       -1.6416  -13.8093  -46.0200 H         1 UNK         0.3000 
    190 H190       -1.4568  -20.3759  -44.9584 H         1 UNK         0.3000 
    191 H191       -4.0507  -21.3184  -45.6178 H         1 UNK         0.0600 
    192 H192       -2.3070  -21.8523  -43.1557 H         1 UNK         0.0600 
    193 H193       -4.0317  -22.1878  -43.2658 H         1 UNK         0.0600 
    194 H194       -3.4564  -20.5305  -43.3568 H         1 UNK         0.0600 
    195 H195       -0.9341  -23.0381  -45.3250 H         1 UNK         0.3000 
    196 H196       -2.0289  -25.6857  -45.6649 H         1 UNK         0.0600 
    197 H197        0.3600  -26.3166  -45.9868 H         1 UNK         0.0600 
    198 H198        0.1607  -25.2925  -44.5723 H         1 UNK         0.0600 
    199 H199        0.8167  -24.6193  -46.0621 H         1 UNK         0.0600 
    200 H200       -0.7202  -23.2189  -47.8964 H         1 UNK         0.3000 
    201 H201       -0.8082  -24.8930  -50.2400 H         1 UNK         0.0600 
    202 H202       -0.2177  -22.7970  -51.4068 H         1 UNK         0.0600 
    203 H203        0.7647  -22.9748  -49.9625 H         1 UNK         0.0600 
    204 H204       -0.5953  -21.8547  -49.9655 H         1 UNK         0.0600 
    205 H205       -3.1411  -22.7137  -48.7190 H         1 UNK         0.3000 
    206 H206       -4.9262  -22.3371  -50.8632 H         1 UNK         0.0600 
    207 H207       -4.9708  -20.9617  -48.8177 H         1 UNK         0.0600 
    208 H208       -6.5362  -21.7233  -49.0098 H         1 UNK         0.0600 
    209 H209       -5.3956  -22.3603  -47.8313 H         1 UNK         0.0600 
    210 H210       -7.1325  -23.0930  -51.0302 H         1 UNK         0.3000 
    211 H211       -8.7042  -24.5587  -51.4667 H         1 UNK         0.0600 
    212 H212       -7.6929  -26.3154  -49.1756 H         1 UNK         0.0600 
    213 H213       -9.2889  -26.3408  -49.9063 H         1 UNK         0.0600 
    214 H214       -8.7768  -24.9375  -48.9848 H         1 UNK         0.0600 
    215 H215       -6.0075  -24.7860  -52.6939 H         1 UNK         0.3000 
    216 H216       -5.8476  -27.5714  -53.6332 H         1 UNK         0.0600 
    217 H217       -3.8118  -26.7309  -54.7842 H         1 UNK         0.0600 
    218 H218       -3.7837  -26.2827  -53.0890 H         1 UNK         0.0600 
    219 H219       -4.1944  -25.0792  -54.3099 H         1 UNK         0.0600 
    220 H220       -8.0339  -25.3680  -54.3158 H         1 UNK         0.3000 
    221 H221       -9.4165  -24.7973  -55.9377 H         1 UNK         0.0600 
    222 H222       -8.2597  -27.0445  -57.6651 H         1 UNK         0.0600 
    223 H223       -9.5224  -27.2531  -56.4519 H         1 UNK         0.0600 
    224 H224       -9.8135  -26.2509  -57.8634 H         1 UNK         0.0600 
    225 H225       -6.9081  -23.4444  -55.6693 H         1 UNK         0.3000 
    226 H226       -6.9782  -21.8256  -58.0523 H         1 UNK         0.0600 
    227 H227       -4.3737  -23.2645  -57.2440 H         1 UNK         0.0600 
    228 H228       -5.2624  -23.5365  -58.7406 H         1 UNK         0.0600 
    229 H229       -4.4954  -21.9853  -58.4482 H         1 UNK         0.0600 
    230 H230       -5.9226  -19.7885  -57.6385 H         1 UNK         0.3000 
    231 H231       -5.8986  -18.9977  -54.8008 H         1 UNK         0.0600 
    232 H232       -7.1721  -17.6693  -56.4877 H         1 UNK         0.0600 
    233 H233       -5.6840  -17.3578  -57.3823 H         1 UNK         0.0600 
    234 H234       -5.8953  -16.7103  -55.7600 H         1 UNK         0.0600 
    235 H235       -3.5990  -20.3204  -56.7430 H         1 UNK         0.3000 
    236 H236       -1.3227  -18.5796  -56.3086 H         1 UNK         0.0600 
    237 H237       -0.1002  -20.4408  -57.4290 H         1 UNK         0.0600 
    238 H238       -1.5421  -21.4487  -57.3630 H         1 UNK         0.0600 
    239 H239       -1.5290  -19.9802  -58.3389 H         1 UNK         0.0600 
    240 H240       -2.0327  -18.5857  -53.8892 H         1 UNK         0.3000 
    241 H241       -1.1684  -20.7966  -52.2642 H         1 UNK         0.0600 
    242 H242        2.2228  -18.7125  -52.7517 H         1 UNK         0.3800 
    243 H243        0.8861  -18.5826  -53.8637 H         1 UNK         0.3800 
    244 H244       -1.6498  -19.3292  -50.3321 H         1 UNK         0.0800 
    245 H245       -1.8128  -17.9529  -51.3929 H         1 UNK         0.0800 
    246 H246       -4.1405  -17.2393  -52.3626 H         1 UNK         0.0800 
    247 H247       -5.5543  -17.9015  -51.5790 H         1 UNK         0.0800 
@<TRIPOS>BOND
     1    1    2 1    
     2    1  127 1    
     3    1  128 1    
     4    1  129 1    
     5    2    3 2    
     6    2    4 am   BACKBONE|DICT|INTERRES
     7    4    5 1    
     8    4  130 1    
     9    5    6 1    
    10    5   65 1    
    11    5  131 1    
    12    6    7 1    
    13    6  132 1    
    14    6  133 1    
    15    7    8 1    
    16    8    9 1    
    17    8  134 1    
    18    8  135 1    
    19    9   10 ar   
    20    9   14 ar   
    21   10   11 ar   
    22   10  136 1    
    23   11   12 ar   
    24   11  126 1    
    25   12   13 ar   
    26   12  137 1    
    27   13   14 ar   
    28   13   15 1    
    29   14  138 1    
    30   15   16 1    
    31   15  139 1    
    32   15  140 1    
    33   16   17 1    
    34   17   18 1    
    35   17  141 1    
    36   17  142 1    
    37   18   19 1    
    38   18   67 1    
    39   18  143 1    
    40   19   20 am   BACKBONE|DICT|INTERRES
    41   19  144 1    
    42   20   21 2    
    43   20   22 1    
    44   22   23 1    
    45   22   24 1    
    46   22  145 1    
    47   23  146 1    
    48   23  147 1    
    49   23  148 1    
    50   24   25 am   BACKBONE|DICT|INTERRES
    51   24  149 1    
    52   25   26 2    
    53   25   27 1    
    54   27   28 1    
    55   27   29 1    
    56   27  150 1    
    57   28  151 1    
    58   28  152 1    
    59   28  153 1    
    60   29   30 am   BACKBONE|DICT|INTERRES
    61   29  154 1    
    62   30   31 2    
    63   30   32 1    
    64   32   33 1    
    65   32   34 1    
    66   32  155 1    
    67   33  156 1    
    68   33  157 1    
    69   33  158 1    
    70   34   35 am   BACKBONE|DICT|INTERRES
    71   34  159 1    
    72   35   36 2    
    73   35   37 1    
    74   37   38 1    
    75   37   39 1    
    76   37  160 1    
    77   38  161 1    
    78   38  162 1    
    79   38  163 1    
    80   39   40 am   BACKBONE|DICT|INTERRES
    81   39  164 1    
    82   40   41 2    
    83   40   42 1    
    84   42   43 1    
    85   42   44 1    
    86   42  165 1    
    87   43  166 1    
    88   43  167 1    
    89   43  168 1    
    90   44   45 am   BACKBONE|DICT|INTERRES
    91   44  169 1    
    92   45   46 2    
    93   45   47 1    
    94   47   48 1    
    95   47   49 1    
    96   47  170 1    
    97   48  171 1    
    98   48  172 1    
    99   48  173 1    
   100   49   50 am   BACKBONE|DICT|INTERRES
   101   49  174 1    
   102   50   51 2    
   103   50   52 1    
   104   52   53 1    
   105   52   54 1    
   106   52  175 1    
   107   53  176 1    
   108   53  177 1    
   109   53  178 1    
   110   54   55 am   BACKBONE|DICT|INTERRES
   111   54  179 1    
   112   55   56 2    
   113   55   57 1    
   114   57   58 1    
   115   57   59 1    
   116   57  180 1    
   117   58  181 1    
   118   58  182 1    
   119   58  183 1    
   120   59   60 am   BACKBONE|DICT|INTERRES
   121   59  184 1    
   122   60   61 2    
   123   60   62 1    
   124   62   63 1    
   125   62   64 1    
   126   62  185 1    
   127   63  186 1    
   128   63  187 1    
   129   63  188 1    
   130   64   65 am   BACKBONE|DICT|INTERRES
   131   64  189 1    
   132   65   66 2    
   133   67   68 2    
   134   67   69 am   BACKBONE|DICT|INTERRES
   135   69   70 1    
   136   69  190 1    
   137   70   71 1    
   138   70   72 1    
   139   70  191 1    
   140   71  192 1    
   141   71  193 1    
   142   71  194 1    
   143   72   73 2    
   144   72   74 am   BACKBONE|DICT|INTERRES
   145   74   75 1    
   146   74  195 1    
   147   75   76 1    
   148   75   77 1    
   149   75  196 1    
   150   76  197 1    
   151   76  198 1    
   152   76  199 1    
   153   77   78 2    
   154   77   79 am   BACKBONE|DICT|INTERRES
   155   79   80 1    
   156   79  200 1    
   157   80   81 1    
   158   80   82 1    
   159   80  201 1    
   160   81  202 1    
   161   81  203 1    
   162   81  204 1    
   163   82   83 2    
   164   82   84 am   BACKBONE|DICT|INTERRES
   165   84   85 1    
   166   84  205 1    
   167   85   86 1    
   168   85   87 1    
   169   85  206 1    
   170   86  207 1    
   171   86  208 1    
   172   86  209 1    
   173   87   88 2    
   174   87   89 am   BACKBONE|DICT|INTERRES
   175   89   90 1    
   176   89  210 1    
   177   90   91 1    
   178   90   92 1    
   179   90  211 1    
   180   91  212 1    
   181   91  213 1    
   182   91  214 1    
   183   92   93 2    
   184   92   94 am   BACKBONE|DICT|INTERRES
   185   94   95 1    
   186   94  215 1    
   187   95   96 1    
   188   95   97 1    
   189   95  216 1    
   190   96  217 1    
   191   96  218 1    
   192   96  219 1    
   193   97   98 2    
   194   97   99 am   BACKBONE|DICT|INTERRES
   195   99  100 1    
   196   99  220 1    
   197  100  101 1    
   198  100  102 1    
   199  100  221 1    
   200  101  222 1    
   201  101  223 1    
   202  101  224 1    
   203  102  103 2    
   204  102  104 am   BACKBONE|DICT|INTERRES
   205  104  105 1    
   206  104  225 1    
   207  105  106 1    
   208  105  107 1    
   209  105  226 1    
   210  106  227 1    
   211  106  228 1    
   212  106  229 1    
   213  107  108 2    
   214  107  109 am   BACKBONE|DICT|INTERRES
   215  109  110 1    
   216  109  230 1    
   217  110  111 1    
   218  110  112 1    
   219  110  231 1    
   220  111  232 1    
   221  111  233 1    
   222  111  234 1    
   223  112  113 2    
   224  112  114 am   BACKBONE|DICT|INTERRES
   225  114  115 1    
   226  114  235 1    
   227  115  116 1    
   228  115  117 1    
   229  115  236 1    
   230  116  237 1    
   231  116  238 1    
   232  116  239 1    
   233  117  118 2    
   234  117  119 am   BACKBONE|DICT|INTERRES
   235  119  120 1    
   236  119  240 1    
   237  120  121 1    
   238  120  124 1    
   239  120  241 1    
   240  121  122 am   BACKBONE|DICT|INTERRES
   241  121  123 2    
   242  122  242 1    
   243  122  243 1    
   244  124  125 1    
   245  124  244 1    
   246  124  245 1    
   247  125  126 1    
   248  126  246 1    
   249  126  247 1    
@<TRIPOS>SUBSTRUCTURE
     1 UNK         1 GROUP             0       ****    0 ROOT    
