@<TRIPOS>MOLECULE
3R540
247   249    1
SMALL
USER_CHARGES


@<TRIPOS>ATOM
      1 CA         -3.8679  -10.6669  -48.1181 C.3       0 UNK        -0.1800 
      2 C          -2.6249  -11.5438  -48.1610 C.2       0 UNK         0.5000 
      3 O          -1.5107  -11.0401  -48.0117 O.2       0 UNK        -0.5000 
      4 N          -2.8060  -12.8554  -48.3556 N.am      1 UNK        -0.5000 
      5 CA         -1.7543  -13.8773  -48.4162 C.3       1 UNK         0.1400 
      6 C6         -2.1812  -15.1094  -49.2604 C.3       23 UNK        -0.0398 
      7 S7         -3.8261  -15.7954  -48.8558 S.3       23 UNK        -0.2404 
      8 C8         -3.7061  -17.4090  -49.6824 C.3       23 UNK        -0.0205 
      9 C9         -5.0771  -18.0317  -49.8871 C.ar      23 UNK        -0.0193 
     10 C10        -5.7429  -17.8692  -51.1045 C.ar      23 UNK        -0.1150 
     11 C11        -6.9925  -18.4570  -51.3109 C.ar      23 UNK        -0.0193 
     12 C12        -7.5691  -19.2198  -50.2930 C.ar      23 UNK        -0.1150 
     13 C13        -6.9176  -19.3986  -49.0690 C.ar      23 UNK        -0.0193 
     14 C14        -5.6700  -18.7884  -48.8717 C.ar      23 UNK        -0.1150 
     15 C15        -7.6206  -20.2536  -48.0121 C.3       23 UNK        -0.0205 
     16 S16        -6.7589  -20.4598  -46.4166 S.3       23 UNK        -0.2404 
     17 C17        -5.4484  -21.6630  -46.8379 C.3       23 UNK        -0.0398 
     18 CA         -4.0840  -21.2945  -46.2056 C.3       11 UNK         0.1400 
     19 N          -4.1973  -21.0675  -44.7631 N.am      11 UNK        -0.5000 
     20 C          -3.2267  -20.6525  -43.9417 C.2       10 UNK         0.5000 
     21 O          -2.0579  -20.4764  -44.2940 O.2       10 UNK        -0.5000 
     22 CA         -3.6210  -20.4029  -42.4723 C.3       10 UNK         0.1400 
     23 CB         -5.0875  -20.7531  -42.1292 C.3       10 UNK        -0.1800 
     24 N          -2.7059  -21.0765  -41.5519 N.am      10 UNK        -0.5000 
     25 C          -2.4409  -22.3897  -41.4815 C.2       9 UNK         0.5000 
     26 O          -2.9730  -23.2311  -42.2078 O.2       9 UNK        -0.5000 
     27 CA         -1.3798  -22.8246  -40.4500 C.3       9 UNK         0.1400 
     28 CB         -0.6726  -24.1299  -40.8605 C.3       9 UNK        -0.1800 
     29 N          -0.3811  -21.7688  -40.2608 N.am      9 UNK        -0.5000 
     30 C          -0.2717  -20.9808  -39.1850 C.2       8 UNK         0.5000 
     31 O          -0.9511  -21.1094  -38.1662 O.2       8 UNK        -0.5000 
     32 CA          0.7479  -19.8278  -39.2777 C.3       8 UNK         0.1400 
     33 CB          2.1186  -20.2828  -38.7559 C.3       8 UNK        -0.1800 
     34 N           0.9081  -19.2567  -40.6218 N.am      8 UNK        -0.5000 
     35 C          -0.0641  -18.6519  -41.3264 C.2       7 UNK         0.5000 
     36 O          -1.2350  -18.6027  -40.9472 O.2       7 UNK        -0.5000 
     37 CA          0.3473  -17.9821  -42.6610 C.3       7 UNK         0.1400 
     38 CB         -0.7081  -16.9953  -43.1970 C.3       7 UNK        -0.1800 
     39 N           1.6644  -17.3425  -42.5915 N.am      7 UNK        -0.5000 
     40 C           2.0735  -16.4259  -41.6969 C.2       6 UNK         0.5000 
     41 O           1.3180  -15.8724  -40.8957 O.2       6 UNK        -0.5000 
     42 CA          3.5862  -16.0996  -41.6539 C.3       6 UNK         0.1400 
     43 CB          4.0832  -15.8681  -40.2116 C.3       6 UNK        -0.1800 
     44 N           4.4448  -17.0860  -42.3240 N.am      6 UNK        -0.5000 
     45 C           4.5344  -18.4052  -42.0864 C.2       5 UNK         0.5000 
     46 O           3.8999  -18.9863  -41.2043 O.2       5 UNK        -0.5000 
     47 CA          5.4450  -19.2074  -43.0447 C.3       5 UNK         0.1400 
     48 CB          5.0720  -20.7022  -43.1195 C.3       5 UNK        -0.1800 
     49 N           5.5325  -18.6473  -44.4027 N.am      5 UNK        -0.5000 
     50 C           4.5163  -18.3499  -45.2290 C.2       4 UNK         0.5000 
     51 O           3.3275  -18.4430  -44.9165 O.2       4 UNK        -0.5000 
     52 CA          4.9255  -17.8098  -46.6120 C.3       4 UNK         0.1400 
     53 CB          4.4005  -18.6839  -47.7679 C.3       4 UNK        -0.1800 
     54 N           4.5720  -16.3938  -46.7616 N.am      4 UNK        -0.5000 
     55 C           3.3588  -15.8456  -46.9215 C.2       3 UNK         0.5000 
     56 O           2.3168  -16.4753  -47.1112 O.2       3 UNK        -0.5000 
     57 CA          3.3269  -14.3049  -46.9191 C.3       3 UNK         0.1400 
     58 CB          3.6433  -13.7577  -48.3201 C.3       3 UNK        -0.1800 
     59 N           2.0272  -13.7855  -46.4993 N.am      3 UNK        -0.5000 
     60 C           1.5226  -13.8649  -45.2601 C.2       2 UNK         0.5000 
     61 O           2.1572  -14.2882  -44.2937 O.2       2 UNK        -0.5000 
     62 CA          0.0753  -13.3665  -45.0616 C.3       2 UNK         0.1400 
     63 CB          0.0651  -12.0135  -44.3338 C.3       2 UNK        -0.1800 
     64 N          -0.6494  -13.2247  -46.3274 N.am      2 UNK        -0.5000 
     65 C          -1.2029  -14.2320  -47.0144 C.2       1 UNK         0.5000 
     66 O          -1.2722  -15.3816  -46.5835 O.2       1 UNK        -0.5000 
     67 C          -3.0166  -22.3463  -46.5710 C.2       11 UNK         0.5000 
     68 O          -2.3597  -22.2030  -47.6016 O.2       11 UNK        -0.5000 
     69 N          -2.8435  -23.3659  -45.7162 N.am      12 UNK        -0.5000 
     70 CA         -1.8474  -24.4242  -45.8886 C.3       12 UNK         0.1400 
     71 CB         -2.1132  -25.5508  -44.8789 C.3       12 UNK        -0.1800 
     72 C          -0.4070  -23.9006  -45.7558 C.2       12 UNK         0.5000 
     73 O           0.4511  -24.2749  -46.5559 O.2       12 UNK        -0.5000 
     74 N          -0.1831  -23.0182  -44.7716 N.am      13 UNK        -0.5000 
     75 CA          1.0892  -22.3267  -44.5608 C.3       13 UNK         0.1400 
     76 CB          1.1115  -21.6821  -43.1681 C.3       13 UNK        -0.1800 
     77 C           1.3643  -21.2815  -45.6510 C.2       13 UNK         0.5000 
     78 O           2.4974  -21.1924  -46.1238 O.2       13 UNK        -0.5000 
     79 N           0.3148  -20.5541  -46.0608 N.am      14 UNK        -0.5000 
     80 CA          0.3180  -19.5253  -47.1040 C.3       14 UNK         0.1400 
     81 CB         -0.9631  -18.6877  -46.9716 C.3       14 UNK        -0.1800 
     82 C           0.4996  -20.0927  -48.5321 C.2       14 UNK         0.5000 
     83 O          -0.3058  -19.8135  -49.4238 O.2       14 UNK        -0.5000 
     84 N           1.5593  -20.8917  -48.7148 N.am      15 UNK        -0.5000 
     85 CA          2.0275  -21.5213  -49.9502 C.3       15 UNK         0.1400 
     86 CB          2.6452  -20.4570  -50.8803 C.3       15 UNK        -0.1800 
     87 C           0.9575  -22.3852  -50.6479 C.2       15 UNK         0.5000 
     88 O           0.8594  -22.3549  -51.8745 O.2       15 UNK        -0.5000 
     89 N           0.1665  -23.1245  -49.8539 N.am      16 UNK        -0.5000 
     90 CA         -0.9581  -23.9674  -50.2790 C.3       16 UNK         0.1400 
     91 CB         -0.4510  -25.2015  -51.0536 C.3       16 UNK        -0.1800 
     92 C          -2.0144  -23.1576  -51.0592 C.2       16 UNK         0.5000 
     93 O          -2.2630  -23.4187  -52.2376 O.2       16 UNK        -0.5000 
     94 N          -2.5737  -22.1494  -50.3786 N.am      17 UNK        -0.5000 
     95 CA         -3.5327  -21.1619  -50.8770 C.3       17 UNK         0.1400 
     96 CB         -4.8899  -21.8298  -51.1825 C.3       17 UNK        -0.1800 
     97 C          -2.9752  -20.3479  -52.0629 C.2       17 UNK         0.5000 
     98 O          -3.6611  -20.1789  -53.0712 O.2       17 UNK        -0.5000 
     99 N          -1.7170  -19.8977  -51.9292 N.am      18 UNK        -0.5000 
    100 CA        -0.9148  -19.2070  -52.9452 C.3       18 UNK         0.1400 
    101 CB        -1.4343  -17.7698  -53.1570 C.3       18 UNK        -0.1800 
    102 C         -0.8123  -20.0149  -54.2569 C.2       18 UNK         0.5000 
    103 O         -1.1657  -19.5140  -55.3246 O.2       18 UNK        -0.5000 
    104 N         -0.3856  -21.2808  -54.1361 N.am      19 UNK        -0.5000 
    105 CA        -0.3103  -22.3008  -55.1898 C.3       19 UNK         0.1400 
    106 CB         0.7909  -21.9451  -56.2098 C.3       19 UNK        -0.1800 
    107 C         -1.6756  -22.5907  -55.8539 C.2       19 UNK         0.5000 
    108 O         -1.7319  -22.9081  -57.0433 O.2       19 UNK        -0.5000 
    109 N         -2.7504  -22.4498  -55.0653 N.am      20 UNK        -0.5000 
    110 CA        -4.1658  -22.5479  -55.4285 C.3       20 UNK         0.1400 
    111 CB        -4.5269  -23.9975  -55.8115 C.3       20 UNK        -0.1800 
    112 C         -4.6242  -21.5202  -56.4883 C.2       20 UNK         0.5000 
    113 O         -5.6520  -21.7362  -57.1345 O.2       20 UNK        -0.5000 
    114 N         -3.8901  -20.4087  -56.6504 N.am      21 UNK        -0.5000 
    115 CA        -4.1640  -19.3471  -57.6244 C.3       21 UNK         0.1400 
    116 CB        -2.8484  -18.6276  -57.9704 C.3       21 UNK        -0.1800 
    117 C         -5.2639  -18.3767  -57.1407 C.2       21 UNK         0.5000 
    118 O         -5.0654  -17.1601  -57.1337 O.2       21 UNK        -0.5000 
    119 N         -6.4075  -18.9376  -56.7369 N.am      22 UNK        -0.5000 
    120 CA        -7.5788  -18.2140  -56.2185 C.3       22 UNK         0.1400 
    121 C         -8.5091  -17.6254  -57.3199 C.2       22 UNK         0.5000 
    122 N         -8.2955  -17.9079  -58.5996 N.am      22 UNK        -0.7600 
    123 O         -9.4395  -16.8870  -57.0081 O.2       22 UNK        -0.5000 
    124 C124       -8.3829  -19.0816  -55.2167 C.3       23 UNK        -0.0398 
    125 S125       -7.3820  -19.6192  -53.7876 S.3       23 UNK        -0.2404 
    126 C126       -7.7266  -18.2630  -52.6268 C.3       23 UNK        -0.0205 
    127 H127       -3.8188   -9.9085  -48.8994 H         1 UNK         0.0600 
    128 H128       -3.9372  -10.1619  -47.1546 H         1 UNK         0.0600 
    129 H129       -4.7788  -11.2479  -48.2644 H         1 UNK         0.0600 
    130 H130       -3.7458  -13.2176  -48.4427 H         1 UNK         0.3000 
    131 H131       -0.9077  -13.4380  -48.9487 H         1 UNK         0.0600 
    132 H132       -2.2070  -14.8218  -50.3123 H         1 UNK         0.0800 
    133 H133       -1.4306  -15.8996  -49.1965 H         1 UNK         0.0800 
    134 H134       -3.2115  -17.2892  -50.6468 H         1 UNK         0.0800 
    135 H135       -3.0726  -18.0739  -49.0939 H         1 UNK         0.0800 
    136 H136       -5.2870  -17.2881  -51.8940 H         1 UNK         0.1150 
    137 H137       -8.5334  -19.6802  -50.4578 H         1 UNK         0.1150 
    138 H138       -5.1450  -18.8932  -47.9350 H         1 UNK         0.1150 
    139 H139       -8.5917  -19.8023  -47.8040 H         1 UNK         0.0800 
    140 H140       -7.8264  -21.2406  -48.4292 H         1 UNK         0.0800 
    141 H141       -5.3528  -21.7243  -47.9232 H         1 UNK         0.0800 
    142 H142       -5.7775  -22.6484  -46.5029 H         1 UNK         0.0800 
    143 H143       -3.7620  -20.3500  -46.6440 H         1 UNK         0.0600 
    144 H144       -5.1243  -21.1833  -44.3797 H         1 UNK         0.3000 
    145 H145       -3.4924  -19.3326  -42.3072 H         1 UNK         0.0600 
    146 H146       -5.3021  -20.5349  -41.0830 H         1 UNK         0.0600 
    147 H147       -5.7864  -20.1635  -42.7240 H         1 UNK         0.0600 
    148 H148       -5.3104  -21.8077  -42.2958 H         1 UNK         0.0600 
    149 H149       -2.1688  -20.4465  -40.9667 H         1 UNK         0.3000 
    150 H150       -1.9107  -23.0147  -39.5154 H         1 UNK         0.0600 
    151 H151        0.1271  -24.3827  -40.1642 H         1 UNK         0.0600 
    152 H152       -1.3733  -24.9656  -40.8637 H         1 UNK         0.0600 
    153 H153       -0.2430  -24.0669  -41.8599 H         1 UNK         0.0600 
    154 H154        0.2141  -21.5682  -41.0509 H         1 UNK         0.3000 
    155 H155        0.3883  -19.0278  -38.6275 H         1 UNK         0.0600 
    156 H156        2.0363  -20.7181  -37.7591 H         1 UNK         0.0600 
    157 H157        2.8104  -19.4431  -38.6853 H         1 UNK         0.0600 
    158 H158        2.5681  -21.0327  -39.4081 H         1 UNK         0.0600 
    159 H159        1.8606  -19.2119  -40.9713 H         1 UNK         0.3000 
    160 H160        0.4387  -18.7841  -43.3940 H         1 UNK         0.0600 
    161 H161       -1.6603  -17.4979  -43.3707 H         1 UNK         0.0600 
    162 H162       -0.3925  -16.5677  -44.1488 H         1 UNK         0.0600 
    163 H163       -0.8886  -16.1749  -42.5021 H         1 UNK         0.0600 
    164 H164        2.3535  -17.7059  -43.2433 H         1 UNK         0.3000 
    165 H165        3.7096  -15.1648  -42.2020 H         1 UNK         0.0600 
    166 H166        5.1466  -15.6295  -40.1939 H         1 UNK         0.0600 
    167 H167        3.5590  -15.0345  -39.7429 H         1 UNK         0.0600 
    168 H168        3.9258  -16.7471  -39.5856 H         1 UNK         0.0600 
    169 H169        4.9849  -16.7258  -43.0975 H         1 UNK         0.3000 
    170 H170        6.4465  -19.1417  -42.6173 H         1 UNK         0.0600 
    171 H171        5.0234  -21.1554  -42.1287 H         1 UNK         0.0600 
    172 H172        4.1074  -20.8514  -43.6019 H         1 UNK         0.0600 
    173 H173        5.8135  -21.2600  -43.6911 H         1 UNK         0.0600 
    174 H174        6.4740  -18.5015  -44.7402 H         1 UNK         0.3000 
    175 H175        6.0145  -17.8415  -46.6741 H         1 UNK         0.0600 
    176 H176        4.7188  -18.2940  -48.7344 H         1 UNK         0.0600 
    177 H177        4.7796  -19.7030  -47.6841 H         1 UNK         0.0600 
    178 H178        3.3145  -18.7498  -47.7747 H         1 UNK         0.0600 
    179 H179        5.3492  -15.7595  -46.6403 H         1 UNK         0.3000 
    180 H180        4.0813  -13.9388  -46.2194 H         1 UNK         0.0600 
    181 H181        2.9100  -14.0899  -49.0563 H         1 UNK         0.0600 
    182 H182        4.6238  -14.0928  -48.6606 H         1 UNK         0.0600 
    183 H183        3.6548  -12.6675  -48.3254 H         1 UNK         0.0600 
    184 H184        1.4251  -13.4406  -47.2301 H         1 UNK         0.3000 
    185 H185       -0.4421  -14.0948  -44.4341 H         1 UNK         0.0600 
    186 H186        0.5698  -11.2404  -44.9146 H         1 UNK         0.0600 
    187 H187       -0.9540  -11.6775  -44.1413 H         1 UNK         0.0600 
    188 H188        0.5708  -12.0843  -43.3699 H         1 UNK         0.0600 
    189 H189       -0.6853  -12.2972  -46.7405 H         1 UNK         0.3000 
    190 H190       -3.3932  -23.3907  -44.8680 H         1 UNK         0.3000 
    191 H191       -1.9619  -24.8360  -46.8935 H         1 UNK         0.0600 
    192 H192       -3.1131  -25.9661  -45.0052 H         1 UNK         0.0600 
    193 H193       -1.4030  -26.3681  -45.0114 H         1 UNK         0.0600 
    194 H194       -2.0226  -25.2024  -43.8495 H         1 UNK         0.0600 
    195 H195       -0.9669  -22.7233  -44.2067 H         1 UNK         0.3000 
    196 H196        1.8969  -23.0607  -44.6048 H         1 UNK         0.0600 
    197 H197        1.9018  -20.9364  -43.0808 H         1 UNK         0.0600 
    198 H198        1.2986  -22.4313  -42.4008 H         1 UNK         0.0600 
    199 H199        0.1693  -21.1823  -42.9496 H         1 UNK         0.0600 
    200 H200       -0.5725  -20.6953  -45.5885 H         1 UNK         0.3000 
    201 H201        1.1618  -18.8632  -46.9086 H         1 UNK         0.0600 
    202 H202       -1.0664  -18.2725  -45.9692 H         1 UNK         0.0600 
    203 H203       -1.8508  -19.2794  -47.1864 H         1 UNK         0.0600 
    204 H204       -0.9503  -17.8492  -47.6679 H         1 UNK         0.0600 
    205 H205        2.1226  -21.0750  -47.8859 H         1 UNK         0.3000 
    206 H206        2.8242  -22.2079  -49.6612 H         1 UNK         0.0600 
    207 H207        1.9078  -19.7197  -51.1948 H         1 UNK         0.0600 
    208 H208        3.4550  -19.9245  -50.3824 H         1 UNK         0.0600 
    209 H209        3.0645  -20.9103  -51.7793 H         1 UNK         0.0600 
    210 H210        0.3086  -23.0601  -48.8546 H         1 UNK         0.3000 
    211 H211       -1.4434  -24.3247  -49.3697 H         1 UNK         0.0600 
    212 H212        0.0367  -24.9257  -51.9891 H         1 UNK         0.0600 
    213 H213       -1.2764  -25.8696  -51.3017 H         1 UNK         0.0600 
    214 H214        0.2624  -25.7725  -50.4595 H         1 UNK         0.0600 
    215 H215       -2.3028  -22.0357  -49.4029 H         1 UNK         0.3000 
    216 H216       -3.6830  -20.4574  -50.0605 H         1 UNK         0.0600 
    217 H217       -4.8156  -22.5482  -51.9988 H         1 UNK         0.0600 
    218 H218       -5.2790  -22.3532  -50.3099 H         1 UNK         0.0600 
    219 H219       -5.6328  -21.0870  -51.4725 H         1 UNK         0.0600 
    220 H220       -1.2393  -20.0674  -51.0460 H         1 UNK         0.3000 
    221 H221        0.0976  -19.1351  -52.5486 H         1 UNK         0.0600 
    222 H222       -2.4599  -17.7580  -53.5276 H         1 UNK         0.0600 
    223 H223       -1.4040  -17.2013  -52.2281 H         1 UNK         0.0600 
    224 H224       -0.8189  -17.2350  -53.8812 H         1 UNK         0.0600 
    225 H225       -0.0981  -21.6100  -53.2150 H         1 UNK         0.3000 
    226 H226       -0.0150  -23.2250  -54.6910 H         1 UNK         0.0600 
    227 H227        1.7417  -21.7550  -55.7120 H         1 UNK         0.0600 
    228 H228        0.9521  -22.7628  -56.9131 H         1 UNK         0.0600 
    229 H229        0.5328  -21.0596  -56.7915 H         1 UNK         0.0600 
    230 H230       -2.5791  -22.2167  -54.0938 H         1 UNK         0.3000 
    231 H231       -4.7213  -22.3022  -54.5227 H         1 UNK         0.0600 
    232 H232       -4.2098  -24.6985  -55.0392 H         1 UNK         0.0600 
    233 H233       -5.6045  -24.1156  -55.9307 H         1 UNK         0.0600 
    234 H234       -4.0595  -24.2965  -56.7501 H         1 UNK         0.0600 
    235 H235       -3.0798  -20.2703  -56.0563 H         1 UNK         0.3000 
    236 H236       -4.5295  -19.8082  -58.5442 H         1 UNK         0.0600 
    237 H237       -2.9941  -17.9186  -58.7861 H         1 UNK         0.0600 
    238 H238       -2.4594  -18.0696  -57.1182 H         1 UNK         0.0600 
    239 H239       -2.0812  -19.3347  -58.2867 H         1 UNK         0.0600 
    240 H240       -6.4781  -19.9487  -56.7786 H         1 UNK         0.3000 
    241 H241       -7.2114  -17.3479  -55.6648 H         1 UNK         0.0600 
    242 H242       -8.9018  -17.5161  -59.3035 H         1 UNK         0.3800 
    243 H243       -7.5364  -18.5118  -58.8712 H         1 UNK         0.3800 
    244 H244       -8.7671  -19.9727  -55.7158 H         1 UNK         0.0800 
    245 H245       -9.2583  -18.5435  -54.8485 H         1 UNK         0.0800 
    246 H246       -7.4363  -17.3143  -53.0808 H         1 UNK         0.0800 
    247 H247       -8.8006  -18.2026  -52.4439 H         1 UNK         0.0800 
@<TRIPOS>BOND
     1    1    2 1    
     2    1  127 1    
     3    1  128 1    
     4    1  129 1    
     5    2    3 2    
     6    2    4 am   BACKBONE|DICT|INTERRES
     7    4    5 1    
     8    4  130 1    
     9    5    6 1    
    10    5   65 1    
    11    5  131 1    
    12    6    7 1    
    13    6  132 1    
    14    6  133 1    
    15    7    8 1    
    16    8    9 1    
    17    8  134 1    
    18    8  135 1    
    19    9   10 ar   
    20    9   14 ar   
    21   10   11 ar   
    22   10  136 1    
    23   11   12 ar   
    24   11  126 1    
    25   12   13 ar   
    26   12  137 1    
    27   13   14 ar   
    28   13   15 1    
    29   14  138 1    
    30   15   16 1    
    31   15  139 1    
    32   15  140 1    
    33   16   17 1    
    34   17   18 1    
    35   17  141 1    
    36   17  142 1    
    37   18   19 1    
    38   18   67 1    
    39   18  143 1    
    40   19   20 am   BACKBONE|DICT|INTERRES
    41   19  144 1    
    42   20   21 2    
    43   20   22 1    
    44   22   23 1    
    45   22   24 1    
    46   22  145 1    
    47   23  146 1    
    48   23  147 1    
    49   23  148 1    
    50   24   25 am   BACKBONE|DICT|INTERRES
    51   24  149 1    
    52   25   26 2    
    53   25   27 1    
    54   27   28 1    
    55   27   29 1    
    56   27  150 1    
    57   28  151 1    
    58   28  152 1    
    59   28  153 1    
    60   29   30 am   BACKBONE|DICT|INTERRES
    61   29  154 1    
    62   30   31 2    
    63   30   32 1    
    64   32   33 1    
    65   32   34 1    
    66   32  155 1    
    67   33  156 1    
    68   33  157 1    
    69   33  158 1    
    70   34   35 am   BACKBONE|DICT|INTERRES
    71   34  159 1    
    72   35   36 2    
    73   35   37 1    
    74   37   38 1    
    75   37   39 1    
    76   37  160 1    
    77   38  161 1    
    78   38  162 1    
    79   38  163 1    
    80   39   40 am   BACKBONE|DICT|INTERRES
    81   39  164 1    
    82   40   41 2    
    83   40   42 1    
    84   42   43 1    
    85   42   44 1    
    86   42  165 1    
    87   43  166 1    
    88   43  167 1    
    89   43  168 1    
    90   44   45 am   BACKBONE|DICT|INTERRES
    91   44  169 1    
    92   45   46 2    
    93   45   47 1    
    94   47   48 1    
    95   47   49 1    
    96   47  170 1    
    97   48  171 1    
    98   48  172 1    
    99   48  173 1    
   100   49   50 am   BACKBONE|DICT|INTERRES
   101   49  174 1    
   102   50   51 2    
   103   50   52 1    
   104   52   53 1    
   105   52   54 1    
   106   52  175 1    
   107   53  176 1    
   108   53  177 1    
   109   53  178 1    
   110   54   55 am   BACKBONE|DICT|INTERRES
   111   54  179 1    
   112   55   56 2    
   113   55   57 1    
   114   57   58 1    
   115   57   59 1    
   116   57  180 1    
   117   58  181 1    
   118   58  182 1    
   119   58  183 1    
   120   59   60 am   BACKBONE|DICT|INTERRES
   121   59  184 1    
   122   60   61 2    
   123   60   62 1    
   124   62   63 1    
   125   62   64 1    
   126   62  185 1    
   127   63  186 1    
   128   63  187 1    
   129   63  188 1    
   130   64   65 am   BACKBONE|DICT|INTERRES
   131   64  189 1    
   132   65   66 2    
   133   67   68 2    
   134   67   69 am   BACKBONE|DICT|INTERRES
   135   69   70 1    
   136   69  190 1    
   137   70   71 1    
   138   70   72 1    
   139   70  191 1    
   140   71  192 1    
   141   71  193 1    
   142   71  194 1    
   143   72   73 2    
   144   72   74 am   BACKBONE|DICT|INTERRES
   145   74   75 1    
   146   74  195 1    
   147   75   76 1    
   148   75   77 1    
   149   75  196 1    
   150   76  197 1    
   151   76  198 1    
   152   76  199 1    
   153   77   78 2    
   154   77   79 am   BACKBONE|DICT|INTERRES
   155   79   80 1    
   156   79  200 1    
   157   80   81 1    
   158   80   82 1    
   159   80  201 1    
   160   81  202 1    
   161   81  203 1    
   162   81  204 1    
   163   82   83 2    
   164   82   84 am   BACKBONE|DICT|INTERRES
   165   84   85 1    
   166   84  205 1    
   167   85   86 1    
   168   85   87 1    
   169   85  206 1    
   170   86  207 1    
   171   86  208 1    
   172   86  209 1    
   173   87   88 2    
   174   87   89 am   BACKBONE|DICT|INTERRES
   175   89   90 1    
   176   89  210 1    
   177   90   91 1    
   178   90   92 1    
   179   90  211 1    
   180   91  212 1    
   181   91  213 1    
   182   91  214 1    
   183   92   93 2    
   184   92   94 am   BACKBONE|DICT|INTERRES
   185   94   95 1    
   186   94  215 1    
   187   95   96 1    
   188   95   97 1    
   189   95  216 1    
   190   96  217 1    
   191   96  218 1    
   192   96  219 1    
   193   97   98 2    
   194   97   99 am   BACKBONE|DICT|INTERRES
   195   99  100 1    
   196   99  220 1    
   197  100  101 1    
   198  100  102 1    
   199  100  221 1    
   200  101  222 1    
   201  101  223 1    
   202  101  224 1    
   203  102  103 2    
   204  102  104 am   BACKBONE|DICT|INTERRES
   205  104  105 1    
   206  104  225 1    
   207  105  106 1    
   208  105  107 1    
   209  105  226 1    
   210  106  227 1    
   211  106  228 1    
   212  106  229 1    
   213  107  108 2    
   214  107  109 am   BACKBONE|DICT|INTERRES
   215  109  110 1    
   216  109  230 1    
   217  110  111 1    
   218  110  112 1    
   219  110  231 1    
   220  111  232 1    
   221  111  233 1    
   222  111  234 1    
   223  112  113 2    
   224  112  114 am   BACKBONE|DICT|INTERRES
   225  114  115 1    
   226  114  235 1    
   227  115  116 1    
   228  115  117 1    
   229  115  236 1    
   230  116  237 1    
   231  116  238 1    
   232  116  239 1    
   233  117  118 2    
   234  117  119 am   BACKBONE|DICT|INTERRES
   235  119  120 1    
   236  119  240 1    
   237  120  121 1    
   238  120  124 1    
   239  120  241 1    
   240  121  122 am   BACKBONE|DICT|INTERRES
   241  121  123 2    
   242  122  242 1    
   243  122  243 1    
   244  124  125 1    
   245  124  244 1    
   246  124  245 1    
   247  125  126 1    
   248  126  246 1    
   249  126  247 1    
@<TRIPOS>SUBSTRUCTURE
     1 UNK         1 GROUP             0       ****    0 ROOT    
