@<TRIPOS>MOLECULE
3R540
247   249    1
SMALL
USER_CHARGES


@<TRIPOS>ATOM
      1 CA         -5.5795  -14.8778  -52.9654 C.3       0 UNK        -0.1800 
      2 C          -4.4525  -14.6342  -51.9720 C.2       0 UNK         0.5000 
      3 O          -4.2294  -13.4950  -51.5618 O.2       0 UNK        -0.5000 
      4 N          -3.7508  -15.6994  -51.5697 N.am      1 UNK        -0.5000 
      5 CA         -2.5923  -15.6682  -50.6698 C.3       1 UNK         0.1400 
      6 C6         -1.7026  -16.9190  -50.8427 C.3       23 UNK        -0.0398 
      7 S7         -2.4553  -18.4733  -50.2458 S.3       23 UNK        -0.2404 
      8 C8         -1.4320  -18.8022  -48.7805 C.3       23 UNK        -0.0205 
      9 C9         -0.0556  -19.3170  -49.1698 C.ar      23 UNK        -0.0193 
     10 C10         1.0706  -18.4966  -49.0592 C.ar      23 UNK        -0.1150 
     11 C11         2.3290  -18.9634  -49.4509 C.ar      23 UNK        -0.0193 
     12 C12         2.4557  -20.2658  -49.9448 C.ar      23 UNK        -0.1150 
     13 C13         1.3417  -21.1085  -50.0247 C.ar      23 UNK        -0.0193 
     14 C14         0.0891  -20.6220  -49.6443 C.ar      23 UNK        -0.1150 
     15 C15         1.4697  -22.5455  -50.5181 C.3       23 UNK        -0.0205 
     16 S16         2.7766  -23.5193  -49.6893 S.3       23 UNK        -0.2404 
     17 C17         2.5555  -23.1472  -47.9149 C.3       23 UNK        -0.0398 
     18 CA          1.5489  -24.0758  -47.1900 C.3       11 UNK         0.1400 
     19 N           1.9058  -24.2482  -45.7808 N.am      11 UNK        -0.5000 
     20 C           1.4053  -25.1840  -44.9646 C.2       10 UNK         0.5000 
     21 O           0.6226  -26.0628  -45.3272 O.2       10 UNK        -0.5000 
     22 CA          1.8302  -25.0972  -43.4856 C.3       10 UNK         0.1400 
     23 CB          3.1513  -25.8470  -43.2586 C.3       10 UNK        -0.1800 
     24 N           1.9689  -23.7167  -43.0098 N.am      10 UNK        -0.5000 
     25 C           0.9386  -22.8756  -42.8448 C.2       9 UNK         0.5000 
     26 O          -0.2304  -23.1827  -43.0703 O.2       9 UNK        -0.5000 
     27 CA          1.2626  -21.4408  -42.3854 C.3       9 UNK         0.1400 
     28 CB          1.4350  -21.3994  -40.8592 C.3       9 UNK        -0.1800 
     29 N           2.4304  -20.8197  -43.0208 N.am      9 UNK        -0.5000 
     30 C           2.6746  -20.7548  -44.3380 C.2       8 UNK         0.5000 
     31 O           2.0067  -21.3398  -45.1903 O.2       8 UNK        -0.5000 
     32 CA          3.8325  -19.8417  -44.7623 C.3       8 UNK         0.1400 
     33 CB          4.0781  -19.8443  -46.2800 C.3       8 UNK        -0.1800 
     34 N           3.5158  -18.4904  -44.3174 N.am      8 UNK        -0.5000 
     35 C           4.3973  -17.5992  -43.8473 C.2       7 UNK         0.5000 
     36 O           5.6148  -17.7846  -43.8345 O.2       7 UNK        -0.5000 
     37 CA          3.8270  -16.2875  -43.2625 C.3       7 UNK         0.1400 
     38 CB          3.8740  -15.1721  -44.3177 C.3       7 UNK        -0.1800 
     39 N           2.4547  -16.4131  -42.7612 N.am      7 UNK        -0.5000 
     40 C           2.0604  -17.2547  -41.7930 C.2       6 UNK         0.5000 
     41 O           2.8419  -17.9277  -41.1199 O.2       6 UNK        -0.5000 
     42 CA          0.5447  -17.4217  -41.5587 C.3       6 UNK         0.1400 
     43 CB          0.1210  -16.7174  -40.2610 C.3       6 UNK        -0.1800 
     44 N          -0.3166  -16.9566  -42.6489 N.am      6 UNK        -0.5000 
     45 C          -0.2934  -17.3607  -43.9278 C.2       5 UNK         0.5000 
     46 O           0.5165  -18.1730  -44.3745 O.2       5 UNK        -0.5000 
     47 CA         -1.3326  -16.7182  -44.8729 C.3       5 UNK         0.1400 
     48 CB         -2.5799  -16.1938  -44.1322 C.3       5 UNK        -0.1800 
     49 N          -0.7900  -15.6587  -45.7333 N.am      5 UNK        -0.5000 
     50 C           0.0696  -14.6765  -45.4115 C.2       4 UNK         0.5000 
     51 O           0.5911  -14.5341  -44.3049 O.2       4 UNK        -0.5000 
     52 CA          0.3755  -13.6576  -46.5200 C.3       4 UNK         0.1400 
     53 CB          1.1740  -14.3030  -47.6668 C.3       4 UNK        -0.1800 
     54 N          -0.8681  -13.0944  -47.0428 N.am      4 UNK        -0.5000 
     55 C          -1.4422  -11.9638  -46.6070 C.2       3 UNK         0.5000 
     56 O          -0.9423  -11.2288  -45.7546 O.2       3 UNK        -0.5000 
     57 CA         -2.8040  -11.5777  -47.2246 C.3       3 UNK         0.1400 
     58 CB         -2.6029  -10.6195  -48.4085 C.3       3 UNK        -0.1800 
     59 N          -3.5792  -12.7325  -47.6787 N.am      3 UNK        -0.5000 
     60 C          -4.1533  -13.6337  -46.8694 C.2       2 UNK         0.5000 
     61 O          -4.2067  -13.5087  -45.6462 O.2       2 UNK        -0.5000 
     62 CA         -4.7445  -14.9004  -47.5275 C.3       2 UNK         0.1400 
     63 CB         -6.2750  -14.8028  -47.6091 C.3       2 UNK        -0.1800 
     64 N          -4.2210  -15.1987  -48.8641 N.am      2 UNK        -0.5000 
     65 C          -2.9359  -15.4014  -49.1866 C.2       1 UNK         0.5000 
     66 O          -2.0241  -15.3674  -48.3583 O.2       1 UNK        -0.5000 
     67 C           0.1086  -23.5442  -47.3062 C.2       11 UNK         0.5000 
     68 O          -0.6868  -24.0771  -48.0797 O.2       11 UNK        -0.5000 
     69 N          -0.2097  -22.5280  -46.4928 N.am      12 UNK        -0.5000 
     70 CA         -1.5233  -21.8996  -46.4175 C.3       12 UNK         0.1400 
     71 CB         -1.4471  -20.6417  -45.5444 C.3       12 UNK        -0.1800 
     72 C          -2.6267  -22.8487  -45.9328 C.2       12 UNK         0.5000 
     73 O          -3.7316  -22.7885  -46.4668 O.2       12 UNK        -0.5000 
     74 N          -2.3069  -23.7316  -44.9774 N.am      13 UNK        -0.5000 
     75 CA         -3.1949  -24.7908  -44.4984 C.3       13 UNK         0.1400 
     76 CB         -2.5675  -25.4796  -43.2772 C.3       13 UNK        -0.1800 
     77 C          -3.5305  -25.8218  -45.5913 C.2       13 UNK         0.5000 
     78 O          -4.6894  -26.2199  -45.7097 O.2       13 UNK        -0.5000 
     79 N          -2.5245  -26.2069  -46.3900 N.am      14 UNK        -0.5000 
     80 CA         -2.6759  -27.1152  -47.5286 C.3       14 UNK         0.1400 
     81 CB         -1.2898  -27.5815  -47.9997 C.3       14 UNK        -0.1800 
     82 C          -3.4685  -26.4799  -48.6871 C.2       14 UNK         0.5000 
     83 O          -4.3087  -27.1474  -49.2909 O.2       14 UNK        -0.5000 
     84 N          -3.2047  -25.1947  -48.9557 N.am      15 UNK        -0.5000 
     85 CA         -3.8837  -24.3884  -49.9719 C.3       15 UNK         0.1400 
     86 CB         -3.0048  -23.1667  -50.2836 C.3       15 UNK        -0.1800 
     87 C          -5.2929  -23.9172  -49.5601 C.2       15 UNK         0.5000 
     88 O          -6.0146  -23.3857  -50.4047 O.2       15 UNK        -0.5000 
     89 N          -5.6281  -24.0349  -48.2659 N.am      16 UNK        -0.5000 
     90 CA         -6.8130  -23.4866  -47.5889 C.3       16 UNK         0.1400 
     91 CB         -8.0868  -24.2196  -48.0564 C.3       16 UNK        -0.1800 
     92 C          -6.9295  -21.9483  -47.7199 C.2       16 UNK         0.5000 
     93 O          -8.0357  -21.4072  -47.6907 O.2       16 UNK        -0.5000 
     94 N          -5.7772  -21.2864  -47.9141 N.am      17 UNK        -0.5000 
     95 CA         -5.5746  -19.8777  -48.2752 C.3       17 UNK         0.1400 
     96 CB         -5.9141  -18.9640  -47.0816 C.3       17 UNK        -0.1800 
     97 C          -6.2834  -19.4375  -49.5812 C.2       17 UNK         0.5000 
     98 O          -6.4582  -18.2377  -49.8000 O.2       17 UNK        -0.5000 
     99 N          -6.6861  -20.4021  -50.4222 N.am      18 UNK        -0.5000 
    100 CA        -7.4803  -20.1788  -51.6315 C.3       18 UNK         0.1400 
    101 CB        -8.4842  -21.3340  -51.7754 C.3       18 UNK        -0.1800 
    102 C         -6.6182  -20.0548  -52.8999 C.2       18 UNK         0.5000 
    103 O         -7.1286  -19.6155  -53.9319 O.2       18 UNK        -0.5000 
    104 N         -5.3404  -20.4477  -52.8160 N.am      19 UNK        -0.5000 
    105 CA        -4.3550  -20.3033  -53.8866 C.3       19 UNK         0.1400 
    106 CB        -3.1091  -21.1311  -53.5326 C.3       19 UNK        -0.1800 
    107 C         -3.9644  -18.8312  -54.1018 C.2       19 UNK         0.5000 
    108 O         -4.0700  -18.0254  -53.1754 O.2       19 UNK        -0.5000 
    109 N         -3.4779  -18.5136  -55.3083 N.am      20 UNK        -0.5000 
    110 CA        -2.8810  -17.2132  -55.6188 C.3       20 UNK         0.1400 
    111 CB        -2.7288  -17.0583  -57.1399 C.3       20 UNK        -0.1800 
    112 C         -1.5303  -17.0390  -54.9012 C.2       20 UNK         0.5000 
    113 O         -1.3271  -16.0147  -54.2506 O.2       20 UNK        -0.5000 
    114 N         -0.6806  -18.0764  -55.0075 N.am      21 UNK        -0.5000 
    115 CA         0.6229  -18.3020  -54.3667 C.3       21 UNK         0.1400 
    116 CB         0.4477  -19.2687  -53.1751 C.3       21 UNK        -0.1800 
    117 C          1.4203  -17.0216  -54.0327 C.2       21 UNK         0.5000 
    118 O          1.8947  -16.3512  -54.9516 O.2       21 UNK        -0.5000 
    119 N          1.5452  -16.7092  -52.7384 N.am      22 UNK        -0.5000 
    120 CA         2.2482  -15.5287  -52.2111 C.3       22 UNK         0.1400 
    121 C          1.4120  -14.2128  -52.2115 C.2       22 UNK         0.5000 
    122 N          0.1935  -14.1774  -52.7351 N.am      22 UNK        -0.7600 
    123 O          1.8851  -13.1868  -51.7310 O.2       22 UNK        -0.5000 
    124 C124        2.8518  -15.8093  -50.8116 C.3       23 UNK        -0.0398 
    125 S125        4.0131  -17.2181  -50.8215 S.3       23 UNK        -0.2404 
    126 C126        3.5636  -18.0876  -49.2896 C.3       23 UNK        -0.0205 
    127 H127       -6.4930  -14.3893  -52.6265 H         1 UNK         0.0600 
    128 H128       -5.3133  -14.4706  -53.9406 H         1 UNK         0.0600 
    129 H129       -5.7905  -15.9408  -53.0845 H         1 UNK         0.0600 
    130 H130       -3.9590  -16.6117  -51.9751 H         1 UNK         0.3000 
    131 H131       -1.9842  -14.8156  -50.9779 H         1 UNK         0.0600 
    132 H132       -1.4751  -17.0498  -51.8978 H         1 UNK         0.0800 
    133 H133       -0.7392  -16.7569  -50.3595 H         1 UNK         0.0800 
    134 H134       -1.9459  -19.5380  -48.1680 H         1 UNK         0.0800 
    135 H135       -1.3528  -17.9058  -48.1656 H         1 UNK         0.0800 
    136 H136        0.9668  -17.4976  -48.6619 H         1 UNK         0.1150 
    137 H137        3.4278  -20.6342  -50.2404 H         1 UNK         0.1150 
    138 H138       -0.7806  -21.2580  -49.7204 H         1 UNK         0.1150 
    139 H139        0.5243  -23.0764  -50.3978 H         1 UNK         0.0800 
    140 H140        1.6725  -22.5280  -51.5895 H         1 UNK         0.0800 
    141 H141        2.3243  -22.0927  -47.7606 H         1 UNK         0.0800 
    142 H142        3.5448  -23.2776  -47.4743 H         1 UNK         0.0800 
    143 H143        1.5817  -25.0630  -47.6565 H         1 UNK         0.0600 
    144 H144        2.4583  -23.5069  -45.3720 H         1 UNK         0.3000 
    145 H145        1.0556  -25.5862  -42.8908 H         1 UNK         0.0600 
    146 H146        3.4204  -25.8605  -42.2023 H         1 UNK         0.0600 
    147 H147        3.0720  -26.8846  -43.5860 H         1 UNK         0.0600 
    148 H148        3.9745  -25.3907  -43.8098 H         1 UNK         0.0600 
    149 H149        2.9018  -23.3875  -42.8090 H         1 UNK         0.3000 
    150 H150        0.4026  -20.8199  -42.6432 H         1 UNK         0.0600 
    151 H151        0.5617  -21.8160  -40.3554 H         1 UNK         0.0600 
    152 H152        1.5595  -20.3792  -40.4978 H         1 UNK         0.0600 
    153 H153        2.3046  -21.9741  -40.5380 H         1 UNK         0.0600 
    154 H154        3.0299  -20.2858  -42.4069 H         1 UNK         0.3000 
    155 H155        4.7316  -20.2043  -44.2599 H         1 UNK         0.0600 
    156 H156        3.1859  -19.5280  -46.8199 H         1 UNK         0.0600 
    157 H157        4.3432  -20.8409  -46.6338 H         1 UNK         0.0600 
    158 H158        4.8937  -19.1737  -46.5497 H         1 UNK         0.0600 
    159 H159        2.5233  -18.2693  -44.2846 H         1 UNK         0.3000 
    160 H160        4.4615  -15.9968  -42.4231 H         1 UNK         0.0600 
    161 H161        3.5248  -14.2241  -43.9079 H         1 UNK         0.0600 
    162 H162        3.2533  -15.4138  -45.1809 H         1 UNK         0.0600 
    163 H163        4.8917  -15.0162  -44.6779 H         1 UNK         0.0600 
    164 H164        1.7440  -15.8816  -43.2543 H         1 UNK         0.3000 
    165 H165        0.3579  -18.4901  -41.4422 H         1 UNK         0.0600 
    166 H166       -0.9245  -16.9171  -40.0254 H         1 UNK         0.0600 
    167 H167        0.7142  -17.0649  -39.4139 H         1 UNK         0.0600 
    168 H168        0.2505  -15.6366  -40.3315 H         1 UNK         0.0600 
    169 H169       -0.9878  -16.2443  -42.4020 H         1 UNK         0.3000 
    170 H170       -1.6617  -17.5157  -45.5402 H         1 UNK         0.0600 
    171 H171       -2.9804  -16.9404  -43.4449 H         1 UNK         0.0600 
    172 H172       -2.3694  -15.2874  -43.5633 H         1 UNK         0.0600 
    173 H173       -3.3760  -15.9592  -44.8358 H         1 UNK         0.0600 
    174 H174       -1.1520  -15.6552  -46.6828 H         1 UNK         0.3000 
    175 H175        0.9927  -12.8654  -46.0907 H         1 UNK         0.0600 
    176 H176        0.6162  -15.0995  -48.1585 H         1 UNK         0.0600 
    177 H177        1.4341  -13.5653  -48.4263 H         1 UNK         0.0600 
    178 H178        2.1064  -14.7341  -47.3009 H         1 UNK         0.0600 
    179 H179       -1.3785  -13.6812  -47.6940 H         1 UNK         0.3000 
    180 H180       -3.3807  -11.0571  -46.4572 H         1 UNK         0.0600 
    181 H181       -2.0457  -11.0920  -49.2185 H         1 UNK         0.0600 
    182 H182       -2.0485   -9.7313  -48.1026 H         1 UNK         0.0600 
    183 H183       -3.5587  -10.2824  -48.8102 H         1 UNK         0.0600 
    184 H184       -3.6060  -12.9010  -48.6743 H         1 UNK         0.3000 
    185 H185       -4.4895  -15.7460  -46.8875 H         1 UNK         0.0600 
    186 H186       -6.7097  -14.6286  -46.6239 H         1 UNK         0.0600 
    187 H187       -6.5902  -13.9844  -48.2577 H         1 UNK         0.0600 
    188 H188       -6.7103  -15.7245  -47.9964 H         1 UNK         0.0600 
    189 H189       -4.8991  -15.2586  -49.6099 H         1 UNK         0.3000 
    190 H190        0.5223  -22.1280  -45.9090 H         1 UNK         0.3000 
    191 H191       -1.7906  -21.6029  -47.4306 H         1 UNK         0.0600 
    192 H192       -1.1654  -20.8794  -44.5188 H         1 UNK         0.0600 
    193 H193       -2.4071  -20.1250  -45.5136 H         1 UNK         0.0600 
    194 H194       -0.7097  -19.9432  -45.9395 H         1 UNK         0.0600 
    195 H195       -1.4012  -23.6561  -44.5231 H         1 UNK         0.3000 
    196 H196       -4.1308  -24.3250  -44.1827 H         1 UNK         0.0600 
    197 H197       -3.2085  -26.2805  -42.9065 H         1 UNK         0.0600 
    198 H198       -2.4242  -24.7742  -42.4586 H         1 UNK         0.0600 
    199 H199       -1.5973  -25.9169  -43.5155 H         1 UNK         0.0600 
    200 H200       -1.5983  -25.8343  -46.2246 H         1 UNK         0.3000 
    201 H201       -3.2293  -27.9935  -47.1894 H         1 UNK         0.0600 
    202 H202       -0.6762  -26.7487  -48.3438 H         1 UNK         0.0600 
    203 H203       -0.7493  -28.0828  -47.1965 H         1 UNK         0.0600 
    204 H204       -1.3761  -28.2886  -48.8256 H         1 UNK         0.0600 
    205 H205       -2.4395  -24.7452  -48.4589 H         1 UNK         0.3000 
    206 H206       -3.9878  -24.9819  -50.8823 H         1 UNK         0.0600 
    207 H207       -2.8416  -22.5559  -49.3958 H         1 UNK         0.0600 
    208 H208       -2.0304  -23.4675  -50.6688 H         1 UNK         0.0600 
    209 H209       -3.4700  -22.5292  -51.0341 H         1 UNK         0.0600 
    210 H210       -4.9287  -24.4241  -47.6473 H         1 UNK         0.3000 
    211 H211       -6.6781  -23.6928  -46.5262 H         1 UNK         0.0600 
    212 H212       -8.3206  -23.9999  -49.0986 H         1 UNK         0.0600 
    213 H213       -8.9502  -23.9254  -47.4587 H         1 UNK         0.0600 
    214 H214       -7.9779  -25.2996  -47.9571 H         1 UNK         0.0600 
    215 H215       -4.9319  -21.8371  -47.8068 H         1 UNK         0.3000 
    216 H216       -4.5071  -19.7755  -48.4694 H         1 UNK         0.0600 
    217 H217       -6.9816  -18.9716  -46.8597 H         1 UNK         0.0600 
    218 H218       -5.6280  -17.9322  -47.2852 H         1 UNK         0.0600 
    219 H219       -5.3807  -19.2748  -46.1833 H         1 UNK         0.0600 
    220 H220       -6.4979  -21.3713  -50.1888 H         1 UNK         0.3000 
    221 H221       -8.0491  -19.2521  -51.5313 H         1 UNK         0.0600 
    222 H222       -7.9809  -22.2896  -51.9261 H         1 UNK         0.0600 
    223 H223       -9.1125  -21.4231  -50.8888 H         1 UNK         0.0600 
    224 H224       -9.1454  -21.1740  -52.6280 H         1 UNK         0.0600 
    225 H225       -4.9974  -20.7501  -51.9176 H         1 UNK         0.3000 
    226 H226       -4.7869  -20.6915  -54.8113 H         1 UNK         0.0600 
    227 H227       -3.3572  -22.1857  -53.4131 H         1 UNK         0.0600 
    228 H228       -2.3572  -21.0663  -54.3199 H         1 UNK         0.0600 
    229 H229       -2.6432  -20.7830  -52.6093 H         1 UNK         0.0600 
    230 H230       -3.4346  -19.2209  -56.0275 H         1 UNK         0.3000 
    231 H231       -3.5539  -16.4287  -55.2646 H         1 UNK         0.0600 
    232 H232       -3.6970  -17.1091  -57.6384 H         1 UNK         0.0600 
    233 H233       -2.0909  -17.8324  -57.5677 H         1 UNK         0.0600 
    234 H234       -2.2862  -16.0930  -57.3896 H         1 UNK         0.0600 
    235 H235       -0.9837  -18.8356  -55.5989 H         1 UNK         0.3000 
    236 H236        1.2287  -18.8264  -55.1071 H         1 UNK         0.0600 
    237 H237        1.4001  -19.4708  -52.6832 H         1 UNK         0.0600 
    238 H238       -0.2406  -18.8848  -52.4248 H         1 UNK         0.0600 
    239 H239        0.0563  -20.2297  -53.5085 H         1 UNK         0.0600 
    240 H240        1.1436  -17.3292  -52.0519 H         1 UNK         0.3000 
    241 H241        3.0879  -15.3227  -52.8775 H         1 UNK         0.0600 
    242 H242       -0.2131  -14.9774  -53.2158 H         1 UNK         0.3800 
    243 H243       -0.3076  -13.3044  -52.7322 H         1 UNK         0.3800 
    244 H244        2.0546  -15.9847  -50.0903 H         1 UNK         0.0800 
    245 H245        3.4034  -14.9412  -50.4467 H         1 UNK         0.0800 
    246 H246        4.4085  -18.7113  -48.9951 H         1 UNK         0.0800 
    247 H247        3.4250  -17.3688  -48.4803 H         1 UNK         0.0800 
@<TRIPOS>BOND
     1    1    2 1    
     2    1  127 1    
     3    1  128 1    
     4    1  129 1    
     5    2    3 2    
     6    2    4 am   BACKBONE|DICT|INTERRES
     7    4    5 1    
     8    4  130 1    
     9    5    6 1    
    10    5   65 1    
    11    5  131 1    
    12    6    7 1    
    13    6  132 1    
    14    6  133 1    
    15    7    8 1    
    16    8    9 1    
    17    8  134 1    
    18    8  135 1    
    19    9   10 ar   
    20    9   14 ar   
    21   10   11 ar   
    22   10  136 1    
    23   11   12 ar   
    24   11  126 1    
    25   12   13 ar   
    26   12  137 1    
    27   13   14 ar   
    28   13   15 1    
    29   14  138 1    
    30   15   16 1    
    31   15  139 1    
    32   15  140 1    
    33   16   17 1    
    34   17   18 1    
    35   17  141 1    
    36   17  142 1    
    37   18   19 1    
    38   18   67 1    
    39   18  143 1    
    40   19   20 am   BACKBONE|DICT|INTERRES
    41   19  144 1    
    42   20   21 2    
    43   20   22 1    
    44   22   23 1    
    45   22   24 1    
    46   22  145 1    
    47   23  146 1    
    48   23  147 1    
    49   23  148 1    
    50   24   25 am   BACKBONE|DICT|INTERRES
    51   24  149 1    
    52   25   26 2    
    53   25   27 1    
    54   27   28 1    
    55   27   29 1    
    56   27  150 1    
    57   28  151 1    
    58   28  152 1    
    59   28  153 1    
    60   29   30 am   BACKBONE|DICT|INTERRES
    61   29  154 1    
    62   30   31 2    
    63   30   32 1    
    64   32   33 1    
    65   32   34 1    
    66   32  155 1    
    67   33  156 1    
    68   33  157 1    
    69   33  158 1    
    70   34   35 am   BACKBONE|DICT|INTERRES
    71   34  159 1    
    72   35   36 2    
    73   35   37 1    
    74   37   38 1    
    75   37   39 1    
    76   37  160 1    
    77   38  161 1    
    78   38  162 1    
    79   38  163 1    
    80   39   40 am   BACKBONE|DICT|INTERRES
    81   39  164 1    
    82   40   41 2    
    83   40   42 1    
    84   42   43 1    
    85   42   44 1    
    86   42  165 1    
    87   43  166 1    
    88   43  167 1    
    89   43  168 1    
    90   44   45 am   BACKBONE|DICT|INTERRES
    91   44  169 1    
    92   45   46 2    
    93   45   47 1    
    94   47   48 1    
    95   47   49 1    
    96   47  170 1    
    97   48  171 1    
    98   48  172 1    
    99   48  173 1    
   100   49   50 am   BACKBONE|DICT|INTERRES
   101   49  174 1    
   102   50   51 2    
   103   50   52 1    
   104   52   53 1    
   105   52   54 1    
   106   52  175 1    
   107   53  176 1    
   108   53  177 1    
   109   53  178 1    
   110   54   55 am   BACKBONE|DICT|INTERRES
   111   54  179 1    
   112   55   56 2    
   113   55   57 1    
   114   57   58 1    
   115   57   59 1    
   116   57  180 1    
   117   58  181 1    
   118   58  182 1    
   119   58  183 1    
   120   59   60 am   BACKBONE|DICT|INTERRES
   121   59  184 1    
   122   60   61 2    
   123   60   62 1    
   124   62   63 1    
   125   62   64 1    
   126   62  185 1    
   127   63  186 1    
   128   63  187 1    
   129   63  188 1    
   130   64   65 am   BACKBONE|DICT|INTERRES
   131   64  189 1    
   132   65   66 2    
   133   67   68 2    
   134   67   69 am   BACKBONE|DICT|INTERRES
   135   69   70 1    
   136   69  190 1    
   137   70   71 1    
   138   70   72 1    
   139   70  191 1    
   140   71  192 1    
   141   71  193 1    
   142   71  194 1    
   143   72   73 2    
   144   72   74 am   BACKBONE|DICT|INTERRES
   145   74   75 1    
   146   74  195 1    
   147   75   76 1    
   148   75   77 1    
   149   75  196 1    
   150   76  197 1    
   151   76  198 1    
   152   76  199 1    
   153   77   78 2    
   154   77   79 am   BACKBONE|DICT|INTERRES
   155   79   80 1    
   156   79  200 1    
   157   80   81 1    
   158   80   82 1    
   159   80  201 1    
   160   81  202 1    
   161   81  203 1    
   162   81  204 1    
   163   82   83 2    
   164   82   84 am   BACKBONE|DICT|INTERRES
   165   84   85 1    
   166   84  205 1    
   167   85   86 1    
   168   85   87 1    
   169   85  206 1    
   170   86  207 1    
   171   86  208 1    
   172   86  209 1    
   173   87   88 2    
   174   87   89 am   BACKBONE|DICT|INTERRES
   175   89   90 1    
   176   89  210 1    
   177   90   91 1    
   178   90   92 1    
   179   90  211 1    
   180   91  212 1    
   181   91  213 1    
   182   91  214 1    
   183   92   93 2    
   184   92   94 am   BACKBONE|DICT|INTERRES
   185   94   95 1    
   186   94  215 1    
   187   95   96 1    
   188   95   97 1    
   189   95  216 1    
   190   96  217 1    
   191   96  218 1    
   192   96  219 1    
   193   97   98 2    
   194   97   99 am   BACKBONE|DICT|INTERRES
   195   99  100 1    
   196   99  220 1    
   197  100  101 1    
   198  100  102 1    
   199  100  221 1    
   200  101  222 1    
   201  101  223 1    
   202  101  224 1    
   203  102  103 2    
   204  102  104 am   BACKBONE|DICT|INTERRES
   205  104  105 1    
   206  104  225 1    
   207  105  106 1    
   208  105  107 1    
   209  105  226 1    
   210  106  227 1    
   211  106  228 1    
   212  106  229 1    
   213  107  108 2    
   214  107  109 am   BACKBONE|DICT|INTERRES
   215  109  110 1    
   216  109  230 1    
   217  110  111 1    
   218  110  112 1    
   219  110  231 1    
   220  111  232 1    
   221  111  233 1    
   222  111  234 1    
   223  112  113 2    
   224  112  114 am   BACKBONE|DICT|INTERRES
   225  114  115 1    
   226  114  235 1    
   227  115  116 1    
   228  115  117 1    
   229  115  236 1    
   230  116  237 1    
   231  116  238 1    
   232  116  239 1    
   233  117  118 2    
   234  117  119 am   BACKBONE|DICT|INTERRES
   235  119  120 1    
   236  119  240 1    
   237  120  121 1    
   238  120  124 1    
   239  120  241 1    
   240  121  122 am   BACKBONE|DICT|INTERRES
   241  121  123 2    
   242  122  242 1    
   243  122  243 1    
   244  124  125 1    
   245  124  244 1    
   246  124  245 1    
   247  125  126 1    
   248  126  246 1    
   249  126  247 1    
@<TRIPOS>SUBSTRUCTURE
     1 UNK         1 GROUP             0       ****    0 ROOT    
