@<TRIPOS>MOLECULE
3R540
247   249    1
SMALL
USER_CHARGES


@<TRIPOS>ATOM
      1 CA          3.6624  -10.2179  -50.7514 C.3       0 UNK        -0.1800 
      2 C           2.6420  -11.3009  -50.4303 C.2       0 UNK         0.5000 
      3 O           1.5275  -11.2609  -50.9511 O.2       0 UNK        -0.5000 
      4 N           3.0236  -12.2596  -49.5736 N.am      1 UNK        -0.5000 
      5 CA          2.2148  -13.4071  -49.1270 C.3       1 UNK         0.1400 
      6 C6          1.8766  -14.4259  -50.2555 C.3       23 UNK        -0.0398 
      7 S7          3.3430  -14.9049  -51.2371 S.3       23 UNK        -0.2404 
      8 C8          4.0796  -16.2440  -50.2339 C.3       23 UNK        -0.0205 
      9 C9          3.7153  -17.6685  -50.6551 C.ar      23 UNK        -0.0193 
     10 C10         3.2766  -17.9845  -51.9487 C.ar      23 UNK        -0.1150 
     11 C11         2.9850  -19.3050  -52.3029 C.ar      23 UNK        -0.0193 
     12 C12         3.1532  -20.3223  -51.3589 C.ar      23 UNK        -0.1150 
     13 C13         3.6105  -20.0302  -50.0714 C.ar      23 UNK        -0.0193 
     14 C14         3.8873  -18.7030  -49.7285 C.ar      23 UNK        -0.1150 
     15 C15         3.8485  -21.1544  -49.0694 C.3       23 UNK        -0.0205 
     16 S16         2.7886  -21.0277  -47.5944 S.3       23 UNK        -0.2404 
     17 C17         1.1259  -21.3114  -48.2899 C.3       23 UNK        -0.0398 
     18 CA          0.3109  -22.3613  -47.5030 C.3       11 UNK         0.1400 
     19 N           0.1728  -22.0183  -46.0836 N.am      11 UNK        -0.5000 
     20 C          -0.3531  -22.8204  -45.1479 C.2       10 UNK         0.5000 
     21 O          -0.7292  -23.9706  -45.3661 O.2       10 UNK        -0.5000 
     22 CA         -0.5467  -22.2159  -43.7476 C.3       10 UNK         0.1400 
     23 CB          0.7288  -22.3558  -42.9034 C.3       10 UNK        -0.1800 
     24 N          -0.9499  -20.8110  -43.8225 N.am      10 UNK        -0.5000 
     25 C          -2.1691  -20.4058  -44.2108 C.2       9 UNK         0.5000 
     26 O          -3.0852  -21.1799  -44.4881 O.2       9 UNK        -0.5000 
     27 CA         -2.3872  -18.8872  -44.3610 C.3       9 UNK         0.1400 
     28 CB         -2.7954  -18.2605  -43.0200 C.3       9 UNK        -0.1800 
     29 N          -1.2005  -18.2036  -44.8764 N.am      9 UNK        -0.5000 
     30 C          -0.7070  -18.3754  -46.1108 C.2       8 UNK         0.5000 
     31 O          -1.2732  -19.0414  -46.9771 O.2       8 UNK        -0.5000 
     32 CA          0.6633  -17.7415  -46.4133 C.3       8 UNK         0.1400 
     33 CB          0.5132  -16.4517  -47.2275 C.3       8 UNK        -0.1800 
     34 N           1.4381  -17.4439  -45.2099 N.am      8 UNK        -0.5000 
     35 C           1.9918  -18.3481  -44.3923 C.2       7 UNK         0.5000 
     36 O           1.8303  -19.5601  -44.5326 O.2       7 UNK        -0.5000 
     37 CA          2.7994  -17.8140  -43.1869 C.3       7 UNK         0.1400 
     38 CB          4.0750  -18.6403  -42.9280 C.3       7 UNK        -0.1800 
     39 N           3.0947  -16.3752  -43.2555 N.am      7 UNK        -0.5000 
     40 C           3.8663  -15.7284  -44.1452 C.2       6 UNK         0.5000 
     41 O           4.5470  -16.2960  -44.9995 O.2       6 UNK        -0.5000 
     42 CA          3.8360  -14.1860  -44.1167 C.3       6 UNK         0.1400 
     43 CB          3.4420  -13.6318  -45.4949 C.3       6 UNK        -0.1800 
     44 N           2.8771  -13.6740  -43.1370 N.am      6 UNK        -0.5000 
     45 C           3.1908  -13.1251  -41.9563 C.2       5 UNK         0.5000 
     46 O           4.3457  -12.9347  -41.5740 O.2       5 UNK        -0.5000 
     47 CA          2.0164  -12.7448  -41.0307 C.3       5 UNK         0.1400 
     48 CB          1.6839  -11.2513  -41.1661 C.3       5 UNK        -0.1800 
     49 N           0.8043  -13.5326  -41.2748 N.am      5 UNK        -0.5000 
     50 C           0.6925  -14.8483  -41.0427 C.2       4 UNK         0.5000 
     51 O           1.5973  -15.5349  -40.5689 O.2       4 UNK        -0.5000 
     52 CA         -0.6203  -15.5338  -41.4664 C.3       4 UNK         0.1400 
     53 CB         -1.5869  -15.6328  -40.2775 C.3       4 UNK        -0.1800 
     54 N          -1.3085  -14.8938  -42.5912 N.am      4 UNK        -0.5000 
     55 C          -0.7991  -14.7071  -43.8162 C.2       3 UNK         0.5000 
     56 O           0.3544  -15.0200  -44.1194 O.2       3 UNK        -0.5000 
     57 CA         -1.7299  -14.0957  -44.8864 C.3       3 UNK         0.1400 
     58 CB         -2.9845  -13.4079  -44.3034 C.3       3 UNK        -0.1800 
     59 N          -1.0300  -13.1812  -45.7933 N.am      3 UNK        -0.5000 
     60 C          -0.3380  -12.0835  -45.4640 C.2       2 UNK         0.5000 
     61 O          -0.1353  -11.7249  -44.3021 O.2       2 UNK        -0.5000 
     62 CA          0.1996  -11.2432  -46.6425 C.3       2 UNK         0.1400 
     63 CB          0.8090   -9.9073  -46.1797 C.3       2 UNK        -0.1800 
     64 N           1.1973  -11.9437  -47.4517 N.am      2 UNK        -0.5000 
     65 C           0.9772  -12.9398  -48.3223 C.2       1 UNK         0.5000 
     66 O          -0.1290  -13.4495  -48.5079 O.2       1 UNK        -0.5000 
     67 C          -1.0669  -22.5828  -48.1627 C.2       11 UNK         0.5000 
     68 O          -1.2451  -23.5739  -48.8698 O.2       11 UNK        -0.5000 
     69 N          -2.0294  -21.6924  -47.8747 N.am      12 UNK        -0.5000 
     70 CA         -3.4247  -21.8016  -48.3052 C.3       12 UNK         0.1400 
     71 CB         -4.1985  -20.5404  -47.8926 C.3       12 UNK        -0.1800 
     72 C          -4.1203  -23.0568  -47.7505 C.2       12 UNK         0.5000 
     73 O          -4.8253  -23.7363  -48.4975 O.2       12 UNK        -0.5000 
     74 N          -3.8871  -23.3561  -46.4642 N.am      13 UNK        -0.5000 
     75 CA         -4.3889  -24.5524  -45.7877 C.3       13 UNK         0.1400 
     76 CB         -4.1265  -24.4475  -44.2782 C.3       13 UNK        -0.1800 
     77 C          -3.7947  -25.8503  -46.3637 C.2       13 UNK         0.5000 
     78 O          -4.5416  -26.7977  -46.6073 O.2       13 UNK        -0.5000 
     79 N          -2.4788  -25.8580  -46.6227 N.am      14 UNK        -0.5000 
     80 CA         -1.7582  -26.9610  -47.2664 C.3       14 UNK         0.1400 
     81 CB         -0.2481  -26.6837  -47.2229 C.3       14 UNK        -0.1800 
     82 C          -2.2240  -27.2199  -48.7123 C.2       14 UNK         0.5000 
     83 O          -2.2956  -28.3751  -49.1322 O.2       14 UNK        -0.5000 
     84 N          -2.5795  -26.1446  -49.4274 N.am      15 UNK        -0.5000 
     85 CA         -3.1929  -26.1760  -50.7556 C.3       15 UNK         0.1400 
     86 CB         -2.9641  -24.8170  -51.4392 C.3       15 UNK        -0.1800 
     87 C          -4.6976  -26.5208  -50.7344 C.2       15 UNK         0.5000 
     88 O          -5.3075  -26.5686  -51.8022 O.2       15 UNK        -0.5000 
     89 N          -5.2890  -26.7102  -49.5436 N.am      16 UNK        -0.5000 
     90 CA         -6.7076  -26.9939  -49.2899 C.3       16 UNK         0.1400 
     91 CB         -7.0678  -28.4120  -49.7784 C.3       16 UNK        -0.1800 
     92 C          -7.6509  -25.9072  -49.8510 C.2       16 UNK         0.5000 
     93 O          -8.7515  -26.2172  -50.3095 O.2       16 UNK        -0.5000 
     94 N          -7.1742  -24.6535  -49.8324 N.am      17 UNK        -0.5000 
     95 CA         -7.7871  -23.4423  -50.3833 C.3       17 UNK         0.1400 
     96 CB         -9.1126  -23.1147  -49.6663 C.3       17 UNK        -0.1800 
     97 C          -7.9305  -23.4291  -51.9225 C.2       17 UNK         0.5000 
     98 O          -8.5614  -22.5135  -52.4522 O.2       17 UNK        -0.5000 
     99 N          -7.3165  -24.3898  -52.6331 N.am      18 UNK        -0.5000 
    100 CA        -7.3002  -24.4387  -54.1008 C.3       18 UNK         0.1400 
    101 CB        -6.8806  -25.8407  -54.5667 C.3       18 UNK        -0.1800 
    102 C         -6.3793  -23.3669  -54.7167 C.2       18 UNK         0.5000 
    103 O         -6.5949  -22.9598  -55.8586 O.2       18 UNK        -0.5000 
    104 N         -5.3912  -22.9164  -53.9355 N.am      19 UNK        -0.5000 
    105 CA        -4.4905  -21.8110  -54.2398 C.3       19 UNK         0.1400 
    106 CB        -3.1078  -22.3613  -54.6354 C.3       19 UNK        -0.1800 
    107 C         -4.4447  -20.8819  -53.0168 C.2       19 UNK         0.5000 
    108 O         -3.3676  -20.5839  -52.5014 O.2       19 UNK        -0.5000 
    109 N         -5.6289  -20.4543  -52.5517 N.am      20 UNK        -0.5000 
    110 CA        -5.8165  -19.6167  -51.3608 C.3       20 UNK         0.1400 
    111 CB        -7.3168  -19.3940  -51.1210 C.3       20 UNK        -0.1800 
    112 C         -5.0749  -18.2663  -51.4086 C.2       20 UNK         0.5000 
    113 O         -4.6381  -17.7793  -50.3662 O.2       20 UNK        -0.5000 
    114 N         -4.8948  -17.7168  -52.6184 N.am      21 UNK        -0.5000 
    115 CA        -4.1226  -16.5004  -52.8898 C.3       21 UNK         0.1400 
    116 CB        -4.2984  -16.1215  -54.3684 C.3       21 UNK        -0.1800 
    117 C         -2.6237  -16.6160  -52.5372 C.2       21 UNK         0.5000 
    118 O         -1.9855  -15.5930  -52.2875 O.2       21 UNK        -0.5000 
    119 N         -2.0993  -17.8477  -52.5084 N.am      22 UNK        -0.5000 
    120 CA        -0.7529  -18.1792  -52.0239 C.3       22 UNK         0.1400 
    121 C         -0.6797  -18.3800  -50.4838 C.2       22 UNK         0.5000 
    122 N         -1.7755  -18.3677  -49.7347 N.am      22 UNK        -0.7600 
    123 O          0.4099  -18.5300  -49.9483 O.2       22 UNK        -0.5000 
    124 C124       -0.1673  -19.3974  -52.7964 C.3       23 UNK        -0.0398 
    125 S125        0.9247  -18.8601  -54.1557 S.3       23 UNK        -0.2404 
    126 C126        2.5124  -19.6434  -53.7126 C.3       23 UNK        -0.0205 
    127 H127        4.6034  -10.3768  -50.2242 H         1 UNK         0.0600 
    128 H128        3.2740   -9.2402  -50.4664 H         1 UNK         0.0600 
    129 H129        3.8707  -10.2048  -51.8211 H         1 UNK         0.0600 
    130 H130        3.9630  -12.2277  -49.2033 H         1 UNK         0.3000 
    131 H131        2.8384  -13.9377  -48.4073 H         1 UNK         0.0600 
    132 H132        1.4173  -15.3273  -49.8470 H         1 UNK         0.0800 
    133 H133        1.1423  -14.0011  -50.9418 H         1 UNK         0.0800 
    134 H134        5.1642  -16.1486  -50.2956 H         1 UNK         0.0800 
    135 H135        3.8212  -16.0910  -49.1851 H         1 UNK         0.0800 
    136 H136        3.1584  -17.2105  -52.6925 H         1 UNK         0.1150 
    137 H137        2.9408  -21.3464  -51.6313 H         1 UNK         0.1150 
    138 H138        4.2462  -18.4783  -48.7337 H         1 UNK         0.1150 
    139 H139        3.7005  -22.1312  -49.5323 H         1 UNK         0.0800 
    140 H140        4.8915  -21.1237  -48.7518 H         1 UNK         0.0800 
    141 H141        0.6023  -20.3587  -48.2878 H         1 UNK         0.0800 
    142 H142        1.2152  -21.6062  -49.3368 H         1 UNK         0.0800 
    143 H143        0.8504  -23.3094  -47.5553 H         1 UNK         0.0600 
    144 H144        0.5058  -21.1046  -45.8061 H         1 UNK         0.3000 
    145 H145       -1.3407  -22.7743  -43.2473 H         1 UNK         0.0600 
    146 H146        0.5971  -21.9217  -41.9122 H         1 UNK         0.0600 
    147 H147        0.9866  -23.4067  -42.7664 H         1 UNK         0.0600 
    148 H148        1.5852  -21.8716  -43.3721 H         1 UNK         0.0600 
    149 H149       -0.2216  -20.1257  -43.6776 H         1 UNK         0.3000 
    150 H150       -3.2029  -18.7360  -45.0712 H         1 UNK         0.0600 
    151 H151       -3.6914  -18.7400  -42.6238 H         1 UNK         0.0600 
    152 H152       -3.0208  -17.2002  -43.1325 H         1 UNK         0.0600 
    153 H153       -2.0110  -18.3632  -42.2696 H         1 UNK         0.0600 
    154 H154       -0.6716  -17.6392  -44.2296 H         1 UNK         0.3000 
    155 H155        1.2306  -18.4539  -47.0139 H         1 UNK         0.0600 
    156 H156        1.4886  -16.0663  -47.5223 H         1 UNK         0.0600 
    157 H157        0.0018  -15.6739  -46.6657 H         1 UNK         0.0600 
    158 H158       -0.0604  -16.6182  -48.1382 H         1 UNK         0.0600 
    159 H159        1.5137  -16.4649  -44.9586 H         1 UNK         0.3000 
    160 H160        2.1505  -17.9389  -42.3191 H         1 UNK         0.0600 
    161 H161        4.7418  -18.6411  -43.7903 H         1 UNK         0.0600 
    162 H162        3.8282  -19.6801  -42.7101 H         1 UNK         0.0600 
    163 H163        4.6293  -18.2535  -42.0730 H         1 UNK         0.0600 
    164 H164        2.6011  -15.8080  -42.5786 H         1 UNK         0.3000 
    165 H165        4.8461  -13.8437  -43.8839 H         1 UNK         0.0600 
    166 H166        2.4601  -13.9953  -45.8003 H         1 UNK         0.0600 
    167 H167        3.4105  -12.5423  -45.4854 H         1 UNK         0.0600 
    168 H168        4.1601  -13.9296  -46.2597 H         1 UNK         0.0600 
    169 H169        1.8983  -13.8079  -43.3676 H         1 UNK         0.3000 
    170 H170        2.3361  -12.9302  -40.0031 H         1 UNK         0.0600 
    171 H171        2.5560  -10.6357  -40.9421 H         1 UNK         0.0600 
    172 H172        1.3581  -11.0013  -42.1762 H         1 UNK         0.0600 
    173 H173        0.8935  -10.9577  -40.4752 H         1 UNK         0.0600 
    174 H174        0.0291  -13.0493  -41.7066 H         1 UNK         0.3000 
    175 H175       -0.3616  -16.5474  -41.7782 H         1 UNK         0.0600 
    176 H176       -1.9110  -14.6474  -39.9403 H         1 UNK         0.0600 
    177 H177       -2.4753  -16.2089  -40.5367 H         1 UNK         0.0600 
    178 H178       -1.1150  -16.1314  -39.4296 H         1 UNK         0.0600 
    179 H179       -2.2554  -14.5889  -42.4177 H         1 UNK         0.3000 
    180 H180       -2.0683  -14.9317  -45.4998 H         1 UNK         0.0600 
    181 H181       -2.7250  -12.6038  -43.6135 H         1 UNK         0.0600 
    182 H182       -3.6197  -14.1169  -43.7712 H         1 UNK         0.0600 
    183 H183       -3.5945  -12.9755  -45.0968 H         1 UNK         0.0600 
    184 H184       -1.0526  -13.4245  -46.7795 H         1 UNK         0.3000 
    185 H185       -0.6537  -11.0106  -47.2830 H         1 UNK         0.0600 
    186 H186        1.1094   -9.2946  -47.0299 H         1 UNK         0.0600 
    187 H187        0.0878   -9.3265  -45.6030 H         1 UNK         0.0600 
    188 H188        1.6860  -10.0614  -45.5496 H         1 UNK         0.0600 
    189 H189        2.1398  -11.5914  -47.3771 H         1 UNK         0.3000 
    190 H190       -1.7870  -20.8682  -47.3332 H         1 UNK         0.3000 
    191 H191       -3.4342  -21.8677  -49.3953 H         1 UNK         0.0600 
    192 H192       -3.8003  -19.6530  -48.3816 H         1 UNK         0.0600 
    193 H193       -5.2513  -20.6173  -48.1660 H         1 UNK         0.0600 
    194 H194       -4.1554  -20.3732  -46.8169 H         1 UNK         0.0600 
    195 H195       -3.3384  -22.7129  -45.9047 H         1 UNK         0.3000 
    196 H196       -5.4699  -24.5883  -45.9390 H         1 UNK         0.0600 
    197 H197       -4.5343  -25.3109  -43.7512 H         1 UNK         0.0600 
    198 H198       -4.5958  -23.5580  -43.8575 H         1 UNK         0.0600 
    199 H199       -3.0611  -24.4008  -44.0545 H         1 UNK         0.0600 
    200 H200       -1.9197  -25.0560  -46.3416 H         1 UNK         0.3000 
    201 H201       -1.9542  -27.8669  -46.6893 H         1 UNK         0.0600 
    202 H202        0.1033  -26.5771  -46.1965 H         1 UNK         0.0600 
    203 H203        0.0091  -25.7709  -47.7606 H         1 UNK         0.0600 
    204 H204        0.3132  -27.5018  -47.6759 H         1 UNK         0.0600 
    205 H205       -2.4177  -25.2248  -49.0294 H         1 UNK         0.3000 
    206 H206       -2.6949  -26.9430  -51.3518 H         1 UNK         0.0600 
    207 H207       -1.9021  -24.5779  -51.4971 H         1 UNK         0.0600 
    208 H208       -3.3493  -24.8225  -52.4593 H         1 UNK         0.0600 
    209 H209       -3.4592  -24.0067  -50.9035 H         1 UNK         0.0600 
    210 H210       -4.7183  -26.6241  -48.7112 H         1 UNK         0.3000 
    211 H211       -6.8351  -26.9744  -48.2070 H         1 UNK         0.0600 
    212 H212       -7.0191  -28.4906  -50.8649 H         1 UNK         0.0600 
    213 H213       -8.0789  -28.6862  -49.4753 H         1 UNK         0.0600 
    214 H214       -6.3916  -29.1562  -49.3576 H         1 UNK         0.0600 
    215 H215       -6.2593  -24.5057  -49.4089 H         1 UNK         0.3000 
    216 H216       -7.0875  -22.6383  -50.1505 H         1 UNK         0.0600 
    217 H217       -8.9824  -23.1026  -48.5842 H         1 UNK         0.0600 
    218 H218       -9.8927  -23.8381  -49.9036 H         1 UNK         0.0600 
    219 H219       -9.4835  -22.1312  -49.9568 H         1 UNK         0.0600 
    220 H220       -6.8081  -25.1229  -52.1504 H         1 UNK         0.3000 
    221 H221       -8.3145  -24.2535  -54.4607 H         1 UNK         0.0600 
    222 H222       -5.8391  -26.0521  -54.3234 H         1 UNK         0.0600 
    223 H223       -7.4977  -26.6133  -54.1075 H         1 UNK         0.0600 
    224 H224       -6.9870  -25.9375  -55.6478 H         1 UNK         0.0600 
    225 H225       -5.3117  -23.3071  -53.0080 H         1 UNK         0.3000 
    226 H226       -4.8779  -21.2198  -55.0720 H         1 UNK         0.0600 
    227 H227       -3.1811  -23.0289  -55.4939 H         1 UNK         0.0600 
    228 H228       -2.4302  -21.5519  -54.9100 H         1 UNK         0.0600 
    229 H229       -2.6434  -22.9146  -53.8191 H         1 UNK         0.0600 
    230 H230       -6.4695  -20.7520  -53.0277 H         1 UNK         0.3000 
    231 H231       -5.4155  -20.1733  -50.5131 H         1 UNK         0.0600 
    232 H232       -7.4845  -18.7748  -50.2386 H         1 UNK         0.0600 
    233 H233       -7.8372  -20.3358  -50.9540 H         1 UNK         0.0600 
    234 H234       -7.7896  -18.8948  -51.9675 H         1 UNK         0.0600 
    235 H235       -5.2857  -18.1910  -53.4189 H         1 UNK         0.3000 
    236 H236       -4.5397  -15.6983  -52.2776 H         1 UNK         0.0600 
    237 H237       -5.3477  -15.9539  -54.6117 H         1 UNK         0.0600 
    238 H238       -3.7612  -15.2015  -54.6026 H         1 UNK         0.0600 
    239 H239       -3.9186  -16.9007  -55.0305 H         1 UNK         0.0600 
    240 H240       -2.7029  -18.6439  -52.6785 H         1 UNK         0.3000 
    241 H241       -0.1060  -17.3175  -52.2015 H         1 UNK         0.0600 
    242 H242       -1.6711  -18.5327  -48.7391 H         1 UNK         0.3800 
    243 H243       -2.6929  -18.1862  -50.1226 H         1 UNK         0.3800 
    244 H244       -0.9573  -20.0149  -53.2228 H         1 UNK         0.0800 
    245 H245        0.3846  -20.0735  -52.1422 H         1 UNK         0.0800 
    246 H246        2.4135  -20.7228  -53.8379 H         1 UNK         0.0800 
    247 H247        3.2729  -19.3232  -54.4259 H         1 UNK         0.0800 
@<TRIPOS>BOND
     1    1    2 1    
     2    1  127 1    
     3    1  128 1    
     4    1  129 1    
     5    2    3 2    
     6    2    4 am   BACKBONE|DICT|INTERRES
     7    4    5 1    
     8    4  130 1    
     9    5    6 1    
    10    5   65 1    
    11    5  131 1    
    12    6    7 1    
    13    6  132 1    
    14    6  133 1    
    15    7    8 1    
    16    8    9 1    
    17    8  134 1    
    18    8  135 1    
    19    9   10 ar   
    20    9   14 ar   
    21   10   11 ar   
    22   10  136 1    
    23   11   12 ar   
    24   11  126 1    
    25   12   13 ar   
    26   12  137 1    
    27   13   14 ar   
    28   13   15 1    
    29   14  138 1    
    30   15   16 1    
    31   15  139 1    
    32   15  140 1    
    33   16   17 1    
    34   17   18 1    
    35   17  141 1    
    36   17  142 1    
    37   18   19 1    
    38   18   67 1    
    39   18  143 1    
    40   19   20 am   BACKBONE|DICT|INTERRES
    41   19  144 1    
    42   20   21 2    
    43   20   22 1    
    44   22   23 1    
    45   22   24 1    
    46   22  145 1    
    47   23  146 1    
    48   23  147 1    
    49   23  148 1    
    50   24   25 am   BACKBONE|DICT|INTERRES
    51   24  149 1    
    52   25   26 2    
    53   25   27 1    
    54   27   28 1    
    55   27   29 1    
    56   27  150 1    
    57   28  151 1    
    58   28  152 1    
    59   28  153 1    
    60   29   30 am   BACKBONE|DICT|INTERRES
    61   29  154 1    
    62   30   31 2    
    63   30   32 1    
    64   32   33 1    
    65   32   34 1    
    66   32  155 1    
    67   33  156 1    
    68   33  157 1    
    69   33  158 1    
    70   34   35 am   BACKBONE|DICT|INTERRES
    71   34  159 1    
    72   35   36 2    
    73   35   37 1    
    74   37   38 1    
    75   37   39 1    
    76   37  160 1    
    77   38  161 1    
    78   38  162 1    
    79   38  163 1    
    80   39   40 am   BACKBONE|DICT|INTERRES
    81   39  164 1    
    82   40   41 2    
    83   40   42 1    
    84   42   43 1    
    85   42   44 1    
    86   42  165 1    
    87   43  166 1    
    88   43  167 1    
    89   43  168 1    
    90   44   45 am   BACKBONE|DICT|INTERRES
    91   44  169 1    
    92   45   46 2    
    93   45   47 1    
    94   47   48 1    
    95   47   49 1    
    96   47  170 1    
    97   48  171 1    
    98   48  172 1    
    99   48  173 1    
   100   49   50 am   BACKBONE|DICT|INTERRES
   101   49  174 1    
   102   50   51 2    
   103   50   52 1    
   104   52   53 1    
   105   52   54 1    
   106   52  175 1    
   107   53  176 1    
   108   53  177 1    
   109   53  178 1    
   110   54   55 am   BACKBONE|DICT|INTERRES
   111   54  179 1    
   112   55   56 2    
   113   55   57 1    
   114   57   58 1    
   115   57   59 1    
   116   57  180 1    
   117   58  181 1    
   118   58  182 1    
   119   58  183 1    
   120   59   60 am   BACKBONE|DICT|INTERRES
   121   59  184 1    
   122   60   61 2    
   123   60   62 1    
   124   62   63 1    
   125   62   64 1    
   126   62  185 1    
   127   63  186 1    
   128   63  187 1    
   129   63  188 1    
   130   64   65 am   BACKBONE|DICT|INTERRES
   131   64  189 1    
   132   65   66 2    
   133   67   68 2    
   134   67   69 am   BACKBONE|DICT|INTERRES
   135   69   70 1    
   136   69  190 1    
   137   70   71 1    
   138   70   72 1    
   139   70  191 1    
   140   71  192 1    
   141   71  193 1    
   142   71  194 1    
   143   72   73 2    
   144   72   74 am   BACKBONE|DICT|INTERRES
   145   74   75 1    
   146   74  195 1    
   147   75   76 1    
   148   75   77 1    
   149   75  196 1    
   150   76  197 1    
   151   76  198 1    
   152   76  199 1    
   153   77   78 2    
   154   77   79 am   BACKBONE|DICT|INTERRES
   155   79   80 1    
   156   79  200 1    
   157   80   81 1    
   158   80   82 1    
   159   80  201 1    
   160   81  202 1    
   161   81  203 1    
   162   81  204 1    
   163   82   83 2    
   164   82   84 am   BACKBONE|DICT|INTERRES
   165   84   85 1    
   166   84  205 1    
   167   85   86 1    
   168   85   87 1    
   169   85  206 1    
   170   86  207 1    
   171   86  208 1    
   172   86  209 1    
   173   87   88 2    
   174   87   89 am   BACKBONE|DICT|INTERRES
   175   89   90 1    
   176   89  210 1    
   177   90   91 1    
   178   90   92 1    
   179   90  211 1    
   180   91  212 1    
   181   91  213 1    
   182   91  214 1    
   183   92   93 2    
   184   92   94 am   BACKBONE|DICT|INTERRES
   185   94   95 1    
   186   94  215 1    
   187   95   96 1    
   188   95   97 1    
   189   95  216 1    
   190   96  217 1    
   191   96  218 1    
   192   96  219 1    
   193   97   98 2    
   194   97   99 am   BACKBONE|DICT|INTERRES
   195   99  100 1    
   196   99  220 1    
   197  100  101 1    
   198  100  102 1    
   199  100  221 1    
   200  101  222 1    
   201  101  223 1    
   202  101  224 1    
   203  102  103 2    
   204  102  104 am   BACKBONE|DICT|INTERRES
   205  104  105 1    
   206  104  225 1    
   207  105  106 1    
   208  105  107 1    
   209  105  226 1    
   210  106  227 1    
   211  106  228 1    
   212  106  229 1    
   213  107  108 2    
   214  107  109 am   BACKBONE|DICT|INTERRES
   215  109  110 1    
   216  109  230 1    
   217  110  111 1    
   218  110  112 1    
   219  110  231 1    
   220  111  232 1    
   221  111  233 1    
   222  111  234 1    
   223  112  113 2    
   224  112  114 am   BACKBONE|DICT|INTERRES
   225  114  115 1    
   226  114  235 1    
   227  115  116 1    
   228  115  117 1    
   229  115  236 1    
   230  116  237 1    
   231  116  238 1    
   232  116  239 1    
   233  117  118 2    
   234  117  119 am   BACKBONE|DICT|INTERRES
   235  119  120 1    
   236  119  240 1    
   237  120  121 1    
   238  120  124 1    
   239  120  241 1    
   240  121  122 am   BACKBONE|DICT|INTERRES
   241  121  123 2    
   242  122  242 1    
   243  122  243 1    
   244  124  125 1    
   245  124  244 1    
   246  124  245 1    
   247  125  126 1    
   248  126  246 1    
   249  126  247 1    
@<TRIPOS>SUBSTRUCTURE
     1 UNK         1 GROUP             0       ****    0 ROOT    
