@<TRIPOS>MOLECULE
3R540
247   249    1
SMALL
USER_CHARGES


@<TRIPOS>ATOM
      1 CA          4.2278  -12.8656  -44.2930 C.3       0 UNK        -0.1800 
      2 C           3.8585  -12.9051  -45.7660 C.2       0 UNK         0.5000 
      3 O           4.0682  -11.9201  -46.4767 O.2       0 UNK        -0.5000 
      4 N           3.2875  -14.0312  -46.2130 N.am      1 UNK        -0.5000 
      5 CA          2.7709  -14.3000  -47.5635 C.3       1 UNK         0.1400 
      6 C6          3.8490  -14.2462  -48.6816 C.3       23 UNK        -0.0398 
      7 S7          4.9292  -15.7152  -48.6716 S.3       23 UNK        -0.2404 
      8 C8          4.4405  -16.5342  -50.2264 C.3       23 UNK        -0.0205 
      9 C9          3.1568  -17.3394  -50.0764 C.ar      23 UNK        -0.0193 
     10 C10         1.9062  -16.7369  -50.2462 C.ar      23 UNK        -0.1150 
     11 C11         0.7250  -17.4737  -50.1041 C.ar      23 UNK        -0.0193 
     12 C12         0.8133  -18.8421  -49.8111 C.ar      23 UNK        -0.1150 
     13 C13         2.0569  -19.4587  -49.6528 C.ar      23 UNK        -0.0193 
     14 C14         3.2235  -18.7026  -49.7831 C.ar      23 UNK        -0.1150 
     15 C15         2.1462  -20.9388  -49.3252 C.3       23 UNK        -0.0205 
     16 S16         2.5010  -21.1681  -47.5613 S.3       23 UNK        -0.2404 
     17 C17         2.5128  -22.9801  -47.4099 C.3       23 UNK        -0.0398 
     18 CA          1.2427  -23.5819  -46.7638 C.3       11 UNK         0.1400 
     19 N           0.9416  -23.0539  -45.4290 N.am      11 UNK        -0.5000 
     20 C           0.1683  -23.7017  -44.5449 C.2       10 UNK         0.5000 
     21 O          -0.4620  -24.7253  -44.8174 O.2       10 UNK        -0.5000 
     22 CA          0.0895  -23.1201  -43.1259 C.3       10 UNK         0.1400 
     23 CB          1.4414  -23.2329  -42.4023 C.3       10 UNK        -0.1800 
     24 N          -0.3354  -21.7253  -43.1599 N.am      10 UNK        -0.5000 
     25 C          -1.6135  -21.3282  -43.0958 C.2       9 UNK         0.5000 
     26 O          -2.5598  -22.0989  -42.9297 O.2       9 UNK        -0.5000 
     27 CA         -1.8978  -19.8193  -43.2499 C.3       9 UNK         0.1400 
     28 CB         -2.0638  -19.1623  -41.8714 C.3       9 UNK        -0.1800 
     29 N          -0.8893  -19.0799  -44.0133 N.am      9 UNK        -0.5000 
     30 C          -0.5520  -19.3408  -45.2837 C.2       8 UNK         0.5000 
     31 O          -1.0217  -20.2674  -45.9395 O.2       8 UNK        -0.5000 
     32 CA          0.5389  -18.4613  -45.9086 C.3       8 UNK         0.1400 
     33 CB         -0.0278  -17.0843  -46.2826 C.3       8 UNK        -0.1800 
     34 N           1.7311  -18.2964  -45.0746 N.am      8 UNK        -0.5000 
     35 C           2.4299  -19.2550  -44.4483 C.2       7 UNK         0.5000 
     36 O           2.1032  -20.4428  -44.4065 O.2       7 UNK        -0.5000 
     37 CA          3.6942  -18.8010  -43.6959 C.3       7 UNK         0.1400 
     38 CB          4.8095  -18.3557  -44.6637 C.3       7 UNK        -0.1800 
     39 N           3.4003  -17.7922  -42.6716 N.am      7 UNK        -0.5000 
     40 C           2.9897  -16.5294  -42.8443 C.2       6 UNK         0.5000 
     41 O           2.9555  -15.9486  -43.9343 O.2       6 UNK        -0.5000 
     42 CA          2.4822  -15.8204  -41.5746 C.3       6 UNK         0.1400 
     43 CB          3.5792  -14.9412  -40.9557 C.3       6 UNK        -0.1800 
     44 N           1.2934  -15.0073  -41.8303 N.am      6 UNK        -0.5000 
     45 C           0.1388  -15.4485  -42.3543 C.2       5 UNK         0.5000 
     46 O          -0.0793  -16.6301  -42.6287 O.2       5 UNK        -0.5000 
     47 CA         -0.9699  -14.4033  -42.6026 C.3       5 UNK         0.1400 
     48 CB         -2.1452  -14.6267  -41.6380 C.3       5 UNK        -0.1800 
     49 N          -0.5114  -13.0155  -42.4736 N.am      5 UNK        -0.5000 
     50 C           0.2502  -12.3825  -43.3737 C.2       4 UNK         0.5000 
     51 O           0.6161  -12.8875  -44.4380 O.2       4 UNK        -0.5000 
     52 CA          0.7064  -10.9633  -43.0043 C.3       4 UNK         0.1400 
     53 CB          1.6856  -10.9818  -41.8131 C.3       4 UNK        -0.1800 
     54 N           1.3518  -10.3853  -44.1740 N.am      4 UNK        -0.5000 
     55 C           1.6049   -9.0931  -44.4008 C.2       3 UNK         0.5000 
     56 O           1.3326   -8.1910  -43.6078 O.2       3 UNK        -0.5000 
     57 CA          2.2744   -8.7500  -45.7452 C.3       3 UNK         0.1400 
     58 CB          3.7857   -8.5488  -45.5536 C.3       3 UNK        -0.1800 
     59 N           2.0573   -9.7860  -46.7590 N.am      3 UNK        -0.5000 
     60 C           0.9299   -9.9139  -47.4770 C.2       2 UNK         0.5000 
     61 O          -0.0235   -9.1407  -47.3774 O.2       2 UNK        -0.5000 
     62 CA          0.8313  -11.0913  -48.4649 C.3       2 UNK         0.1400 
     63 CB          1.0323  -10.6035  -49.9085 C.3       2 UNK        -0.1800 
     64 N           1.8212  -12.1271  -48.1774 N.am      2 UNK        -0.5000 
     65 C           1.5560  -13.4070  -47.8956 C.2       1 UNK         0.5000 
     66 O           0.4249  -13.8924  -47.9001 O.2       1 UNK        -0.5000 
     67 C           0.0334  -23.5853  -47.7188 C.2       11 UNK         0.5000 
     68 O          -0.0602  -24.5006  -48.5349 O.2       11 UNK        -0.5000 
     69 N          -0.8934  -22.6224  -47.5896 N.am      12 UNK        -0.5000 
     70 CA         -2.1298  -22.5818  -48.3780 C.3       12 UNK         0.1400 
     71 CB         -2.8656  -21.2542  -48.1454 C.3       12 UNK        -0.1800 
     72 C          -3.0628  -23.7630  -48.0639 C.2       12 UNK         0.5000 
     73 O          -3.6817  -24.3093  -48.9778 O.2       12 UNK        -0.5000 
     74 N          -3.1177  -24.1545  -46.7837 N.am      13 UNK        -0.5000 
     75 CA         -3.8683  -25.3140  -46.3098 C.3       13 UNK         0.1400 
     76 CB         -4.0123  -25.2456  -44.7818 C.3       13 UNK        -0.1800 
     77 C          -3.2117  -26.6339  -46.7479 C.2       13 UNK         0.5000 
     78 O          -3.9158  -27.5375  -47.1984 O.2       13 UNK        -0.5000 
     79 N          -1.8769  -26.7085  -46.6387 N.am      14 UNK        -0.5000 
     80 CA         -1.0752  -27.8694  -47.0312 C.3       14 UNK         0.1400 
     81 CB          0.3679  -27.6855  -46.5388 C.3       14 UNK        -0.1800 
     82 C          -1.1016  -28.1390  -48.5478 C.2       14 UNK         0.5000 
     83 O          -1.2287  -29.2938  -48.9567 O.2       14 UNK        -0.5000 
     84 N          -0.9968  -27.0726  -49.3525 N.am      15 UNK        -0.5000 
     85 CA         -1.0356  -27.1292  -50.8154 C.3       15 UNK         0.1400 
     86 CB         -0.3884  -25.8544  -51.3806 C.3       15 UNK        -0.1800 
     87 C          -2.4569  -27.2910  -51.3870 C.2       15 UNK         0.5000 
     88 O          -2.5869  -27.6334  -52.5629 O.2       15 UNK        -0.5000 
     89 N          -3.4821  -27.0167  -50.5649 N.am      16 UNK        -0.5000 
     90 CA         -4.9030  -26.9249  -50.9168 C.3       16 UNK         0.1400 
     91 CB         -5.4663  -28.2965  -51.3428 C.3       16 UNK        -0.1800 
     92 C          -5.1479  -25.8072  -51.9519 C.2       16 UNK         0.5000 
     93 O          -5.7432  -26.0387  -53.0056 O.2       16 UNK        -0.5000 
     94 N          -4.6427  -24.6100  -51.6257 N.am      17 UNK        -0.5000 
     95 CA         -4.6753  -23.4074  -52.4610 C.3       17 UNK         0.1400 
     96 CB         -3.6900  -22.3926  -51.8712 C.3       17 UNK        -0.1800 
     97 C          -6.0851  -22.7996  -52.6229 C.2       17 UNK         0.5000 
     98 O          -6.3234  -22.0797  -53.5963 O.2       17 UNK        -0.5000 
     99 N          -6.9841  -23.1306  -51.6817 N.am      18 UNK        -0.5000 
    100 CA        -8.4485  -23.0385  -51.7446 C.3       18 UNK         0.1400 
    101 CB        -8.9805  -24.1283  -52.6987 C.3       18 UNK        -0.1800 
    102 C         -9.0277  -21.6461  -52.0745 C.2       18 UNK         0.5000 
    103 O        -10.0949  -21.5635  -52.6847 O.2       18 UNK        -0.5000 
    104 N         -8.3146  -20.5789  -51.6857 N.am      19 UNK        -0.5000 
    105 CA        -8.6073  -19.1649  -51.9636 C.3       19 UNK         0.1400 
    106 CB        -9.9706  -18.7397  -51.3782 C.3       19 UNK        -0.1800 
    107 C         -8.4552  -18.7701  -53.4495 C.2       19 UNK         0.5000 
    108 O         -8.7710  -17.6331  -53.8036 O.2       19 UNK        -0.5000 
    109 N         -7.9579  -19.6889  -54.2883 N.am      20 UNK        -0.5000 
    110 CA        -7.6778  -19.4654  -55.7022 C.3       20 UNK         0.1400 
    111 CB        -7.9338  -20.7618  -56.4887 C.3       20 UNK        -0.1800 
    112 C         -6.2321  -18.9808  -55.8713 C.2       20 UNK         0.5000 
    113 O         -6.0106  -17.9135  -56.4446 O.2       20 UNK        -0.5000 
    114 N         -5.2798  -19.7613  -55.3426 N.am      21 UNK        -0.5000 
    115 CA        -3.8552  -19.4220  -55.3403 C.3       21 UNK         0.1400 
    116 CB        -3.0292  -20.7087  -55.4953 C.3       21 UNK        -0.1800 
    117 C         -3.4488  -18.6512  -54.0706 C.2       21 UNK         0.5000 
    118 O         -2.5514  -17.8109  -54.1319 O.2       21 UNK        -0.5000 
    119 N         -4.1195  -18.9429  -52.9516 N.am      22 UNK        -0.5000 
    120 CA        -3.9167  -18.3604  -51.6216 C.3       22 UNK         0.1400 
    121 C         -5.0767  -18.8117  -50.6952 C.2       22 UNK         0.5000 
    122 N         -5.4968  -17.9786  -49.7549 N.am      22 UNK        -0.7600 
    123 O         -5.5980  -19.9185  -50.8181 O.2       22 UNK        -0.5000 
    124 C124       -2.5307  -18.7131  -51.0112 C.3       23 UNK        -0.0398 
    125 S125       -2.0814  -17.6038  -49.6284 S.3       23 UNK        -0.2404 
    126 C126       -0.6086  -16.7425  -50.2812 C.3       23 UNK        -0.0205 
    127 H127        3.3879  -13.2079  -43.6902 H         1 UNK         0.0600 
    128 H128        4.4771  -11.8512  -43.9815 H         1 UNK         0.0600 
    129 H129        5.0845  -13.5100  -44.0967 H         1 UNK         0.0600 
    130 H130        3.1206  -14.7699  -45.5349 H         1 UNK         0.3000 
    131 H131        2.3926  -15.3211  -47.5331 H         1 UNK         0.0600 
    132 H132        3.3872  -14.1594  -49.6657 H         1 UNK         0.0800 
    133 H133        4.4796  -13.3623  -48.5869 H         1 UNK         0.0800 
    134 H134        4.3383  -15.8002  -51.0270 H         1 UNK         0.0800 
    135 H135        5.2524  -17.1946  -50.5350 H         1 UNK         0.0800 
    136 H136        1.8473  -15.6851  -50.4855 H         1 UNK         0.1150 
    137 H137       -0.0782  -19.4397  -49.6961 H         1 UNK         0.1150 
    138 H138        4.1851  -19.1780  -49.6485 H         1 UNK         0.1150 
    139 H139        1.2150  -21.4458  -49.5826 H         1 UNK         0.0800 
    140 H140        2.9328  -21.4026  -49.9222 H         1 UNK         0.0800 
    141 H141        3.3772  -23.2423  -46.7985 H         1 UNK         0.0800 
    142 H142        2.7028  -23.4326  -48.3850 H         1 UNK         0.0800 
    143 H143        1.4823  -24.6361  -46.6124 H         1 UNK         0.0600 
    144 H144        1.3988  -22.1865  -45.1631 H         1 UNK         0.3000 
    145 H145       -0.6326  -23.7143  -42.5615 H         1 UNK         0.0600 
    146 H146        1.3672  -22.8728  -41.3761 H         1 UNK         0.0600 
    147 H147        1.7734  -24.2709  -42.3591 H         1 UNK         0.0600 
    148 H148        2.2240  -22.6598  -42.8999 H         1 UNK         0.0600 
    149 H149        0.3790  -21.0398  -43.3769 H         1 UNK         0.3000 
    150 H150       -2.8435  -19.7259  -43.7872 H         1 UNK         0.0600 
    151 H151       -2.8094  -19.6863  -41.2720 H         1 UNK         0.0600 
    152 H152       -2.3943  -18.1282  -41.9663 H         1 UNK         0.0600 
    153 H153       -1.1278  -19.1649  -41.3114 H         1 UNK         0.0600 
    154 H154       -0.4564  -18.2873  -43.5453 H         1 UNK         0.3000 
    155 H155        0.8521  -18.9466  -46.8325 H         1 UNK         0.0600 
    156 H156       -0.9884  -17.1768  -46.7906 H         1 UNK         0.0600 
    157 H157        0.6385  -16.5640  -46.9663 H         1 UNK         0.0600 
    158 H158       -0.1777  -16.4514  -45.4078 H         1 UNK         0.0600 
    159 H159        2.0705  -17.3471  -44.9600 H         1 UNK         0.3000 
    160 H160        4.0677  -19.6717  -43.1545 H         1 UNK         0.0600 
    161 H161        4.5077  -17.5185  -45.2936 H         1 UNK         0.0600 
    162 H162        5.0863  -19.1728  -45.3310 H         1 UNK         0.0600 
    163 H163        5.7070  -18.0598  -44.1209 H         1 UNK         0.0600 
    164 H164        3.3788  -18.1583  -41.7299 H         1 UNK         0.3000 
    165 H165        2.1979  -16.5792  -40.8426 H         1 UNK         0.0600 
    166 H166        3.2436  -14.4912  -40.0212 H         1 UNK         0.0600 
    167 H167        4.4694  -15.5296  -40.7297 H         1 UNK         0.0600 
    168 H168        3.8821  -14.1361  -41.6239 H         1 UNK         0.0600 
    169 H169        1.3786  -14.0195  -41.6517 H         1 UNK         0.3000 
    170 H170       -1.3322  -14.5555  -43.6216 H         1 UNK         0.0600 
    171 H171       -2.5469  -15.6358  -41.7366 H         1 UNK         0.0600 
    172 H172       -1.8434  -14.4940  -40.5983 H         1 UNK         0.0600 
    173 H173       -2.9616  -13.9340  -41.8431 H         1 UNK         0.0600 
    174 H174       -0.7748  -12.5345  -41.6253 H         1 UNK         0.3000 
    175 H175       -0.1762  -10.3717  -42.7531 H         1 UNK         0.0600 
    176 H176        2.5767  -11.5702  -42.0324 H         1 UNK         0.0600 
    177 H177        2.0107   -9.9752  -41.5503 H         1 UNK         0.0600 
    178 H178        1.2211  -11.4068  -40.9228 H         1 UNK         0.0600 
    179 H179        1.5486  -11.0631  -44.9002 H         1 UNK         0.3000 
    180 H180        1.8489   -7.8086  -46.0995 H         1 UNK         0.0600 
    181 H181        4.2691   -9.4530  -45.1820 H         1 UNK         0.0600 
    182 H182        3.9855   -7.7519  -44.8361 H         1 UNK         0.0600 
    183 H183        4.2687   -8.2710  -46.4905 H         1 UNK         0.0600 
    184 H184        2.7952  -10.4764  -46.8470 H         1 UNK         0.3000 
    185 H185       -0.1795  -11.4946  -48.3757 H         1 UNK         0.0600 
    186 H186        0.3032   -9.8346  -50.1678 H         1 UNK         0.0600 
    187 H187        2.0260  -10.1783  -50.0550 H         1 UNK         0.0600 
    188 H188        0.9089  -11.4204  -50.6197 H         1 UNK         0.0600 
    189 H189        2.7824  -11.8231  -48.0792 H         1 UNK         0.3000 
    190 H190       -0.7680  -21.8823  -46.9020 H         1 UNK         0.3000 
    191 H191       -1.8547  -22.6403  -49.4327 H         1 UNK         0.0600 
    192 H192       -2.2221  -20.4035  -48.3661 H         1 UNK         0.0600 
    193 H193       -3.7487  -21.1701  -48.7784 H         1 UNK         0.0600 
    194 H194       -3.2031  -21.1574  -47.1130 H         1 UNK         0.0600 
    195 H195       -2.5473  -23.6708  -46.1050 H         1 UNK         0.3000 
    196 H196       -4.8691  -25.2760  -46.7457 H         1 UNK         0.0600 
    197 H197       -4.5973  -26.0868  -44.4079 H         1 UNK         0.0600 
    198 H198       -4.5224  -24.3324  -44.4747 H         1 UNK         0.0600 
    199 H199       -3.0448  -25.2706  -44.2797 H         1 UNK         0.0600 
    200 H200       -1.3797  -25.9318  -46.2158 H         1 UNK         0.3000 
    201 H201       -1.4936  -28.7448  -46.5302 H         1 UNK         0.0600 
    202 H202        0.4011  -27.5101  -45.4633 H         1 UNK         0.0600 
    203 H203        0.8560  -26.8455  -47.0321 H         1 UNK         0.0600 
    204 H204        0.9646  -28.5753  -46.7431 H         1 UNK         0.0600 
    205 H205       -0.8327  -26.1553  -48.9434 H         1 UNK         0.3000 
    206 H206       -0.4459  -27.9860  -51.1480 H         1 UNK         0.0600 
    207 H207       -0.3450  -25.8857  -52.4699 H         1 UNK         0.0600 
    208 H208       -0.9502  -24.9621  -51.1006 H         1 UNK         0.0600 
    209 H209        0.6330  -25.7355  -51.0186 H         1 UNK         0.0600 
    210 H210       -3.2527  -26.7295  -49.6233 H         1 UNK         0.3000 
    211 H211       -5.4247  -26.6245  -50.0068 H         1 UNK         0.0600 
    212 H212       -5.0271  -28.6490  -52.2763 H         1 UNK         0.0600 
    213 H213       -6.5453  -28.2427  -51.4915 H         1 UNK         0.0600 
    214 H214       -5.2806  -29.0513  -50.5787 H         1 UNK         0.0600 
    215 H215       -4.1947  -24.5147  -50.7157 H         1 UNK         0.3000 
    216 H216       -4.3262  -23.6816  -53.4585 H         1 UNK         0.0600 
    217 H217       -3.6424  -21.4914  -52.4753 H         1 UNK         0.0600 
    218 H218       -2.6811  -22.8025  -51.8222 H         1 UNK         0.0600 
    219 H219       -3.9848  -22.0977  -50.8658 H         1 UNK         0.0600 
    220 H220       -6.6280  -23.6642  -50.9020 H         1 UNK         0.3000 
    221 H221       -8.8080  -23.2760  -50.7426 H         1 UNK         0.0600 
    222 H222       -8.6950  -23.9286  -53.7323 H         1 UNK         0.0600 
    223 H223       -8.5931  -25.1114  -52.4303 H         1 UNK         0.0600 
    224 H224      -10.0687  -24.1923  -52.6632 H         1 UNK         0.0600 
    225 H225       -7.4182  -20.7391  -51.2349 H         1 UNK         0.3000 
    226 H226       -7.8504  -18.5911  -51.4317 H         1 UNK         0.0600 
    227 H227      -10.0617  -19.0365  -50.3334 H         1 UNK         0.0600 
    228 H228      -10.0891  -17.6563  -51.4171 H         1 UNK         0.0600 
    229 H229      -10.8064  -19.1739  -51.9268 H         1 UNK         0.0600 
    230 H230       -7.6766  -20.5870  -53.9100 H         1 UNK         0.3000 
    231 H231       -8.3455  -18.6971  -56.0981 H         1 UNK         0.0600 
    232 H232       -7.3147  -21.5870  -56.1350 H         1 UNK         0.0600 
    233 H233       -7.7214  -20.6222  -57.5493 H         1 UNK         0.0600 
    234 H234       -8.9759  -21.0702  -56.4034 H         1 UNK         0.0600 
    235 H235       -5.5546  -20.6230  -54.8836 H         1 UNK         0.3000 
    236 H236       -3.6260  -18.7823  -56.1954 H         1 UNK         0.0600 
    237 H237       -3.2144  -21.1749  -56.4631 H         1 UNK         0.0600 
    238 H238       -1.9603  -20.4991  -55.4362 H         1 UNK         0.0600 
    239 H239       -3.2651  -21.4428  -54.7265 H         1 UNK         0.0600 
    240 H240       -4.8612  -19.6290  -52.9848 H         1 UNK         0.3000 
    241 H241       -3.9861  -17.2779  -51.7448 H         1 UNK         0.0600 
    242 H242       -6.2372  -18.2708  -49.1378 H         1 UNK         0.3800 
    243 H243       -5.0577  -17.0822  -49.6128 H         1 UNK         0.3800 
    244 H244       -2.5099  -19.7475  -50.6669 H         1 UNK         0.0800 
    245 H245       -1.7478  -18.6482  -51.7663 H         1 UNK         0.0800 
    246 H246       -0.5459  -15.7831  -49.7651 H         1 UNK         0.0800 
    247 H247       -0.7567  -16.5109  -51.3369 H         1 UNK         0.0800 
@<TRIPOS>BOND
     1    1    2 1    
     2    1  127 1    
     3    1  128 1    
     4    1  129 1    
     5    2    3 2    
     6    2    4 am   BACKBONE|DICT|INTERRES
     7    4    5 1    
     8    4  130 1    
     9    5    6 1    
    10    5   65 1    
    11    5  131 1    
    12    6    7 1    
    13    6  132 1    
    14    6  133 1    
    15    7    8 1    
    16    8    9 1    
    17    8  134 1    
    18    8  135 1    
    19    9   10 ar   
    20    9   14 ar   
    21   10   11 ar   
    22   10  136 1    
    23   11   12 ar   
    24   11  126 1    
    25   12   13 ar   
    26   12  137 1    
    27   13   14 ar   
    28   13   15 1    
    29   14  138 1    
    30   15   16 1    
    31   15  139 1    
    32   15  140 1    
    33   16   17 1    
    34   17   18 1    
    35   17  141 1    
    36   17  142 1    
    37   18   19 1    
    38   18   67 1    
    39   18  143 1    
    40   19   20 am   BACKBONE|DICT|INTERRES
    41   19  144 1    
    42   20   21 2    
    43   20   22 1    
    44   22   23 1    
    45   22   24 1    
    46   22  145 1    
    47   23  146 1    
    48   23  147 1    
    49   23  148 1    
    50   24   25 am   BACKBONE|DICT|INTERRES
    51   24  149 1    
    52   25   26 2    
    53   25   27 1    
    54   27   28 1    
    55   27   29 1    
    56   27  150 1    
    57   28  151 1    
    58   28  152 1    
    59   28  153 1    
    60   29   30 am   BACKBONE|DICT|INTERRES
    61   29  154 1    
    62   30   31 2    
    63   30   32 1    
    64   32   33 1    
    65   32   34 1    
    66   32  155 1    
    67   33  156 1    
    68   33  157 1    
    69   33  158 1    
    70   34   35 am   BACKBONE|DICT|INTERRES
    71   34  159 1    
    72   35   36 2    
    73   35   37 1    
    74   37   38 1    
    75   37   39 1    
    76   37  160 1    
    77   38  161 1    
    78   38  162 1    
    79   38  163 1    
    80   39   40 am   BACKBONE|DICT|INTERRES
    81   39  164 1    
    82   40   41 2    
    83   40   42 1    
    84   42   43 1    
    85   42   44 1    
    86   42  165 1    
    87   43  166 1    
    88   43  167 1    
    89   43  168 1    
    90   44   45 am   BACKBONE|DICT|INTERRES
    91   44  169 1    
    92   45   46 2    
    93   45   47 1    
    94   47   48 1    
    95   47   49 1    
    96   47  170 1    
    97   48  171 1    
    98   48  172 1    
    99   48  173 1    
   100   49   50 am   BACKBONE|DICT|INTERRES
   101   49  174 1    
   102   50   51 2    
   103   50   52 1    
   104   52   53 1    
   105   52   54 1    
   106   52  175 1    
   107   53  176 1    
   108   53  177 1    
   109   53  178 1    
   110   54   55 am   BACKBONE|DICT|INTERRES
   111   54  179 1    
   112   55   56 2    
   113   55   57 1    
   114   57   58 1    
   115   57   59 1    
   116   57  180 1    
   117   58  181 1    
   118   58  182 1    
   119   58  183 1    
   120   59   60 am   BACKBONE|DICT|INTERRES
   121   59  184 1    
   122   60   61 2    
   123   60   62 1    
   124   62   63 1    
   125   62   64 1    
   126   62  185 1    
   127   63  186 1    
   128   63  187 1    
   129   63  188 1    
   130   64   65 am   BACKBONE|DICT|INTERRES
   131   64  189 1    
   132   65   66 2    
   133   67   68 2    
   134   67   69 am   BACKBONE|DICT|INTERRES
   135   69   70 1    
   136   69  190 1    
   137   70   71 1    
   138   70   72 1    
   139   70  191 1    
   140   71  192 1    
   141   71  193 1    
   142   71  194 1    
   143   72   73 2    
   144   72   74 am   BACKBONE|DICT|INTERRES
   145   74   75 1    
   146   74  195 1    
   147   75   76 1    
   148   75   77 1    
   149   75  196 1    
   150   76  197 1    
   151   76  198 1    
   152   76  199 1    
   153   77   78 2    
   154   77   79 am   BACKBONE|DICT|INTERRES
   155   79   80 1    
   156   79  200 1    
   157   80   81 1    
   158   80   82 1    
   159   80  201 1    
   160   81  202 1    
   161   81  203 1    
   162   81  204 1    
   163   82   83 2    
   164   82   84 am   BACKBONE|DICT|INTERRES
   165   84   85 1    
   166   84  205 1    
   167   85   86 1    
   168   85   87 1    
   169   85  206 1    
   170   86  207 1    
   171   86  208 1    
   172   86  209 1    
   173   87   88 2    
   174   87   89 am   BACKBONE|DICT|INTERRES
   175   89   90 1    
   176   89  210 1    
   177   90   91 1    
   178   90   92 1    
   179   90  211 1    
   180   91  212 1    
   181   91  213 1    
   182   91  214 1    
   183   92   93 2    
   184   92   94 am   BACKBONE|DICT|INTERRES
   185   94   95 1    
   186   94  215 1    
   187   95   96 1    
   188   95   97 1    
   189   95  216 1    
   190   96  217 1    
   191   96  218 1    
   192   96  219 1    
   193   97   98 2    
   194   97   99 am   BACKBONE|DICT|INTERRES
   195   99  100 1    
   196   99  220 1    
   197  100  101 1    
   198  100  102 1    
   199  100  221 1    
   200  101  222 1    
   201  101  223 1    
   202  101  224 1    
   203  102  103 2    
   204  102  104 am   BACKBONE|DICT|INTERRES
   205  104  105 1    
   206  104  225 1    
   207  105  106 1    
   208  105  107 1    
   209  105  226 1    
   210  106  227 1    
   211  106  228 1    
   212  106  229 1    
   213  107  108 2    
   214  107  109 am   BACKBONE|DICT|INTERRES
   215  109  110 1    
   216  109  230 1    
   217  110  111 1    
   218  110  112 1    
   219  110  231 1    
   220  111  232 1    
   221  111  233 1    
   222  111  234 1    
   223  112  113 2    
   224  112  114 am   BACKBONE|DICT|INTERRES
   225  114  115 1    
   226  114  235 1    
   227  115  116 1    
   228  115  117 1    
   229  115  236 1    
   230  116  237 1    
   231  116  238 1    
   232  116  239 1    
   233  117  118 2    
   234  117  119 am   BACKBONE|DICT|INTERRES
   235  119  120 1    
   236  119  240 1    
   237  120  121 1    
   238  120  124 1    
   239  120  241 1    
   240  121  122 am   BACKBONE|DICT|INTERRES
   241  121  123 2    
   242  122  242 1    
   243  122  243 1    
   244  124  125 1    
   245  124  244 1    
   246  124  245 1    
   247  125  126 1    
   248  126  246 1    
   249  126  247 1    
@<TRIPOS>SUBSTRUCTURE
     1 UNK         1 GROUP             0       ****    0 ROOT    
