@<TRIPOS>MOLECULE
3R540
247   249    1
SMALL
USER_CHARGES


@<TRIPOS>ATOM
      1 CA         -3.3518   -9.0206  -47.0296 C.3       0 UNK        -0.1800 
      2 C          -2.9323  -10.1884  -46.1486 C.2       0 UNK         0.5000 
      3 O          -3.1038  -10.1268  -44.9309 O.2       0 UNK        -0.5000 
      4 N          -2.3685  -11.2403  -46.7587 N.am      1 UNK        -0.5000 
      5 CA         -1.8997  -12.5024  -46.1602 C.3       1 UNK         0.1400 
      6 C6         -2.9841  -13.2910  -45.3763 C.3       23 UNK        -0.0398 
      7 S7         -4.4932  -13.6351  -46.3501 S.3       23 UNK        -0.2404 
      8 C8         -4.5475  -15.4642  -46.3971 C.3       23 UNK        -0.0205 
      9 C9         -3.9727  -16.1202  -47.6557 C.ar      23 UNK        -0.0193 
     10 C10        -3.1111  -15.4551  -48.5391 C.ar      23 UNK        -0.1150 
     11 C11        -2.6467  -16.0880  -49.6947 C.ar      23 UNK        -0.0193 
     12 C12        -3.0651  -17.3850  -49.9821 C.ar      23 UNK        -0.1150 
     13 C13        -3.8786  -18.0868  -49.0904 C.ar      23 UNK        -0.0193 
     14 C14        -4.3291  -17.4454  -47.9327 C.ar      23 UNK        -0.1150 
     15 C15        -4.2925  -19.5261  -49.3751 C.3       23 UNK        -0.0205 
     16 S16        -2.9829  -20.5209  -50.1698 S.3       23 UNK        -0.2404 
     17 C17        -1.7564  -20.6762  -48.8397 C.3       23 UNK        -0.0398 
     18 CA         -1.6617  -22.0951  -48.2315 C.3       11 UNK         0.1400 
     19 N          -0.5519  -22.1853  -47.2845 N.am      11 UNK        -0.5000 
     20 C          -0.1620  -23.2856  -46.6300 C.2       10 UNK         0.5000 
     21 O          -0.6619  -24.3972  -46.8027 O.2       10 UNK        -0.5000 
     22 CA          0.9352  -23.0999  -45.5651 C.3       10 UNK         0.1400 
     23 CB          2.3289  -23.1240  -46.2084 C.3       10 UNK        -0.1800 
     24 N           0.7700  -21.8665  -44.7899 N.am      10 UNK        -0.5000 
     25 C          -0.2827  -21.6085  -43.9987 C.2       9 UNK         0.5000 
     26 O          -1.2058  -22.3997  -43.8110 O.2       9 UNK        -0.5000 
     27 CA         -0.3474  -20.2151  -43.3511 C.3       9 UNK         0.1400 
     28 CB          0.6199  -20.1151  -42.1624 C.3       9 UNK        -0.1800 
     29 N          -0.0768  -19.1457  -44.3116 N.am      9 UNK        -0.5000 
     30 C          -0.8477  -18.8708  -45.3739 C.2       8 UNK         0.5000 
     31 O          -1.9100  -19.4479  -45.6091 O.2       8 UNK        -0.5000 
     32 CA         -0.3175  -17.8174  -46.3665 C.3       8 UNK         0.1400 
     33 CB         -0.6456  -16.3969  -45.8925 C.3       8 UNK        -0.1800 
     34 N           1.1228  -17.9324  -46.5942 N.am      8 UNK        -0.5000 
     35 C           1.7286  -18.9910  -47.1472 C.2       7 UNK         0.5000 
     36 O           1.1272  -19.9694  -47.5813 O.2       7 UNK        -0.5000 
     37 CA          3.2639  -18.9765  -47.1873 C.3       7 UNK         0.1400 
     38 CB          3.7796  -18.1760  -48.3923 C.3       7 UNK        -0.1800 
     39 N           3.8256  -18.4366  -45.9515 N.am      7 UNK        -0.5000 
     40 C           3.8218  -19.0856  -44.7794 C.2       6 UNK         0.5000 
     41 O           3.3719  -20.2224  -44.6286 O.2       6 UNK        -0.5000 
     42 CA          4.3839  -18.3190  -43.5679 C.3       6 UNK         0.1400 
     43 CB          5.9151  -18.4289  -43.5191 C.3       6 UNK        -0.1800 
     44 N           3.9970  -16.9061  -43.5616 N.am      6 UNK        -0.5000 
     45 C           2.7417  -16.4753  -43.3778 C.2       5 UNK         0.5000 
     46 O           1.7850  -17.2249  -43.1886 O.2       5 UNK        -0.5000 
     47 CA          2.5051  -14.9557  -43.4478 C.3       5 UNK         0.1400 
     48 CB          2.8469  -14.3026  -42.1000 C.3       5 UNK        -0.1800 
     49 N           3.2214  -14.2563  -44.5203 N.am      5 UNK        -0.5000 
     50 C           3.2177  -14.5874  -45.8210 C.2       4 UNK         0.5000 
     51 O           2.7423  -15.6330  -46.2626 O.2       4 UNK        -0.5000 
     52 CA          3.8029  -13.5422  -46.7822 C.3       4 UNK         0.1400 
     53 CB          3.6286  -13.9133  -48.2673 C.3       4 UNK        -0.1800 
     54 N           3.1511  -12.2646  -46.5158 N.am      4 UNK        -0.5000 
     55 C           3.7393  -11.0635  -46.5703 C.2       3 UNK         0.5000 
     56 O           4.9115  -10.8937  -46.9081 O.2       3 UNK        -0.5000 
     57 CA          2.8856   -9.8398  -46.1728 C.3       3 UNK         0.1400 
     58 CB          2.3888   -9.1031  -47.4264 C.3       3 UNK        -0.1800 
     59 N           1.7302  -10.1714  -45.3359 N.am      3 UNK        -0.5000 
     60 C           1.7889  -10.6602  -44.0894 C.2       2 UNK         0.5000 
     61 O           2.8405  -10.8252  -43.4707 O.2       2 UNK        -0.5000 
     62 CA          0.4534  -11.0675  -43.4352 C.3       2 UNK         0.1400 
     63 CB         -0.0247   -9.9760  -42.4666 C.3       2 UNK        -0.1800 
     64 N          -0.6250  -11.3635  -44.3840 N.am      2 UNK        -0.5000 
     65 C          -0.6239  -12.3321  -45.3090 C.2       1 UNK         0.5000 
     66 O           0.3455  -13.0574  -45.5239 O.2       1 UNK        -0.5000 
     67 C          -2.9906  -22.5519  -47.5936 C.2       11 UNK         0.5000 
     68 O          -3.6846  -23.3982  -48.1595 O.2       11 UNK        -0.5000 
     69 N          -3.3046  -22.0044  -46.4138 N.am      12 UNK        -0.5000 
     70 CA         -4.5016  -22.3464  -45.6536 C.3       12 UNK         0.1400 
     71 CB         -4.6929  -21.3201  -44.5261 C.3       12 UNK        -0.1800 
     72 C          -4.4697  -23.7825  -45.0971 C.2       12 UNK         0.5000 
     73 O          -5.4441  -24.5173  -45.2637 O.2       12 UNK        -0.5000 
     74 N          -3.3676  -24.1460  -44.4286 N.am      13 UNK        -0.5000 
     75 CA         -3.2591  -25.3788  -43.6512 C.3       13 UNK         0.1400 
     76 CB         -2.1999  -25.1956  -42.5526 C.3       13 UNK        -0.1800 
     77 C          -2.9404  -26.6263  -44.4903 C.2       13 UNK         0.5000 
     78 O          -3.5565  -27.6689  -44.2644 O.2       13 UNK        -0.5000 
     79 N          -1.9607  -26.5234  -45.3974 N.am      14 UNK        -0.5000 
     80 CA         -1.3775  -27.6706  -46.0944 C.3       14 UNK         0.1400 
     81 CB          0.1570  -27.5808  -46.0393 C.3       14 UNK        -0.1800 
     82 C          -1.8648  -27.7767  -47.5447 C.2       14 UNK         0.5000 
     83 O          -2.2228  -28.8738  -47.9757 O.2       14 UNK        -0.5000 
     84 N          -1.8676  -26.6542  -48.2787 N.am      15 UNK        -0.5000 
     85 CA         -2.2542  -26.6283  -49.6945 C.3       15 UNK         0.1400 
     86 CB         -1.7088  -25.3600  -50.3693 C.3       15 UNK        -0.1800 
     87 C          -3.7760  -26.7289  -49.9057 C.2       15 UNK         0.5000 
     88 O          -4.2019  -27.1827  -50.9673 O.2       15 UNK        -0.5000 
     89 N          -4.5542  -26.2957  -48.9015 N.am      16 UNK        -0.5000 
     90 CA         -6.0133  -26.1497  -48.9123 C.3       16 UNK         0.1400 
     91 CB         -6.7145  -27.5188  -49.0326 C.3       16 UNK        -0.1800 
     92 C          -6.4598  -25.1311  -49.9808 C.2       16 UNK         0.5000 
     93 O          -7.2828  -25.4383  -50.8461 O.2       16 UNK        -0.5000 
     94 N          -5.8569  -23.9380  -49.9065 N.am      17 UNK        -0.5000 
     95 CA         -5.9745  -22.7851  -50.7986 C.3       17 UNK         0.1400 
     96 CB         -7.4270  -22.2962  -50.9575 C.3       17 UNK        -0.1800 
     97 C          -5.2808  -22.9980  -52.1531 C.2       17 UNK         0.5000 
     98 O          -4.3772  -22.2329  -52.4861 O.2       17 UNK        -0.5000 
     99 N          -5.7162  -24.0138  -52.9121 N.am      18 UNK        -0.5000 
    100 CA        -5.1857  -24.4308  -54.2188 C.3       18 UNK         0.1400 
    101 CB        -3.8693  -25.2090  -54.0238 C.3       18 UNK        -0.1800 
    102 C         -5.0545  -23.2706  -55.2346 C.2       18 UNK         0.5000 
    103 O         -4.0132  -23.1192  -55.8761 O.2       18 UNK        -0.5000 
    104 N         -6.1184  -22.4574  -55.3278 N.am      19 UNK        -0.5000 
    105 CA        -6.2297  -21.2332  -56.1324 C.3       19 UNK         0.1400 
    106 CB        -6.1342  -21.5440  -57.6419 C.3       19 UNK        -0.1800 
    107 C         -5.2654  -20.1151  -55.6732 C.2       19 UNK         0.5000 
    108 O         -4.6928  -19.4112  -56.5067 O.2       19 UNK        -0.5000 
    109 N         -5.1345  -19.9688  -54.3459 N.am      20 UNK        -0.5000 
    110 CA        -4.3096  -18.9988  -53.6185 C.3       20 UNK         0.1400 
    111 CB        -4.7749  -17.5518  -53.8823 C.3       20 UNK        -0.1800 
    112 C         -2.8063  -19.2118  -53.8753 C.2       20 UNK         0.5000 
    113 O         -2.1347  -18.3446  -54.4384 O.2       20 UNK        -0.5000 
    114 N         -2.3104  -20.3750  -53.4343 N.am      21 UNK        -0.5000 
    115 CA        -0.9331  -20.8598  -53.5753 C.3       21 UNK         0.1400 
    116 CB        -0.8175  -22.2246  -52.8783 C.3       21 UNK        -0.1800 
    117 C          0.1804  -19.9109  -53.0775 C.2       21 UNK         0.5000 
    118 O          1.3098  -20.0263  -53.5558 O.2       21 UNK        -0.5000 
    119 N         -0.1383  -18.9901  -52.1545 N.am      22 UNK        -0.5000 
    120 CA         0.7621  -17.9000  -51.7284 C.3       22 UNK         0.1400 
    121 C          1.0278  -16.8251  -52.8309 C.2       22 UNK         0.5000 
    122 N          0.2040  -16.7104  -53.8677 N.am      22 UNK        -0.7600 
    123 O          2.0200  -16.1049  -52.7613 O.2       22 UNK        -0.5000 
    124 C124        0.3765  -17.3446  -50.3142 C.3       23 UNK        -0.0398 
    125 S125        0.0429  -15.5532  -50.0869 S.3       23 UNK        -0.2404 
    126 C126       -1.6852  -15.3828  -50.6357 C.3       23 UNK        -0.0205 
    127 H127       -2.8253   -8.1152  -46.7279 H         1 UNK         0.0600 
    128 H128       -4.4226   -8.8430  -46.9303 H         1 UNK         0.0600 
    129 H129       -3.1342   -9.2065  -48.0816 H         1 UNK         0.0600 
    130 H130       -2.2498  -11.1924  -47.7609 H         1 UNK         0.3000 
    131 H131       -1.5989  -13.1210  -47.0058 H         1 UNK         0.0600 
    132 H132       -3.2885  -12.7411  -44.4847 H         1 UNK         0.0800 
    133 H133       -2.5695  -14.2295  -45.0089 H         1 UNK         0.0800 
    134 H134       -4.0658  -15.8840  -45.5140 H         1 UNK         0.0800 
    135 H135       -5.5987  -15.7460  -46.3195 H         1 UNK         0.0800 
    136 H136       -2.7977  -14.4425  -48.3443 H         1 UNK         0.1150 
    137 H137       -2.7266  -17.8566  -50.8918 H         1 UNK         0.1150 
    138 H138       -4.9746  -17.9771  -47.2474 H         1 UNK         0.1150 
    139 H139       -4.6053  -20.0247  -48.4563 H         1 UNK         0.0800 
    140 H140       -5.1635  -19.5075  -50.0308 H         1 UNK         0.0800 
    141 H141       -1.9626  -19.9328  -48.0734 H         1 UNK         0.0800 
    142 H142       -0.7944  -20.4024  -49.2732 H         1 UNK         0.0800 
    143 H143       -1.4264  -22.7823  -49.0427 H         1 UNK         0.0600 
    144 H144       -0.0230  -21.3286  -47.1385 H         1 UNK         0.3000 
    145 H145        0.8661  -23.9408  -44.8719 H         1 UNK         0.0600 
    146 H146        3.1123  -23.0616  -45.4529 H         1 UNK         0.0600 
    147 H147        2.4856  -24.0486  -46.7654 H         1 UNK         0.0600 
    148 H148        2.4676  -22.2944  -46.9020 H         1 UNK         0.0600 
    149 H149        1.5054  -21.1729  -44.8724 H         1 UNK         0.3000 
    150 H150       -1.3619  -20.0736  -42.9724 H         1 UNK         0.0600 
    151 H151        0.5022  -19.1660  -41.6394 H         1 UNK         0.0600 
    152 H152        0.4334  -20.9097  -41.4389 H         1 UNK         0.0600 
    153 H153        1.6601  -20.1951  -42.4785 H         1 UNK         0.0600 
    154 H154        0.7480  -18.5781  -44.1407 H         1 UNK         0.3000 
    155 H155       -0.8216  -17.9740  -47.3218 H         1 UNK         0.0600 
    156 H156       -0.1303  -16.1487  -44.9650 H         1 UNK         0.0600 
    157 H157       -1.7143  -16.2920  -45.7151 H         1 UNK         0.0600 
    158 H158       -0.3630  -15.6567  -46.6419 H         1 UNK         0.0600 
    159 H159        1.6961  -17.1380  -46.3163 H         1 UNK         0.3000 
    160 H160        3.6071  -20.0074  -47.2976 H         1 UNK         0.0600 
    161 H161        3.4231  -17.1462  -48.3779 H         1 UNK         0.0600 
    162 H162        3.4443  -18.6256  -49.3276 H         1 UNK         0.0600 
    163 H163        4.8691  -18.1544  -48.4159 H         1 UNK         0.0600 
    164 H164        4.1214  -17.4707  -45.9728 H         1 UNK         0.3000 
    165 H165        3.9813  -18.7852  -42.6660 H         1 UNK         0.0600 
    166 H166        6.3156  -17.9584  -42.6210 H         1 UNK         0.0600 
    167 H167        6.2307  -19.4730  -43.5062 H         1 UNK         0.0600 
    168 H168        6.3821  -17.9553  -44.3836 H         1 UNK         0.0600 
    169 H169        4.7249  -16.2254  -43.7220 H         1 UNK         0.3000 
    170 H170        1.4400  -14.8050  -43.6321 H         1 UNK         0.0600 
    171 H171        2.3039  -14.7817  -41.2841 H         1 UNK         0.0600 
    172 H172        3.9115  -14.3780  -41.8753 H         1 UNK         0.0600 
    173 H173        2.5785  -13.2469  -42.0892 H         1 UNK         0.0600 
    174 H174        3.6291  -13.3675  -44.2665 H         1 UNK         0.3000 
    175 H175        4.8700  -13.4722  -46.5620 H         1 UNK         0.0600 
    176 H176        2.5773  -14.0453  -48.5273 H         1 UNK         0.0600 
    177 H177        4.0401  -13.1421  -48.9184 H         1 UNK         0.0600 
    178 H178        4.1469  -14.8433  -48.5008 H         1 UNK         0.0600 
    179 H179        2.1883  -12.3327  -46.1996 H         1 UNK         0.3000 
    180 H180        3.5283   -9.1624  -45.6070 H         1 UNK         0.0600 
    181 H181        1.7243   -9.7290  -48.0235 H         1 UNK         0.0600 
    182 H182        3.2237   -8.8093  -48.0641 H         1 UNK         0.0600 
    183 H183        1.8484   -8.1938  -47.1625 H         1 UNK         0.0600 
    184 H184        0.8204  -10.0727  -45.7611 H         1 UNK         0.3000 
    185 H185        0.6392  -11.9768  -42.8609 H         1 UNK         0.0600 
    186 H186       -0.9168  -10.2920  -41.9254 H         1 UNK         0.0600 
    187 H187        0.7408   -9.7472  -41.7238 H         1 UNK         0.0600 
    188 H188       -0.2617   -9.0499  -42.9919 H         1 UNK         0.0600 
    189 H189       -1.4674  -10.7976  -44.3128 H         1 UNK         0.3000 
    190 H190       -2.6930  -21.2988  -46.0152 H         1 UNK         0.3000 
    191 H191       -5.3598  -22.2699  -46.3248 H         1 UNK         0.0600 
    192 H192       -4.8052  -20.3127  -44.9277 H         1 UNK         0.0600 
    193 H193       -5.5875  -21.5410  -43.9427 H         1 UNK         0.0600 
    194 H194       -3.8449  -21.3109  -43.8402 H         1 UNK         0.0600 
    195 H195       -2.6048  -23.4788  -44.3285 H         1 UNK         0.3000 
    196 H196       -4.2153  -25.5544  -43.1530 H         1 UNK         0.0600 
    197 H197       -2.1332  -26.0827  -41.9214 H         1 UNK         0.0600 
    198 H198       -2.4447  -24.3533  -41.9052 H         1 UNK         0.0600 
    199 H199       -1.2092  -25.0170  -42.9726 H         1 UNK         0.0600 
    200 H200       -1.5456  -25.6184  -45.5959 H         1 UNK         0.3000 
    201 H201       -1.6574  -28.5980  -45.5900 H         1 UNK         0.0600 
    202 H202        0.5113  -27.5399  -45.0093 H         1 UNK         0.0600 
    203 H203        0.5381  -26.7016  -46.5584 H         1 UNK         0.0600 
    204 H204        0.6133  -28.4553  -46.5047 H         1 UNK         0.0600 
    205 H205       -1.5391  -25.7884  -47.8603 H         1 UNK         0.3000 
    206 H206       -1.7916  -27.4871  -50.1860 H         1 UNK         0.0600 
    207 H207       -0.6792  -25.1533  -50.0769 H         1 UNK         0.0600 
    208 H208       -1.7252  -25.4680  -51.4543 H         1 UNK         0.0600 
    209 H209       -2.3168  -24.4884  -50.1339 H         1 UNK         0.0600 
    210 H210       -4.0836  -25.9047  -48.0968 H         1 UNK         0.3000 
    211 H211       -6.2870  -25.7247  -47.9452 H         1 UNK         0.0600 
    212 H212       -6.5318  -27.9908  -49.9982 H         1 UNK         0.0600 
    213 H213       -7.7941  -27.4112  -48.9234 H         1 UNK         0.0600 
    214 H214       -6.3754  -28.2036  -48.2553 H         1 UNK         0.0600 
    215 H215       -5.1354  -23.8297  -49.1946 H         1 UNK         0.3000 
    216 H216       -5.4333  -21.9897  -50.2906 H         1 UNK         0.0600 
    217 H217       -7.4597  -21.3638  -51.5223 H         1 UNK         0.0600 
    218 H218       -7.8839  -22.1031  -49.9870 H         1 UNK         0.0600 
    219 H219       -8.0533  -23.0154  -51.4852 H         1 UNK         0.0600 
    220 H220       -6.4468  -24.5977  -52.5172 H         1 UNK         0.3000 
    221 H221       -5.9147  -25.1221  -54.6436 H         1 UNK         0.0600 
    222 H222       -3.1030  -24.5928  -53.5559 H         1 UNK         0.0600 
    223 H223       -4.0228  -26.0839  -53.3936 H         1 UNK         0.0600 
    224 H224       -3.4735  -25.5652  -54.9755 H         1 UNK         0.0600 
    225 H225       -6.9197  -22.6735  -54.7513 H         1 UNK         0.3000 
    226 H226       -7.2338  -20.8474  -55.9501 H         1 UNK         0.0600 
    227 H227       -6.8354  -22.3276  -57.9287 H         1 UNK         0.0600 
    228 H228       -6.3745  -20.6621  -58.2368 H         1 UNK         0.0600 
    229 H229       -5.1334  -21.8664  -57.9301 H         1 UNK         0.0600 
    230 H230       -5.5757  -20.6667  -53.7642 H         1 UNK         0.3000 
    231 H231       -4.4734  -19.1971  -52.5585 H         1 UNK         0.0600 
    232 H232       -4.6260  -17.2551  -54.9208 H         1 UNK         0.0600 
    233 H233       -4.2197  -16.8484  -53.2605 H         1 UNK         0.0600 
    234 H234       -5.8318  -17.4291  -53.6463 H         1 UNK         0.0600 
    235 H235       -2.9607  -21.0267  -52.9995 H         1 UNK         0.3000 
    236 H236       -0.7641  -21.0106  -54.6431 H         1 UNK         0.0600 
    237 H237       -1.5192  -22.9404  -53.3035 H         1 UNK         0.0600 
    238 H238        0.1826  -22.6440  -52.9947 H         1 UNK         0.0600 
    239 H239       -1.0207  -22.1513  -51.8096 H         1 UNK         0.0600 
    240 H240       -1.0874  -18.9653  -51.8164 H         1 UNK         0.3000 
    241 H241        1.7370  -18.3744  -51.5945 H         1 UNK         0.0600 
    242 H242       -0.6027  -17.3195  -53.9781 H         1 UNK         0.3800 
    243 H243        0.4006  -16.0212  -54.5753 H         1 UNK         0.3800 
    244 H244       -0.4414  -17.9145  -49.8773 H         1 UNK         0.0800 
    245 H245        1.2103  -17.5495  -49.6452 H         1 UNK         0.0800 
    246 H246       -1.7852  -15.7682  -51.6517 H         1 UNK         0.0800 
    247 H247       -1.9356  -14.3224  -50.6870 H         1 UNK         0.0800 
@<TRIPOS>BOND
     1    1    2 1    
     2    1  127 1    
     3    1  128 1    
     4    1  129 1    
     5    2    3 2    
     6    2    4 am   BACKBONE|DICT|INTERRES
     7    4    5 1    
     8    4  130 1    
     9    5    6 1    
    10    5   65 1    
    11    5  131 1    
    12    6    7 1    
    13    6  132 1    
    14    6  133 1    
    15    7    8 1    
    16    8    9 1    
    17    8  134 1    
    18    8  135 1    
    19    9   10 ar   
    20    9   14 ar   
    21   10   11 ar   
    22   10  136 1    
    23   11   12 ar   
    24   11  126 1    
    25   12   13 ar   
    26   12  137 1    
    27   13   14 ar   
    28   13   15 1    
    29   14  138 1    
    30   15   16 1    
    31   15  139 1    
    32   15  140 1    
    33   16   17 1    
    34   17   18 1    
    35   17  141 1    
    36   17  142 1    
    37   18   19 1    
    38   18   67 1    
    39   18  143 1    
    40   19   20 am   BACKBONE|DICT|INTERRES
    41   19  144 1    
    42   20   21 2    
    43   20   22 1    
    44   22   23 1    
    45   22   24 1    
    46   22  145 1    
    47   23  146 1    
    48   23  147 1    
    49   23  148 1    
    50   24   25 am   BACKBONE|DICT|INTERRES
    51   24  149 1    
    52   25   26 2    
    53   25   27 1    
    54   27   28 1    
    55   27   29 1    
    56   27  150 1    
    57   28  151 1    
    58   28  152 1    
    59   28  153 1    
    60   29   30 am   BACKBONE|DICT|INTERRES
    61   29  154 1    
    62   30   31 2    
    63   30   32 1    
    64   32   33 1    
    65   32   34 1    
    66   32  155 1    
    67   33  156 1    
    68   33  157 1    
    69   33  158 1    
    70   34   35 am   BACKBONE|DICT|INTERRES
    71   34  159 1    
    72   35   36 2    
    73   35   37 1    
    74   37   38 1    
    75   37   39 1    
    76   37  160 1    
    77   38  161 1    
    78   38  162 1    
    79   38  163 1    
    80   39   40 am   BACKBONE|DICT|INTERRES
    81   39  164 1    
    82   40   41 2    
    83   40   42 1    
    84   42   43 1    
    85   42   44 1    
    86   42  165 1    
    87   43  166 1    
    88   43  167 1    
    89   43  168 1    
    90   44   45 am   BACKBONE|DICT|INTERRES
    91   44  169 1    
    92   45   46 2    
    93   45   47 1    
    94   47   48 1    
    95   47   49 1    
    96   47  170 1    
    97   48  171 1    
    98   48  172 1    
    99   48  173 1    
   100   49   50 am   BACKBONE|DICT|INTERRES
   101   49  174 1    
   102   50   51 2    
   103   50   52 1    
   104   52   53 1    
   105   52   54 1    
   106   52  175 1    
   107   53  176 1    
   108   53  177 1    
   109   53  178 1    
   110   54   55 am   BACKBONE|DICT|INTERRES
   111   54  179 1    
   112   55   56 2    
   113   55   57 1    
   114   57   58 1    
   115   57   59 1    
   116   57  180 1    
   117   58  181 1    
   118   58  182 1    
   119   58  183 1    
   120   59   60 am   BACKBONE|DICT|INTERRES
   121   59  184 1    
   122   60   61 2    
   123   60   62 1    
   124   62   63 1    
   125   62   64 1    
   126   62  185 1    
   127   63  186 1    
   128   63  187 1    
   129   63  188 1    
   130   64   65 am   BACKBONE|DICT|INTERRES
   131   64  189 1    
   132   65   66 2    
   133   67   68 2    
   134   67   69 am   BACKBONE|DICT|INTERRES
   135   69   70 1    
   136   69  190 1    
   137   70   71 1    
   138   70   72 1    
   139   70  191 1    
   140   71  192 1    
   141   71  193 1    
   142   71  194 1    
   143   72   73 2    
   144   72   74 am   BACKBONE|DICT|INTERRES
   145   74   75 1    
   146   74  195 1    
   147   75   76 1    
   148   75   77 1    
   149   75  196 1    
   150   76  197 1    
   151   76  198 1    
   152   76  199 1    
   153   77   78 2    
   154   77   79 am   BACKBONE|DICT|INTERRES
   155   79   80 1    
   156   79  200 1    
   157   80   81 1    
   158   80   82 1    
   159   80  201 1    
   160   81  202 1    
   161   81  203 1    
   162   81  204 1    
   163   82   83 2    
   164   82   84 am   BACKBONE|DICT|INTERRES
   165   84   85 1    
   166   84  205 1    
   167   85   86 1    
   168   85   87 1    
   169   85  206 1    
   170   86  207 1    
   171   86  208 1    
   172   86  209 1    
   173   87   88 2    
   174   87   89 am   BACKBONE|DICT|INTERRES
   175   89   90 1    
   176   89  210 1    
   177   90   91 1    
   178   90   92 1    
   179   90  211 1    
   180   91  212 1    
   181   91  213 1    
   182   91  214 1    
   183   92   93 2    
   184   92   94 am   BACKBONE|DICT|INTERRES
   185   94   95 1    
   186   94  215 1    
   187   95   96 1    
   188   95   97 1    
   189   95  216 1    
   190   96  217 1    
   191   96  218 1    
   192   96  219 1    
   193   97   98 2    
   194   97   99 am   BACKBONE|DICT|INTERRES
   195   99  100 1    
   196   99  220 1    
   197  100  101 1    
   198  100  102 1    
   199  100  221 1    
   200  101  222 1    
   201  101  223 1    
   202  101  224 1    
   203  102  103 2    
   204  102  104 am   BACKBONE|DICT|INTERRES
   205  104  105 1    
   206  104  225 1    
   207  105  106 1    
   208  105  107 1    
   209  105  226 1    
   210  106  227 1    
   211  106  228 1    
   212  106  229 1    
   213  107  108 2    
   214  107  109 am   BACKBONE|DICT|INTERRES
   215  109  110 1    
   216  109  230 1    
   217  110  111 1    
   218  110  112 1    
   219  110  231 1    
   220  111  232 1    
   221  111  233 1    
   222  111  234 1    
   223  112  113 2    
   224  112  114 am   BACKBONE|DICT|INTERRES
   225  114  115 1    
   226  114  235 1    
   227  115  116 1    
   228  115  117 1    
   229  115  236 1    
   230  116  237 1    
   231  116  238 1    
   232  116  239 1    
   233  117  118 2    
   234  117  119 am   BACKBONE|DICT|INTERRES
   235  119  120 1    
   236  119  240 1    
   237  120  121 1    
   238  120  124 1    
   239  120  241 1    
   240  121  122 am   BACKBONE|DICT|INTERRES
   241  121  123 2    
   242  122  242 1    
   243  122  243 1    
   244  124  125 1    
   245  124  244 1    
   246  124  245 1    
   247  125  126 1    
   248  126  246 1    
   249  126  247 1    
@<TRIPOS>SUBSTRUCTURE
     1 UNK         1 GROUP             0       ****    0 ROOT    
