@<TRIPOS>MOLECULE
3R540
247   249    1
SMALL
USER_CHARGES


@<TRIPOS>ATOM
      1 CA          4.7581  -15.6229  -49.5927 C.3       0 UNK        -0.1800 
      2 C           5.3566  -14.2956  -50.0535 C.2       0 UNK         0.5000 
      3 O           6.2384  -14.2990  -50.9102 O.2       0 UNK        -0.5000 
      4 N           4.9304  -13.1425  -49.5230 N.am      1 UNK        -0.5000 
      5 CA          3.9209  -12.9530  -48.4794 C.3       1 UNK         0.1400 
      6 C6          2.6205  -12.3017  -49.0202 C.3       23 UNK        -0.0398 
      7 S7          1.6812  -13.4300  -50.1013 S.3       23 UNK        -0.2404 
      8 C8          0.5849  -14.2067  -48.8757 C.3       23 UNK        -0.0205 
      9 C9         -0.0988  -15.4401  -49.4395 C.ar      23 UNK        -0.0193 
     10 C10        -1.3697  -15.3484  -50.0113 C.ar      23 UNK        -0.1150 
     11 C11        -1.9951  -16.4800  -50.5433 C.ar      23 UNK        -0.0193 
     12 C12        -1.3347  -17.7143  -50.4846 C.ar      23 UNK        -0.1150 
     13 C13        -0.0679  -17.8262  -49.9020 C.ar      23 UNK        -0.0193 
     14 C14         0.5465  -16.6776  -49.3912 C.ar      23 UNK        -0.1150 
     15 C15         0.6358  -19.1829  -49.8891 C.3       23 UNK        -0.0205 
     16 S16         1.6964  -19.4798  -48.4303 S.3       23 UNK        -0.2404 
     17 C17         0.4658  -19.6367  -47.0925 C.3       23 UNK        -0.0398 
     18 CA          0.2483  -21.1105  -46.6718 C.3       11 UNK         0.1400 
     19 N          -0.2631  -21.2271  -45.3052 N.am      11 UNK        -0.5000 
     20 C          -0.4210  -22.3845  -44.6458 C.2       10 UNK         0.5000 
     21 O          -0.0603  -23.4785  -45.0809 O.2       10 UNK        -0.5000 
     22 CA         -1.1615  -22.3104  -43.2999 C.3       10 UNK         0.1400 
     23 CB         -0.1983  -21.9399  -42.1632 C.3       10 UNK        -0.1800 
     24 N          -2.2704  -21.3548  -43.3448 N.am      10 UNK        -0.5000 
     25 C          -3.4023  -21.5506  -44.0374 C.2       9 UNK         0.5000 
     26 O          -3.6440  -22.5766  -44.6716 O.2       9 UNK        -0.5000 
     27 CA         -4.4136  -20.3900  -44.0614 C.3       9 UNK         0.1400 
     28 CB         -5.3002  -20.4136  -42.8080 C.3       9 UNK        -0.1800 
     29 N          -3.7641  -19.0841  -44.1739 N.am      9 UNK        -0.5000 
     30 C          -3.0969  -18.6633  -45.2575 C.2       8 UNK         0.5000 
     31 O          -3.0000  -19.3154  -46.2955 O.2       8 UNK        -0.5000 
     32 CA         -2.3665  -17.3159  -45.1442 C.3       8 UNK         0.1400 
     33 CB         -3.2719  -16.1589  -45.5866 C.3       8 UNK        -0.1800 
     34 N          -1.8591  -17.0484  -43.7970 N.am      8 UNK        -0.5000 
     35 C          -0.8913  -17.7464  -43.1897 C.2       7 UNK         0.5000 
     36 O          -0.3734  -18.7480  -43.6881 O.2       7 UNK        -0.5000 
     37 CA         -0.4340  -17.2402  -41.8037 C.3       7 UNK         0.1400 
     38 CB          0.8863  -17.8828  -41.3424 C.3       7 UNK        -0.1800 
     39 N          -0.2804  -15.7846  -41.7644 N.am      7 UNK        -0.5000 
     40 C          -1.2648  -14.8982  -41.5641 C.2       6 UNK         0.5000 
     41 O          -2.4460  -15.2144  -41.4222 O.2       6 UNK        -0.5000 
     42 CA         -0.8657  -13.4150  -41.5807 C.3       6 UNK         0.1400 
     43 CB         -0.0820  -13.0383  -40.3133 C.3       6 UNK        -0.1800 
     44 N          -0.0551  -13.1265  -42.7609 N.am      6 UNK        -0.5000 
     45 C          -0.5509  -12.7636  -43.9526 C.2       5 UNK         0.5000 
     46 O          -1.7420  -12.5311  -44.1593 O.2       5 UNK        -0.5000 
     47 CA          0.4550  -12.6603  -45.1161 C.3       5 UNK         0.1400 
     48 CB          1.0617  -11.2509  -45.1697 C.3       5 UNK        -0.1800 
     49 N           1.5225  -13.6597  -45.0111 N.am      5 UNK        -0.5000 
     50 C           1.3125  -14.9765  -45.1733 C.2       4 UNK         0.5000 
     51 O           0.2517  -15.4342  -45.5888 O.2       4 UNK        -0.5000 
     52 CA          2.4467  -15.9595  -44.8166 C.3       4 UNK         0.1400 
     53 CB          3.0317  -16.5877  -46.0891 C.3       4 UNK        -0.1800 
     54 N           3.5379  -15.3748  -44.0381 N.am      4 UNK        -0.5000 
     55 C           3.4435  -14.8508  -42.8080 C.2       3 UNK         0.5000 
     56 O           2.4059  -14.8479  -42.1448 O.2       3 UNK        -0.5000 
     57 CA          4.7046  -14.1409  -42.2725 C.3       3 UNK         0.1400 
     58 CB          5.5442  -15.1064  -41.4238 C.3       3 UNK        -0.1800 
     59 N           5.5428  -13.5751  -43.3402 N.am      3 UNK        -0.5000 
     60 C           5.1387  -12.6326  -44.2059 C.2       2 UNK         0.5000 
     61 O           4.0279  -12.1053  -44.1439 O.2       2 UNK        -0.5000 
     62 CA          6.0775  -12.2751  -45.3767 C.3       2 UNK         0.1400 
     63 CB          7.5021  -12.8474  -45.2367 C.3       2 UNK        -0.1800 
     64 N           5.4857  -12.7787  -46.6169 N.am      2 UNK        -0.5000 
     65 C           4.5704  -12.1322  -47.3521 C.2       1 UNK         0.5000 
     66 O           4.2608  -10.9519  -47.1844 O.2       1 UNK        -0.5000 
     67 C          -0.6566  -21.8602  -47.6696 C.2       11 UNK         0.5000 
     68 O          -0.1601  -22.6660  -48.4560 O.2       11 UNK        -0.5000 
     69 N          -1.9730  -21.6239  -47.5839 N.am      12 UNK        -0.5000 
     70 CA         -2.9818  -22.2717  -48.4168 C.3       12 UNK         0.1400 
     71 CB         -4.3434  -21.6020  -48.2056 C.3       12 UNK        -0.1800 
     72 C          -3.0793  -23.7900  -48.2064 C.2       12 UNK         0.5000 
     73 O          -3.2900  -24.5110  -49.1787 O.2       12 UNK        -0.5000 
     74 N          -2.8883  -24.2581  -46.9662 N.am      13 UNK        -0.5000 
     75 CA         -2.8312  -25.6819  -46.6291 C.3       13 UNK         0.1400 
     76 CB         -2.8065  -25.8498  -45.1024 C.3       13 UNK        -0.1800 
     77 C          -1.6363  -26.4076  -47.2795 C.2       13 UNK         0.5000 
     78 O          -1.7706  -27.5722  -47.6567 O.2       13 UNK        -0.5000 
     79 N          -0.5024  -25.7067  -47.4155 N.am      14 UNK        -0.5000 
     80 CA          0.6952  -26.2022  -48.0907 C.3       14 UNK         0.1400 
     81 CB          1.9219  -25.4263  -47.5850 C.3       14 UNK        -0.1800 
     82 C           0.5766  -26.1090  -49.6235 C.2       14 UNK         0.5000 
     83 O           0.9009  -27.0731  -50.3178 O.2       14 UNK        -0.5000 
     84 N           0.1294  -24.9488  -50.1223 N.am      15 UNK        -0.5000 
     85 CA          0.0280  -24.6335  -51.5492 C.3       15 UNK         0.1400 
     86 CB         -0.0882  -23.1116  -51.7063 C.3       15 UNK        -0.1800 
     87 C          -1.1363  -25.3393  -52.2697 C.2       15 UNK         0.5000 
     88 O          -1.0375  -25.5840  -53.4732 O.2       15 UNK        -0.5000 
     89 N          -2.2144  -25.6446  -51.5348 N.am      16 UNK        -0.5000 
     90 CA         -3.4468  -26.2860  -51.9941 C.3       16 UNK         0.1400 
     91 CB         -3.1824  -27.7640  -52.3605 C.3       16 UNK        -0.1800 
     92 C          -4.1369  -25.4617  -53.1015 C.2       16 UNK         0.5000 
     93 O          -4.4020  -24.2745  -52.8955 O.2       16 UNK        -0.5000 
     94 N          -4.4039  -26.0850  -54.2567 N.am      17 UNK        -0.5000 
     95 CA         -5.0904  -25.4990  -55.4115 C.3       17 UNK         0.1400 
     96 CB         -5.3307  -26.6011  -56.4545 C.3       17 UNK        -0.1800 
     97 C          -4.3695  -24.2969  -56.0548 C.2       17 UNK         0.5000 
     98 O          -5.0211  -23.5110  -56.7430 O.2       17 UNK        -0.5000 
     99 N          -3.0569  -24.1555  -55.8154 N.am      18 UNK        -0.5000 
    100 CA        -2.2666  -22.9998  -56.2473 C.3       18 UNK         0.1400 
    101 CB        -0.7714  -23.3286  -56.1236 C.3       18 UNK        -0.1800 
    102 C         -2.6085  -21.7167  -55.4626 C.2       18 UNK         0.5000 
    103 O         -2.4537  -20.6208  -56.0026 O.2       18 UNK        -0.5000 
    104 N         -3.0738  -21.8765  -54.2169 N.am      19 UNK        -0.5000 
    105 CA        -3.5673  -20.7974  -53.3651 C.3       19 UNK         0.1400 
    106 CB        -3.1356  -21.0698  -51.9187 C.3       19 UNK        -0.1800 
    107 C         -5.0955  -20.6834  -53.4626 C.2       19 UNK         0.5000 
    108 O         -5.6095  -19.5823  -53.6555 O.2       19 UNK        -0.5000 
    109 N         -5.7822  -21.8304  -53.3462 N.am      20 UNK        -0.5000 
    110 CA        -7.2378  -21.9922  -53.3638 C.3       20 UNK         0.1400 
    111 CB        -7.8250  -21.6079  -54.7385 C.3       20 UNK        -0.1800 
    112 C         -7.9216  -21.2802  -52.1763 C.2       20 UNK         0.5000 
    113 O         -8.8141  -20.4538  -52.3739 O.2       20 UNK        -0.5000 
    114 N         -7.4909  -21.6530  -50.9610 N.am      21 UNK        -0.5000 
    115 CA        -8.0514  -21.2660  -49.6601 C.3       21 UNK         0.1400 
    116 CB        -9.4971  -21.7873  -49.5099 C.3       21 UNK        -0.1800 
    117 C         -7.9181  -19.7597  -49.3504 C.2       21 UNK         0.5000 
    118 O         -8.9224  -19.0639  -49.1870 O.2       21 UNK        -0.5000 
    119 N         -6.6677  -19.2916  -49.2449 N.am      22 UNK        -0.5000 
    120 CA        -6.3137  -17.9242  -48.8114 C.3       22 UNK         0.1400 
    121 C         -6.5886  -17.6220  -47.3068 C.2       22 UNK         0.5000 
    122 N         -6.8495  -18.6101  -46.4591 N.am      22 UNK        -0.7600 
    123 O         -6.5728  -16.4630  -46.9031 O.2       22 UNK        -0.5000 
    124 C124       -4.8488  -17.5560  -49.1647 C.3       23 UNK        -0.0398 
    125 S125       -4.5026  -17.7117  -50.9457 S.3       23 UNK        -0.2404 
    126 C126       -3.3502  -16.3287  -51.2322 C.3       23 UNK        -0.0205 
    127 H127        3.6696  -15.6036  -49.6275 H         1 UNK         0.0600 
    128 H128        5.0782  -15.8543  -48.5774 H         1 UNK         0.0600 
    129 H129        5.0901  -16.4354  -50.2392 H         1 UNK         0.0600 
    130 H130        5.3687  -12.2868  -49.8348 H         1 UNK         0.3000 
    131 H131        3.6435  -13.9021  -48.0221 H         1 UNK         0.0600 
    132 H132        1.9680  -11.9910  -48.2029 H         1 UNK         0.0800 
    133 H133        2.8506  -11.3952  -49.5824 H         1 UNK         0.0800 
    134 H134        1.1696  -14.4901  -48.0019 H         1 UNK         0.0800 
    135 H135       -0.1557  -13.4825  -48.5333 H         1 UNK         0.0800 
    136 H136       -1.8622  -14.3873  -50.0610 H         1 UNK         0.1150 
    137 H137       -1.8017  -18.5898  -50.9108 H         1 UNK         0.1150 
    138 H138        1.5364  -16.7386  -48.9640 H         1 UNK         0.1150 
    139 H139       -0.0936  -19.9910  -49.9628 H         1 UNK         0.0800 
    140 H140        1.2567  -19.2503  -50.7831 H         1 UNK         0.0800 
    141 H141        0.8518  -19.0661  -46.2466 H         1 UNK         0.0800 
    142 H142       -0.4695  -19.1487  -47.3720 H         1 UNK         0.0800 
    143 H143        1.2188  -21.6120  -46.6740 H         1 UNK         0.0600 
    144 H144       -0.5317  -20.3656  -44.8402 H         1 UNK         0.3000 
    145 H145       -1.5720  -23.2998  -43.0868 H         1 UNK         0.0600 
    146 H146       -0.7168  -21.8815  -41.2062 H         1 UNK         0.0600 
    147 H147        0.5875  -22.6896  -42.0628 H         1 UNK         0.0600 
    148 H148        0.2885  -20.9822  -42.3435 H         1 UNK         0.0600 
    149 H149       -2.1247  -20.4666  -42.8894 H         1 UNK         0.3000 
    150 H150       -5.0545  -20.5266  -44.9347 H         1 UNK         0.0600 
    151 H151       -5.8111  -21.3725  -42.7103 H         1 UNK         0.0600 
    152 H152       -6.0679  -19.6410  -42.8541 H         1 UNK         0.0600 
    153 H153       -4.7194  -20.2565  -41.8983 H         1 UNK         0.0600 
    154 H154       -3.7931  -18.4836  -43.3633 H         1 UNK         0.3000 
    155 H155       -1.5129  -17.3562  -45.8234 H         1 UNK         0.0600 
    156 H156       -3.6221  -16.3088  -46.6079 H         1 UNK         0.0600 
    157 H157       -2.7344  -15.2103  -45.5657 H         1 UNK         0.0600 
    158 H158       -4.1504  -16.0643  -44.9471 H         1 UNK         0.0600 
    159 H159       -2.2430  -16.2483  -43.3103 H         1 UNK         0.3000 
    160 H160       -1.2072  -17.5315  -41.0899 H         1 UNK         0.0600 
    161 H161        1.6995  -17.6847  -42.0407 H         1 UNK         0.0600 
    162 H162        0.7870  -18.9639  -41.2492 H         1 UNK         0.0600 
    163 H163        1.1878  -17.5041  -40.3657 H         1 UNK         0.0600 
    164 H164        0.6667  -15.4358  -41.8926 H         1 UNK         0.3000 
    165 H165       -1.7786  -12.8158  -41.6015 H         1 UNK         0.0600 
    166 H166        0.8517  -13.5953  -40.2284 H         1 UNK         0.0600 
    167 H167        0.1622  -11.9760  -40.3052 H         1 UNK         0.0600 
    168 H168       -0.6693  -13.2435  -39.4174 H         1 UNK         0.0600 
    169 H169        0.9307  -13.3437  -42.6908 H         1 UNK         0.3000 
    170 H170       -0.0882  -12.8323  -46.0476 H         1 UNK         0.0600 
    171 H171        1.7849  -11.1571  -45.9781 H         1 UNK         0.0600 
    172 H172        0.2877  -10.5009  -45.3368 H         1 UNK         0.0600 
    173 H173        1.5686  -10.9947  -44.2387 H         1 UNK         0.0600 
    174 H174        2.4202  -13.3275  -44.6766 H         1 UNK         0.3000 
    175 H175        1.9985  -16.7564  -44.2210 H         1 UNK         0.0600 
    176 H176        3.7409  -17.3803  -45.8500 H         1 UNK         0.0600 
    177 H177        2.2468  -17.0325  -46.7003 H         1 UNK         0.0600 
    178 H178        3.5451  -15.8488  -46.7017 H         1 UNK         0.0600 
    179 H179        4.4367  -15.3312  -44.4935 H         1 UNK         0.3000 
    180 H180        4.3722  -13.3199  -41.6339 H         1 UNK         0.0600 
    181 H181        5.9245  -15.9389  -42.0170 H         1 UNK         0.0600 
    182 H182        4.9514  -15.5267  -40.6100 H         1 UNK         0.0600 
    183 H183        6.3963  -14.5969  -40.9735 H         1 UNK         0.0600 
    184 H184        6.4681  -13.9659  -43.4449 H         1 UNK         0.3000 
    185 H185        6.1527  -11.1863  -45.4138 H         1 UNK         0.0600 
    186 H186        8.1339  -12.5127  -46.0598 H         1 UNK         0.0600 
    187 H187        7.9755  -12.5070  -44.3147 H         1 UNK         0.0600 
    188 H188        7.5133  -13.9381  -45.2400 H         1 UNK         0.0600 
    189 H189        5.7158  -13.7304  -46.8614 H         1 UNK         0.3000 
    190 H190       -2.3096  -20.9091  -46.9428 H         1 UNK         0.3000 
    191 H191       -2.6809  -22.1129  -49.4504 H         1 UNK         0.0600 
    192 H192       -5.0930  -22.0429  -48.8621 H         1 UNK         0.0600 
    193 H193       -4.2873  -20.5387  -48.4299 H         1 UNK         0.0600 
    194 H194       -4.6920  -21.7119  -47.1784 H         1 UNK         0.0600 
    195 H195       -2.8015  -23.5995  -46.1993 H         1 UNK         0.3000 
    196 H196       -3.7438  -26.1489  -47.0052 H         1 UNK         0.0600 
    197 H197       -2.7984  -26.9049  -44.8261 H         1 UNK         0.0600 
    198 H198       -3.6863  -25.4002  -44.6418 H         1 UNK         0.0600 
    199 H199       -1.9239  -25.3884  -44.6600 H         1 UNK         0.0600 
    200 H200       -0.4717  -24.7572  -47.0659 H         1 UNK         0.3000 
    201 H201        0.8367  -27.2531  -47.8290 H         1 UNK         0.0600 
    202 H202        2.0420  -25.5410  -46.5075 H         1 UNK         0.0600 
    203 H203        1.8460  -24.3598  -47.7984 H         1 UNK         0.0600 
    204 H204        2.8355  -25.7913  -48.0558 H         1 UNK         0.0600 
    205 H205       -0.0731  -24.1874  -49.4773 H         1 UNK         0.3000 
    206 H206        0.9510  -24.9534  -52.0372 H         1 UNK         0.0600 
    207 H207        0.8086  -22.6084  -51.3442 H         1 UNK         0.0600 
    208 H208       -0.2283  -22.8229  -52.7485 H         1 UNK         0.0600 
    209 H209       -0.9334  -22.7294  -51.1370 H         1 UNK         0.0600 
    210 H210       -2.2511  -25.3156  -50.5744 H         1 UNK         0.3000 
    211 H211       -4.1308  -26.2762  -51.1447 H         1 UNK         0.0600 
    212 H212       -2.5108  -27.8661  -53.2137 H         1 UNK         0.0600 
    213 H213       -4.1104  -28.2855  -52.5982 H         1 UNK         0.0600 
    214 H214       -2.7278  -28.2927  -51.5224 H         1 UNK         0.0600 
    215 H215       -4.1256  -27.0512  -54.3481 H         1 UNK         0.3000 
    216 H216       -6.0617  -25.1388  -55.0659 H         1 UNK         0.0600 
    217 H217       -4.3920  -27.0220  -56.8170 H         1 UNK         0.0600 
    218 H218       -5.9270  -27.4144  -56.0404 H         1 UNK         0.0600 
    219 H219       -5.8715  -26.2124  -57.3185 H         1 UNK         0.0600 
    220 H220       -2.5871  -24.8414  -55.2384 H         1 UNK         0.3000 
    221 H221       -2.4844  -22.8111  -57.3007 H         1 UNK         0.0600 
    222 H222       -0.5122  -24.2154  -56.7020 H         1 UNK         0.0600 
    223 H223       -0.1599  -22.5063  -56.4970 H         1 UNK         0.0600 
    224 H224       -0.4815  -23.5066  -55.0884 H         1 UNK         0.0600 
    225 H225       -3.2173  -22.8185  -53.8746 H         1 UNK         0.3000 
    226 H226       -3.1399  -19.8393  -53.6694 H         1 UNK         0.0600 
    227 H227       -3.3380  -22.1016  -51.6311 H         1 UNK         0.0600 
    228 H228       -2.0703  -20.8807  -51.7961 H         1 UNK         0.0600 
    229 H229       -3.6589  -20.4275  -51.2119 H         1 UNK         0.0600 
    230 H230       -5.2565  -22.6857  -53.1773 H         1 UNK         0.3000 
    231 H231       -7.4225  -23.0588  -53.2262 H         1 UNK         0.0600 
    232 H232       -8.8877  -21.8479  -54.7871 H         1 UNK         0.0600 
    233 H233       -7.3316  -22.1538  -55.5428 H         1 UNK         0.0600 
    234 H234       -7.7230  -20.5425  -54.9454 H         1 UNK         0.0600 
    235 H235       -6.7345  -22.3214  -50.9255 H         1 UNK         0.3000 
    236 H236       -7.4578  -21.7834  -48.9057 H         1 UNK         0.0600 
    237 H237       -9.5466  -22.8642  -49.6714 H         1 UNK         0.0600 
    238 H238       -9.8782  -21.5929  -48.5066 H         1 UNK         0.0600 
    239 H239      -10.1804  -21.3116  -50.2139 H         1 UNK         0.0600 
    240 H240       -5.8942  -19.9064  -49.4424 H         1 UNK         0.3000 
    241 H241       -6.9586  -17.2410  -49.3676 H         1 UNK         0.0600 
    242 H242       -6.8842  -19.5644  -46.7737 H         1 UNK         0.3800 
    243 H243       -7.0417  -18.3895  -45.4955 H         1 UNK         0.3800 
    244 H244       -4.6373  -16.5281  -48.8650 H         1 UNK         0.0800 
    245 H245       -4.1432  -18.1818  -48.6163 H         1 UNK         0.0800 
    246 H246       -3.8370  -15.4012  -50.9266 H         1 UNK         0.0800 
    247 H247       -3.1774  -16.2442  -52.3056 H         1 UNK         0.0800 
@<TRIPOS>BOND
     1    1    2 1    
     2    1  127 1    
     3    1  128 1    
     4    1  129 1    
     5    2    3 2    
     6    2    4 am   BACKBONE|DICT|INTERRES
     7    4    5 1    
     8    4  130 1    
     9    5    6 1    
    10    5   65 1    
    11    5  131 1    
    12    6    7 1    
    13    6  132 1    
    14    6  133 1    
    15    7    8 1    
    16    8    9 1    
    17    8  134 1    
    18    8  135 1    
    19    9   10 ar   
    20    9   14 ar   
    21   10   11 ar   
    22   10  136 1    
    23   11   12 ar   
    24   11  126 1    
    25   12   13 ar   
    26   12  137 1    
    27   13   14 ar   
    28   13   15 1    
    29   14  138 1    
    30   15   16 1    
    31   15  139 1    
    32   15  140 1    
    33   16   17 1    
    34   17   18 1    
    35   17  141 1    
    36   17  142 1    
    37   18   19 1    
    38   18   67 1    
    39   18  143 1    
    40   19   20 am   BACKBONE|DICT|INTERRES
    41   19  144 1    
    42   20   21 2    
    43   20   22 1    
    44   22   23 1    
    45   22   24 1    
    46   22  145 1    
    47   23  146 1    
    48   23  147 1    
    49   23  148 1    
    50   24   25 am   BACKBONE|DICT|INTERRES
    51   24  149 1    
    52   25   26 2    
    53   25   27 1    
    54   27   28 1    
    55   27   29 1    
    56   27  150 1    
    57   28  151 1    
    58   28  152 1    
    59   28  153 1    
    60   29   30 am   BACKBONE|DICT|INTERRES
    61   29  154 1    
    62   30   31 2    
    63   30   32 1    
    64   32   33 1    
    65   32   34 1    
    66   32  155 1    
    67   33  156 1    
    68   33  157 1    
    69   33  158 1    
    70   34   35 am   BACKBONE|DICT|INTERRES
    71   34  159 1    
    72   35   36 2    
    73   35   37 1    
    74   37   38 1    
    75   37   39 1    
    76   37  160 1    
    77   38  161 1    
    78   38  162 1    
    79   38  163 1    
    80   39   40 am   BACKBONE|DICT|INTERRES
    81   39  164 1    
    82   40   41 2    
    83   40   42 1    
    84   42   43 1    
    85   42   44 1    
    86   42  165 1    
    87   43  166 1    
    88   43  167 1    
    89   43  168 1    
    90   44   45 am   BACKBONE|DICT|INTERRES
    91   44  169 1    
    92   45   46 2    
    93   45   47 1    
    94   47   48 1    
    95   47   49 1    
    96   47  170 1    
    97   48  171 1    
    98   48  172 1    
    99   48  173 1    
   100   49   50 am   BACKBONE|DICT|INTERRES
   101   49  174 1    
   102   50   51 2    
   103   50   52 1    
   104   52   53 1    
   105   52   54 1    
   106   52  175 1    
   107   53  176 1    
   108   53  177 1    
   109   53  178 1    
   110   54   55 am   BACKBONE|DICT|INTERRES
   111   54  179 1    
   112   55   56 2    
   113   55   57 1    
   114   57   58 1    
   115   57   59 1    
   116   57  180 1    
   117   58  181 1    
   118   58  182 1    
   119   58  183 1    
   120   59   60 am   BACKBONE|DICT|INTERRES
   121   59  184 1    
   122   60   61 2    
   123   60   62 1    
   124   62   63 1    
   125   62   64 1    
   126   62  185 1    
   127   63  186 1    
   128   63  187 1    
   129   63  188 1    
   130   64   65 am   BACKBONE|DICT|INTERRES
   131   64  189 1    
   132   65   66 2    
   133   67   68 2    
   134   67   69 am   BACKBONE|DICT|INTERRES
   135   69   70 1    
   136   69  190 1    
   137   70   71 1    
   138   70   72 1    
   139   70  191 1    
   140   71  192 1    
   141   71  193 1    
   142   71  194 1    
   143   72   73 2    
   144   72   74 am   BACKBONE|DICT|INTERRES
   145   74   75 1    
   146   74  195 1    
   147   75   76 1    
   148   75   77 1    
   149   75  196 1    
   150   76  197 1    
   151   76  198 1    
   152   76  199 1    
   153   77   78 2    
   154   77   79 am   BACKBONE|DICT|INTERRES
   155   79   80 1    
   156   79  200 1    
   157   80   81 1    
   158   80   82 1    
   159   80  201 1    
   160   81  202 1    
   161   81  203 1    
   162   81  204 1    
   163   82   83 2    
   164   82   84 am   BACKBONE|DICT|INTERRES
   165   84   85 1    
   166   84  205 1    
   167   85   86 1    
   168   85   87 1    
   169   85  206 1    
   170   86  207 1    
   171   86  208 1    
   172   86  209 1    
   173   87   88 2    
   174   87   89 am   BACKBONE|DICT|INTERRES
   175   89   90 1    
   176   89  210 1    
   177   90   91 1    
   178   90   92 1    
   179   90  211 1    
   180   91  212 1    
   181   91  213 1    
   182   91  214 1    
   183   92   93 2    
   184   92   94 am   BACKBONE|DICT|INTERRES
   185   94   95 1    
   186   94  215 1    
   187   95   96 1    
   188   95   97 1    
   189   95  216 1    
   190   96  217 1    
   191   96  218 1    
   192   96  219 1    
   193   97   98 2    
   194   97   99 am   BACKBONE|DICT|INTERRES
   195   99  100 1    
   196   99  220 1    
   197  100  101 1    
   198  100  102 1    
   199  100  221 1    
   200  101  222 1    
   201  101  223 1    
   202  101  224 1    
   203  102  103 2    
   204  102  104 am   BACKBONE|DICT|INTERRES
   205  104  105 1    
   206  104  225 1    
   207  105  106 1    
   208  105  107 1    
   209  105  226 1    
   210  106  227 1    
   211  106  228 1    
   212  106  229 1    
   213  107  108 2    
   214  107  109 am   BACKBONE|DICT|INTERRES
   215  109  110 1    
   216  109  230 1    
   217  110  111 1    
   218  110  112 1    
   219  110  231 1    
   220  111  232 1    
   221  111  233 1    
   222  111  234 1    
   223  112  113 2    
   224  112  114 am   BACKBONE|DICT|INTERRES
   225  114  115 1    
   226  114  235 1    
   227  115  116 1    
   228  115  117 1    
   229  115  236 1    
   230  116  237 1    
   231  116  238 1    
   232  116  239 1    
   233  117  118 2    
   234  117  119 am   BACKBONE|DICT|INTERRES
   235  119  120 1    
   236  119  240 1    
   237  120  121 1    
   238  120  124 1    
   239  120  241 1    
   240  121  122 am   BACKBONE|DICT|INTERRES
   241  121  123 2    
   242  122  242 1    
   243  122  243 1    
   244  124  125 1    
   245  124  244 1    
   246  124  245 1    
   247  125  126 1    
   248  126  246 1    
   249  126  247 1    
@<TRIPOS>SUBSTRUCTURE
     1 UNK         1 GROUP             0       ****    0 ROOT    
