@<TRIPOS>MOLECULE
3R540
247   249    1
SMALL
USER_CHARGES


@<TRIPOS>ATOM
      1 CA          1.7628  -12.8301  -51.9616 C.3       0 UNK        -0.1800 
      2 C           1.4377  -12.5516  -50.5013 C.2       0 UNK         0.5000 
      3 O           1.3778  -11.3926  -50.0912 O.2       0 UNK        -0.5000 
      4 N           1.2039  -13.6097  -49.7177 N.am      1 UNK        -0.5000 
      5 CA          0.8619  -13.5973  -48.2890 C.3       1 UNK         0.1400 
      6 C6          1.3228  -14.9044  -47.5871 C.3       23 UNK        -0.0398 
      7 S7          0.7518  -16.4437  -48.3944 S.3       23 UNK        -0.2404 
      8 C8          2.2287  -16.8994  -49.3489 C.3       23 UNK        -0.0205 
      9 C9          1.9526  -18.0820  -50.2610 C.ar      23 UNK        -0.0193 
     10 C10         1.4804  -17.8826  -51.5612 C.ar      23 UNK        -0.1150 
     11 C11         1.2706  -18.9697  -52.4156 C.ar      23 UNK        -0.0193 
     12 C12         1.5253  -20.2643  -51.9510 C.ar      23 UNK        -0.1150 
     13 C13         2.0011  -20.4802  -50.6522 C.ar      23 UNK        -0.0193 
     14 C14         2.2101  -19.3782  -49.8142 C.ar      23 UNK        -0.1150 
     15 C15         2.3563  -21.9012  -50.2147 C.3       23 UNK        -0.0205 
     16 S16         2.2886  -22.1972  -48.4148 S.3       23 UNK        -0.2404 
     17 C17         0.4932  -22.2101  -48.0914 C.3       23 UNK        -0.0398 
     18 CA          0.1522  -23.2859  -47.0365 C.3       11 UNK         0.1400 
     19 N           0.6230  -22.9316  -45.6966 N.am      11 UNK        -0.5000 
     20 C           0.7284  -23.8065  -44.6880 C.2       10 UNK         0.5000 
     21 O           0.4337  -24.9982  -44.7869 O.2       10 UNK        -0.5000 
     22 CA          1.2018  -23.2504  -43.3341 C.3       10 UNK         0.1400 
     23 CB          2.7130  -22.9757  -43.3521 C.3       10 UNK        -0.1800 
     24 N           0.4850  -22.0356  -42.9470 N.am      10 UNK        -0.5000 
     25 C          -0.8325  -21.9761  -42.7050 C.2       9 UNK         0.5000 
     26 O          -1.5830  -22.9525  -42.7469 O.2       9 UNK        -0.5000 
     27 CA         -1.4180  -20.5810  -42.4166 C.3       9 UNK         0.1400 
     28 CB         -1.1270  -20.1474  -40.9722 C.3       9 UNK        -0.1800 
     29 N          -0.9279  -19.5581  -43.3414 N.am      9 UNK        -0.5000 
     30 C          -1.1158  -19.5810  -44.6686 C.2       8 UNK         0.5000 
     31 O          -1.7362  -20.4603  -45.2571 O.2       8 UNK        -0.5000 
     32 CA         -0.4582  -18.4603  -45.4846 C.3       8 UNK         0.1400 
     33 CB         -1.2890  -17.1718  -45.3869 C.3       8 UNK        -0.1800 
     34 N           0.9193  -18.2219  -45.0543 N.am      8 UNK        -0.5000 
     35 C           1.9094  -19.1177  -45.1878 C.2       7 UNK         0.5000 
     36 O           1.7661  -20.2267  -45.6997 O.2       7 UNK        -0.5000 
     37 CA          3.2773  -18.7269  -44.6035 C.3       7 UNK         0.1400 
     38 CB          4.0241  -17.7914  -45.5670 C.3       7 UNK        -0.1800 
     39 N           3.1600  -18.0879  -43.2921 N.am      7 UNK        -0.5000 
     40 C           2.6847  -18.6862  -42.1888 C.2       6 UNK         0.5000 
     41 O           2.3506  -19.8699  -42.1393 O.2       6 UNK        -0.5000 
     42 CA          2.4908  -17.7865  -40.9511 C.3       6 UNK         0.1400 
     43 CB          3.7874  -17.7028  -40.1325 C.3       6 UNK        -0.1800 
     44 N           2.0425  -16.4330  -41.2998 N.am      6 UNK        -0.5000 
     45 C           0.8891  -16.1665  -41.9258 C.2       5 UNK         0.5000 
     46 O           0.0558  -17.0337  -42.2103 O.2       5 UNK        -0.5000 
     47 CA          0.6573  -14.7138  -42.3713 C.3       5 UNK         0.1400 
     48 CB          1.6840  -14.3168  -43.4534 C.3       5 UNK        -0.1800 
     49 N          -0.6998  -14.6442  -42.8997 N.am      5 UNK        -0.5000 
     50 C          -1.3826  -13.5646  -43.2882 C.2       4 UNK         0.5000 
     51 O          -0.9391  -12.4158  -43.2335 O.2       4 UNK        -0.5000 
     52 CA         -2.7981  -13.8607  -43.8247 C.3       4 UNK         0.1400 
     53 CB         -3.7567  -14.2956  -42.6970 C.3       4 UNK        -0.1800 
     54 N          -3.3741  -12.7818  -44.6315 N.am      4 UNK        -0.5000 
     55 C          -3.8031  -11.5681  -44.2514 C.2       3 UNK         0.5000 
     56 O          -3.8211  -11.1709  -43.0850 O.2       3 UNK        -0.5000 
     57 CA         -4.3560  -10.6607  -45.3764 C.3       3 UNK         0.1400 
     58 CB         -4.1248   -9.1581  -45.1077 C.3       3 UNK        -0.1800 
     59 N          -3.9001  -11.0471  -46.7212 N.am      3 UNK        -0.5000 
     60 C          -2.6488  -10.9864  -47.1990 C.2       2 UNK         0.5000 
     61 O          -1.6974  -10.4823  -46.5977 O.2       2 UNK        -0.5000 
     62 CA         -2.4335  -11.6058  -48.5930 C.3       2 UNK         0.1400 
     63 CB         -2.6287  -10.5522  -49.6936 C.3       2 UNK        -0.1800 
     64 N          -1.1005  -12.1884  -48.7293 N.am      2 UNK        -0.5000 
     65 C          -0.6234  -13.2304  -48.0357 C.2       1 UNK         0.5000 
     66 O          -1.3050  -13.8751  -47.2358 O.2       1 UNK        -0.5000 
     67 C          -1.3407  -23.6638  -47.0515 C.2       11 UNK         0.5000 
     68 O          -1.7102  -24.5585  -47.8068 O.2       11 UNK        -0.5000 
     69 N          -2.1720  -23.0355  -46.2095 N.am      12 UNK        -0.5000 
     70 CA         -3.5860  -23.3788  -46.0467 C.3       12 UNK         0.1400 
     71 CB         -4.2999  -22.3109  -45.2055 C.3       12 UNK        -0.1800 
     72 C          -3.7770  -24.7764  -45.4350 C.2       12 UNK         0.5000 
     73 O          -4.6236  -25.5319  -45.9123 O.2       12 UNK        -0.5000 
     74 N          -2.9532  -25.1166  -44.4327 N.am      13 UNK        -0.5000 
     75 CA         -2.9055  -26.4448  -43.8167 C.3       13 UNK         0.1400 
     76 CB         -2.0249  -26.3953  -42.5591 C.3       13 UNK        -0.1800 
     77 C          -2.4164  -27.5361  -44.7899 C.2       13 UNK         0.5000 
     78 O          -2.9307  -28.6545  -44.7582 O.2       13 UNK        -0.5000 
     79 N          -1.4580  -27.1825  -45.6570 N.am      14 UNK        -0.5000 
     80 CA         -0.9292  -28.0408  -46.7200 C.3       14 UNK         0.1400 
     81 CB          0.4430  -27.4982  -47.1504 C.3       14 UNK        -0.1800 
     82 C          -1.8595  -28.1614  -47.9467 C.2       14 UNK         0.5000 
     83 O          -1.6175  -29.0237  -48.7922 O.2       14 UNK        -0.5000 
     84 N          -2.8763  -27.2897  -48.0378 N.am      15 UNK        -0.5000 
     85 CA         -3.7881  -27.0875  -49.1709 C.3       15 UNK         0.1400 
     86 CB         -4.6782  -28.3268  -49.3985 C.3       15 UNK        -0.1800 
     87 C          -3.0466  -26.6214  -50.4447 C.2       15 UNK         0.5000 
     88 O          -3.3591  -27.0624  -51.5518 O.2       15 UNK        -0.5000 
     89 N          -2.0685  -25.7297  -50.2523 N.am      16 UNK        -0.5000 
     90 CA         -1.1446  -25.2120  -51.2569 C.3       16 UNK         0.1400 
     91 CB          0.2901  -25.3549  -50.7157 C.3       16 UNK        -0.1800 
     92 C          -1.4921  -23.7602  -51.6410 C.2       16 UNK         0.5000 
     93 O          -0.6035  -22.9144  -51.7337 O.2       16 UNK        -0.5000 
     94 N          -2.7857  -23.4943  -51.8636 N.am      17 UNK        -0.5000 
     95 CA         -3.3896  -22.2824  -52.4393 C.3       17 UNK         0.1400 
     96 CB         -2.8848  -22.0611  -53.8761 C.3       17 UNK        -0.1800 
     97 C          -3.3177  -20.9848  -51.5994 C.2       17 UNK         0.5000 
     98 O          -4.2729  -20.2068  -51.6464 O.2       17 UNK        -0.5000 
     99 N          -2.2318  -20.7907  -50.8365 N.am      18 UNK        -0.5000 
    100 CA        -2.0414  -19.8046  -49.7611 C.3       18 UNK         0.1400 
    101 CB        -2.8160  -20.2707  -48.5144 C.3       18 UNK        -0.1800 
    102 C         -2.3896  -18.3488  -50.1412 C.2       18 UNK         0.5000 
    103 O         -3.1708  -17.6952  -49.4467 O.2       18 UNK        -0.5000 
    104 N         -1.8389  -17.8869  -51.2700 N.am      19 UNK        -0.5000 
    105 CA        -2.0340  -16.5908  -51.9364 C.3       19 UNK         0.1400 
    106 CB        -1.6385  -15.4040  -51.0397 C.3       19 UNK        -0.1800 
    107 C         -3.4360  -16.3924  -52.5395 C.2       19 UNK         0.5000 
    108 O         -3.5379  -15.9334  -53.6771 O.2       19 UNK        -0.5000 
    109 N         -4.4815  -16.7533  -51.7871 N.am      20 UNK        -0.5000 
    110 CA        -5.8951  -16.5898  -52.1244 C.3       20 UNK         0.1400 
    111 CB        -6.7488  -17.0933  -50.9507 C.3       20 UNK        -0.1800 
    112 C         -6.3147  -17.2821  -53.4333 C.2       20 UNK         0.5000 
    113 O         -7.0812  -16.6996  -54.2018 O.2       20 UNK        -0.5000 
    114 N         -5.7957  -18.4938  -53.6691 N.am      21 UNK        -0.5000 
    115 CA        -6.0680  -19.2876  -54.8696 C.3       21 UNK         0.1400 
    116 CB        -6.5247  -20.6913  -54.4399 C.3       21 UNK        -0.1800 
    117 C         -4.8618  -19.3509  -55.8281 C.2       21 UNK         0.5000 
    118 O         -4.9329  -20.0698  -56.8258 O.2       21 UNK        -0.5000 
    119 N         -3.7767  -18.6211  -55.5274 N.am      22 UNK        -0.5000 
    120 CA        -2.5558  -18.5757  -56.3563 C.3       22 UNK         0.1400 
    121 C         -2.7007  -17.7464  -57.6678 C.2       22 UNK         0.5000 
    122 N         -3.7415  -16.9398  -57.8385 N.am      22 UNK        -0.7600 
    123 O         -1.8537  -17.8426  -58.5517 O.2       22 UNK        -0.5000 
    124 C124       -1.3115  -18.1038  -55.5598 C.3       23 UNK        -0.0398 
    125 S125       -0.9230  -19.1532  -54.1188 S.3       23 UNK        -0.2404 
    126 C126        0.8281  -18.7362  -53.8549 C.3       23 UNK        -0.0205 
    127 H127        1.7661  -13.8985  -52.1800 H         1 UNK         0.0600 
    128 H128        2.7453  -12.4289  -52.2102 H         1 UNK         0.0600 
    129 H129        1.0250  -12.3538  -52.6071 H         1 UNK         0.0600 
    130 H130        1.2222  -14.5317  -50.1264 H         1 UNK         0.3000 
    131 H131        1.4310  -12.7887  -47.8253 H         1 UNK         0.0600 
    132 H132        2.4124  -14.9200  -47.5394 H         1 UNK         0.0800 
    133 H133        0.9965  -14.9163  -46.5475 H         1 UNK         0.0800 
    134 H134        2.5729  -16.0516  -49.9416 H         1 UNK         0.0800 
    135 H135        3.0403  -17.1381  -48.6598 H         1 UNK         0.0800 
    136 H136        1.2953  -16.8779  -51.9136 H         1 UNK         0.1150 
    137 H137        1.3744  -21.1055  -52.6135 H         1 UNK         0.1150 
    138 H138        2.5962  -19.5170  -48.8145 H         1 UNK         0.1150 
    139 H139        1.7213  -22.6283  -50.7185 H         1 UNK         0.0800 
    140 H140        3.3732  -22.1067  -50.5505 H         1 UNK         0.0800 
    141 H141       -0.0291  -22.4031  -49.0298 H         1 UNK         0.0800 
    142 H142        0.1788  -21.2200  -47.7577 H         1 UNK         0.0800 
    143 H143        0.6829  -24.1955  -47.3247 H         1 UNK         0.0600 
    144 H144        0.9196  -21.9685  -45.5607 H         1 UNK         0.3000 
    145 H145        1.0036  -24.0108  -42.5758 H         1 UNK         0.0600 
    146 H146        3.0680  -22.6661  -42.3690 H         1 UNK         0.0600 
    147 H147        3.2699  -23.8704  -43.6331 H         1 UNK         0.0600 
    148 H148        2.9720  -22.1896  -44.0623 H         1 UNK         0.0600 
    149 H149        1.0390  -21.1890  -42.8598 H         1 UNK         0.3000 
    150 H150       -2.5009  -20.6447  -42.5402 H         1 UNK         0.0600 
    151 H151       -1.5187  -20.8748  -40.2603 H         1 UNK         0.0600 
    152 H152       -1.5924  -19.1874  -40.7478 H         1 UNK         0.0600 
    153 H153       -0.0571  -20.0501  -40.7876 H         1 UNK         0.0600 
    154 H154       -0.4239  -18.7756  -42.9348 H         1 UNK         0.3000 
    155 H155       -0.4293  -18.7688  -46.5320 H         1 UNK         0.0600 
    156 H156       -1.5041  -16.9060  -44.3536 H         1 UNK         0.0600 
    157 H157       -0.7870  -16.3266  -45.8537 H         1 UNK         0.0600 
    158 H158       -2.2468  -17.2964  -45.8936 H         1 UNK         0.0600 
    159 H159        1.1039  -17.3586  -44.5694 H         1 UNK         0.3000 
    160 H160        3.8645  -19.6400  -44.4845 H         1 UNK         0.0600 
    161 H161        5.0229  -17.5594  -45.1970 H         1 UNK         0.0600 
    162 H162        3.4922  -16.8504  -45.7134 H         1 UNK         0.0600 
    163 H163        4.1416  -18.2570  -46.5466 H         1 UNK         0.0600 
    164 H164        3.4191  -17.1147  -43.2348 H         1 UNK         0.3000 
    165 H165        1.7212  -18.2449  -40.3266 H         1 UNK         0.0600 
    166 H166        3.6379  -17.1346  -39.2142 H         1 UNK         0.0600 
    167 H167        4.1318  -18.6972  -39.8454 H         1 UNK         0.0600 
    168 H168        4.5911  -17.2268  -40.6957 H         1 UNK         0.0600 
    169 H169        2.6787  -15.6770  -41.0906 H         1 UNK         0.3000 
    170 H170        0.7405  -14.0551  -41.5050 H         1 UNK         0.0600 
    171 H171        1.5076  -13.3102  -43.8314 H         1 UNK         0.0600 
    172 H172        1.6554  -15.0006  -44.3014 H         1 UNK         0.0600 
    173 H173        2.6999  -14.3293  -43.0577 H         1 UNK         0.0600 
    174 H174       -1.1426  -15.5552  -42.9246 H         1 UNK         0.3000 
    175 H175       -2.7006  -14.6990  -44.5158 H         1 UNK         0.0600 
    176 H176       -4.7565  -14.4945  -43.0830 H         1 UNK         0.0600 
    177 H177       -3.8414  -13.5373  -41.9183 H         1 UNK         0.0600 
    178 H178       -3.4091  -15.2114  -42.2177 H         1 UNK         0.0600 
    179 H179       -3.3698  -12.9636  -45.6251 H         1 UNK         0.3000 
    180 H180       -5.4349  -10.8221  -45.3754 H         1 UNK         0.0600 
    181 H181       -3.0676   -8.9242  -44.9815 H         1 UNK         0.0600 
    182 H182       -4.6358   -8.8422  -44.1977 H         1 UNK         0.0600 
    183 H183       -4.5105   -8.5466  -45.9233 H         1 UNK         0.0600 
    184 H184       -4.6122  -11.4624  -47.3067 H         1 UNK         0.3000 
    185 H185       -3.1622  -12.4056  -48.7405 H         1 UNK         0.0600 
    186 H186       -1.9051   -9.7407  -49.6048 H         1 UNK         0.0600 
    187 H187       -2.5191  -10.9924  -50.6850 H         1 UNK         0.0600 
    188 H188       -3.6250  -10.1113  -49.6423 H         1 UNK         0.0600 
    189 H189       -0.4442  -11.6895  -49.3200 H         1 UNK         0.3000 
    190 H190       -1.8342  -22.2426  -45.6679 H         1 UNK         0.3000 
    191 H191       -4.0449  -23.3857  -47.0378 H         1 UNK         0.0600 
    192 H192       -4.2673  -21.3384  -45.6970 H         1 UNK         0.0600 
    193 H193       -5.3506  -22.5645  -45.0598 H         1 UNK         0.0600 
    194 H194       -3.8466  -22.2043  -44.2198 H         1 UNK         0.0600 
    195 H195       -2.3047  -24.4232  -44.0742 H         1 UNK         0.3000 
    196 H196       -3.9199  -26.7071  -43.5090 H         1 UNK         0.0600 
    197 H197       -1.9970  -27.3664  -42.0633 H         1 UNK         0.0600 
    198 H198       -2.4080  -25.6723  -41.8387 H         1 UNK         0.0600 
    199 H199       -0.9976  -26.1173  -42.7953 H         1 UNK         0.0600 
    200 H200       -1.0384  -26.2637  -45.5639 H         1 UNK         0.3000 
    201 H201       -0.7864  -29.0451  -46.3160 H         1 UNK         0.0600 
    202 H202        1.1221  -27.4168  -46.3015 H         1 UNK         0.0600 
    203 H203        0.3570  -26.5132  -47.6084 H         1 UNK         0.0600 
    204 H204        0.9132  -28.1572  -47.8812 H         1 UNK         0.0600 
    205 H205       -2.9624  -26.6093  -47.2944 H         1 UNK         0.3000 
    206 H206       -4.4428  -26.2632  -48.8845 H         1 UNK         0.0600 
    207 H207       -5.1858  -28.6202  -48.4796 H         1 UNK         0.0600 
    208 H208       -5.4484  -28.1215  -50.1428 H         1 UNK         0.0600 
    209 H209       -4.1034  -29.1827  -49.7529 H         1 UNK         0.0600 
    210 H210       -1.9275  -25.3743  -49.3057 H         1 UNK         0.3000 
    211 H211       -1.2145  -25.8048  -52.1709 H         1 UNK         0.0600 
    212 H212        0.4427  -24.7601  -49.8154 H         1 UNK         0.0600 
    213 H213        1.0243  -25.0319  -51.4546 H         1 UNK         0.0600 
    214 H214        0.5146  -26.3929  -50.4695 H         1 UNK         0.0600 
    215 H215       -3.4324  -24.2543  -51.7059 H         1 UNK         0.3000 
    216 H216       -4.4518  -22.5189  -52.5077 H         1 UNK         0.0600 
    217 H217       -3.3069  -21.1553  -54.3050 H         1 UNK         0.0600 
    218 H218       -3.1683  -22.8896  -54.5247 H         1 UNK         0.0600 
    219 H219       -1.8007  -21.9612  -53.9190 H         1 UNK         0.0600 
    220 H220       -1.4766  -21.4586  -50.9716 H         1 UNK         0.3000 
    221 H221       -0.9778  -19.8093  -49.5186 H         1 UNK         0.0600 
    222 H222       -3.8935  -20.2642  -48.6830 H         1 UNK         0.0600 
    223 H223       -2.5325  -21.2820  -48.2352 H         1 UNK         0.0600 
    224 H224       -2.6138  -19.6249  -47.6599 H         1 UNK         0.0600 
    225 H225       -1.2606  -18.5353  -51.7895 H         1 UNK         0.3000 
    226 H226       -1.3379  -16.5849  -52.7750 H         1 UNK         0.0600 
    227 H227       -0.5924  -15.4766  -50.7538 H         1 UNK         0.0600 
    228 H228       -1.7619  -14.4564  -51.5655 H         1 UNK         0.0600 
    229 H229       -2.2349  -15.3495  -50.1289 H         1 UNK         0.0600 
    230 H230       -4.2711  -17.1356  -50.8686 H         1 UNK         0.3000 
    231 H231       -6.0778  -15.5203  -52.2458 H         1 UNK         0.0600 
    232 H232       -6.5676  -18.1501  -50.7487 H         1 UNK         0.0600 
    233 H233       -7.8128  -16.9745  -51.1596 H         1 UNK         0.0600 
    234 H234       -6.5322  -16.5369  -50.0386 H         1 UNK         0.0600 
    235 H235       -5.1927  -18.9167  -52.9689 H         1 UNK         0.3000 
    236 H236       -6.8851  -18.8451  -55.4424 H         1 UNK         0.0600 
    237 H237       -5.7495  -21.2125  -53.8834 H         1 UNK         0.0600 
    238 H238       -7.4107  -20.6387  -53.8071 H         1 UNK         0.0600 
    239 H239       -6.7808  -21.3069  -55.3030 H         1 UNK         0.0600 
    240 H240       -3.7998  -18.0136  -54.7203 H         1 UNK         0.3000 
    241 H241       -2.3506  -19.5981  -56.6803 H         1 UNK         0.0600 
    242 H242       -4.4386  -16.8426  -57.1177 H         1 UNK         0.3800 
    243 H243       -3.8264  -16.4122  -58.6932 H         1 UNK         0.3800 
    244 H244       -0.4339  -18.0958  -56.2093 H         1 UNK         0.0800 
    245 H245       -1.4467  -17.0765  -55.2183 H         1 UNK         0.0800 
    246 H246        0.9988  -17.6940  -54.1295 H         1 UNK         0.0800 
    247 H247        1.4429  -19.3336  -54.5296 H         1 UNK         0.0800 
@<TRIPOS>BOND
     1    1    2 1    
     2    1  127 1    
     3    1  128 1    
     4    1  129 1    
     5    2    3 2    
     6    2    4 am   BACKBONE|DICT|INTERRES
     7    4    5 1    
     8    4  130 1    
     9    5    6 1    
    10    5   65 1    
    11    5  131 1    
    12    6    7 1    
    13    6  132 1    
    14    6  133 1    
    15    7    8 1    
    16    8    9 1    
    17    8  134 1    
    18    8  135 1    
    19    9   10 ar   
    20    9   14 ar   
    21   10   11 ar   
    22   10  136 1    
    23   11   12 ar   
    24   11  126 1    
    25   12   13 ar   
    26   12  137 1    
    27   13   14 ar   
    28   13   15 1    
    29   14  138 1    
    30   15   16 1    
    31   15  139 1    
    32   15  140 1    
    33   16   17 1    
    34   17   18 1    
    35   17  141 1    
    36   17  142 1    
    37   18   19 1    
    38   18   67 1    
    39   18  143 1    
    40   19   20 am   BACKBONE|DICT|INTERRES
    41   19  144 1    
    42   20   21 2    
    43   20   22 1    
    44   22   23 1    
    45   22   24 1    
    46   22  145 1    
    47   23  146 1    
    48   23  147 1    
    49   23  148 1    
    50   24   25 am   BACKBONE|DICT|INTERRES
    51   24  149 1    
    52   25   26 2    
    53   25   27 1    
    54   27   28 1    
    55   27   29 1    
    56   27  150 1    
    57   28  151 1    
    58   28  152 1    
    59   28  153 1    
    60   29   30 am   BACKBONE|DICT|INTERRES
    61   29  154 1    
    62   30   31 2    
    63   30   32 1    
    64   32   33 1    
    65   32   34 1    
    66   32  155 1    
    67   33  156 1    
    68   33  157 1    
    69   33  158 1    
    70   34   35 am   BACKBONE|DICT|INTERRES
    71   34  159 1    
    72   35   36 2    
    73   35   37 1    
    74   37   38 1    
    75   37   39 1    
    76   37  160 1    
    77   38  161 1    
    78   38  162 1    
    79   38  163 1    
    80   39   40 am   BACKBONE|DICT|INTERRES
    81   39  164 1    
    82   40   41 2    
    83   40   42 1    
    84   42   43 1    
    85   42   44 1    
    86   42  165 1    
    87   43  166 1    
    88   43  167 1    
    89   43  168 1    
    90   44   45 am   BACKBONE|DICT|INTERRES
    91   44  169 1    
    92   45   46 2    
    93   45   47 1    
    94   47   48 1    
    95   47   49 1    
    96   47  170 1    
    97   48  171 1    
    98   48  172 1    
    99   48  173 1    
   100   49   50 am   BACKBONE|DICT|INTERRES
   101   49  174 1    
   102   50   51 2    
   103   50   52 1    
   104   52   53 1    
   105   52   54 1    
   106   52  175 1    
   107   53  176 1    
   108   53  177 1    
   109   53  178 1    
   110   54   55 am   BACKBONE|DICT|INTERRES
   111   54  179 1    
   112   55   56 2    
   113   55   57 1    
   114   57   58 1    
   115   57   59 1    
   116   57  180 1    
   117   58  181 1    
   118   58  182 1    
   119   58  183 1    
   120   59   60 am   BACKBONE|DICT|INTERRES
   121   59  184 1    
   122   60   61 2    
   123   60   62 1    
   124   62   63 1    
   125   62   64 1    
   126   62  185 1    
   127   63  186 1    
   128   63  187 1    
   129   63  188 1    
   130   64   65 am   BACKBONE|DICT|INTERRES
   131   64  189 1    
   132   65   66 2    
   133   67   68 2    
   134   67   69 am   BACKBONE|DICT|INTERRES
   135   69   70 1    
   136   69  190 1    
   137   70   71 1    
   138   70   72 1    
   139   70  191 1    
   140   71  192 1    
   141   71  193 1    
   142   71  194 1    
   143   72   73 2    
   144   72   74 am   BACKBONE|DICT|INTERRES
   145   74   75 1    
   146   74  195 1    
   147   75   76 1    
   148   75   77 1    
   149   75  196 1    
   150   76  197 1    
   151   76  198 1    
   152   76  199 1    
   153   77   78 2    
   154   77   79 am   BACKBONE|DICT|INTERRES
   155   79   80 1    
   156   79  200 1    
   157   80   81 1    
   158   80   82 1    
   159   80  201 1    
   160   81  202 1    
   161   81  203 1    
   162   81  204 1    
   163   82   83 2    
   164   82   84 am   BACKBONE|DICT|INTERRES
   165   84   85 1    
   166   84  205 1    
   167   85   86 1    
   168   85   87 1    
   169   85  206 1    
   170   86  207 1    
   171   86  208 1    
   172   86  209 1    
   173   87   88 2    
   174   87   89 am   BACKBONE|DICT|INTERRES
   175   89   90 1    
   176   89  210 1    
   177   90   91 1    
   178   90   92 1    
   179   90  211 1    
   180   91  212 1    
   181   91  213 1    
   182   91  214 1    
   183   92   93 2    
   184   92   94 am   BACKBONE|DICT|INTERRES
   185   94   95 1    
   186   94  215 1    
   187   95   96 1    
   188   95   97 1    
   189   95  216 1    
   190   96  217 1    
   191   96  218 1    
   192   96  219 1    
   193   97   98 2    
   194   97   99 am   BACKBONE|DICT|INTERRES
   195   99  100 1    
   196   99  220 1    
   197  100  101 1    
   198  100  102 1    
   199  100  221 1    
   200  101  222 1    
   201  101  223 1    
   202  101  224 1    
   203  102  103 2    
   204  102  104 am   BACKBONE|DICT|INTERRES
   205  104  105 1    
   206  104  225 1    
   207  105  106 1    
   208  105  107 1    
   209  105  226 1    
   210  106  227 1    
   211  106  228 1    
   212  106  229 1    
   213  107  108 2    
   214  107  109 am   BACKBONE|DICT|INTERRES
   215  109  110 1    
   216  109  230 1    
   217  110  111 1    
   218  110  112 1    
   219  110  231 1    
   220  111  232 1    
   221  111  233 1    
   222  111  234 1    
   223  112  113 2    
   224  112  114 am   BACKBONE|DICT|INTERRES
   225  114  115 1    
   226  114  235 1    
   227  115  116 1    
   228  115  117 1    
   229  115  236 1    
   230  116  237 1    
   231  116  238 1    
   232  116  239 1    
   233  117  118 2    
   234  117  119 am   BACKBONE|DICT|INTERRES
   235  119  120 1    
   236  119  240 1    
   237  120  121 1    
   238  120  124 1    
   239  120  241 1    
   240  121  122 am   BACKBONE|DICT|INTERRES
   241  121  123 2    
   242  122  242 1    
   243  122  243 1    
   244  124  125 1    
   245  124  244 1    
   246  124  245 1    
   247  125  126 1    
   248  126  246 1    
   249  126  247 1    
@<TRIPOS>SUBSTRUCTURE
     1 UNK         1 GROUP             0       ****    0 ROOT    
