@<TRIPOS>MOLECULE
3R540
247   249    1
SMALL
USER_CHARGES


@<TRIPOS>ATOM
      1 CA         -2.6350  -17.2041  -48.1316 C.3       0 UNK        -0.1800 
      2 C          -2.4287  -15.7400  -48.4856 C.2       0 UNK         0.5000 
      3 O          -3.3956  -15.0233  -48.7436 O.2       0 UNK        -0.5000 
      4 N          -1.1649  -15.3046  -48.5015 N.am      1 UNK        -0.5000 
      5 CA         -0.7303  -13.9321  -48.7707 C.3       1 UNK         0.1400 
      6 C6          0.8087  -13.8458  -48.9134 C.3       23 UNK        -0.0398 
      7 S7          1.4063  -14.8682  -50.3006 S.3       23 UNK        -0.2404 
      8 C8          2.3673  -16.1635  -49.4438 C.3       23 UNK        -0.0205 
      9 C9          2.7595  -17.3183  -50.3629 C.ar      23 UNK        -0.0193 
     10 C10         3.2187  -17.0797  -51.6630 C.ar      23 UNK        -0.1150 
     11 C11         3.5562  -18.1374  -52.5095 C.ar      23 UNK        -0.0193 
     12 C12         3.4548  -19.4496  -52.0425 C.ar      23 UNK        -0.1150 
     13 C13         3.0243  -19.7073  -50.7377 C.ar      23 UNK        -0.0193 
     14 C14         2.6809  -18.6376  -49.9027 C.ar      23 UNK        -0.1150 
     15 C15         2.9524  -21.1425  -50.2353 C.3       23 UNK        -0.0205 
     16 S16         1.2341  -21.7294  -50.1049 S.3       23 UNK        -0.2404 
     17 C17         0.8032  -21.2523  -48.3969 C.3       23 UNK        -0.0398 
     18 CA          0.1987  -22.4386  -47.6055 C.3       11 UNK         0.1400 
     19 N           0.4926  -22.3719  -46.1709 N.am      11 UNK        -0.5000 
     20 C           0.2068  -23.3419  -45.2893 C.2       10 UNK         0.5000 
     21 O          -0.2979  -24.4198  -45.5996 O.2       10 UNK        -0.5000 
     22 CA          0.4776  -23.0427  -43.8048 C.3       10 UNK         0.1400 
     23 CB          1.9572  -23.2695  -43.4625 C.3       10 UNK        -0.1800 
     24 N           0.0773  -21.6877  -43.4250 N.am      10 UNK        -0.5000 
     25 C          -1.1830  -21.2306  -43.4677 C.2       9 UNK         0.5000 
     26 O          -2.1519  -21.9266  -43.7712 O.2       9 UNK        -0.5000 
     27 CA         -1.3888  -19.7320  -43.1801 C.3       9 UNK         0.1400 
     28 CB         -1.3786  -19.4532  -41.6700 C.3       9 UNK        -0.1800 
     29 N          -0.3889  -18.8915  -43.8388 N.am      9 UNK        -0.5000 
     30 C          -0.2150  -18.8070  -45.1648 C.2       8 UNK         0.5000 
     31 O          -0.9082  -19.4006  -45.9909 O.2       8 UNK        -0.5000 
     32 CA          0.9761  -17.9624  -45.6453 C.3       8 UNK         0.1400 
     33 CB          0.6460  -16.4616  -45.6060 C.3       8 UNK        -0.1800 
     34 N           2.1827  -18.2274  -44.8611 N.am      8 UNK        -0.5000 
     35 C           2.8579  -19.3857  -44.8790 C.2       7 UNK         0.5000 
     36 O           2.5543  -20.3402  -45.5925 O.2       7 UNK        -0.5000 
     37 CA          4.0480  -19.5127  -43.9108 C.3       7 UNK         0.1400 
     38 CB          5.3052  -18.8701  -44.5152 C.3       7 UNK        -0.1800 
     39 N           3.7770  -18.9139  -42.6034 N.am      7 UNK        -0.5000 
     40 C           2.8688  -19.3731  -41.7300 C.2       6 UNK         0.5000 
     41 O           2.1922  -20.3835  -41.9146 O.2       6 UNK        -0.5000 
     42 CA          2.6354  -18.5232  -40.4653 C.3       6 UNK         0.1400 
     43 CB          3.6311  -18.9097  -39.3619 C.3       6 UNK        -0.1800 
     44 N           2.7204  -17.0806  -40.7177 N.am      6 UNK        -0.5000 
     45 C           1.9313  -16.4169  -41.5728 C.2       5 UNK         0.5000 
     46 O           1.0374  -16.9581  -42.2280 O.2       5 UNK        -0.5000 
     47 CA          2.2496  -14.9244  -41.7807 C.3       5 UNK         0.1400 
     48 CB          3.5217  -14.7640  -42.6300 C.3       5 UNK        -0.1800 
     49 N           1.1625  -14.2179  -42.4548 N.am      5 UNK        -0.5000 
     50 C          -0.0329  -13.9389  -41.9200 C.2       4 UNK         0.5000 
     51 O          -0.3352  -14.1940  -40.7523 O.2       4 UNK        -0.5000 
     52 CA         -1.0496  -13.2543  -42.8604 C.3       4 UNK         0.1400 
     53 CB         -2.1858  -12.5376  -42.1018 C.3       4 UNK        -0.1800 
     54 N          -0.4303  -12.3481  -43.8367 N.am      4 UNK        -0.5000 
     55 C           0.3093  -11.2552  -43.5769 C.2       3 UNK         0.5000 
     56 O           0.6063  -10.8769  -42.4433 O.2       3 UNK        -0.5000 
     57 CA          0.8058  -10.4386  -44.7892 C.3       3 UNK         0.1400 
     58 CB          2.2430  -10.8457  -45.1508 C.3       3 UNK        -0.1800 
     59 N          -0.0384  -10.5847  -45.9761 N.am      3 UNK        -0.5000 
     60 C          -1.3170  -10.1933  -46.0671 C.2       2 UNK         0.5000 
     61 O          -1.8915   -9.5393  -45.1958 O.2       2 UNK        -0.5000 
     62 CA         -2.0999  -10.6190  -47.3270 C.3       2 UNK         0.1400 
     63 CB         -2.3272   -9.4101  -48.2485 C.3       2 UNK        -0.1800 
     64 N          -1.5008  -11.7037  -48.1167 N.am      2 UNK        -0.5000 
     65 C          -1.2342  -12.9480  -47.6933 C.2       1 UNK         0.5000 
     66 O          -1.3324  -13.3124  -46.5178 O.2       1 UNK        -0.5000 
     67 C          -1.3126  -22.5741  -47.8730 C.2       11 UNK         0.5000 
     68 O          -1.7167  -23.4627  -48.6201 O.2       11 UNK        -0.5000 
     69 N          -2.1187  -21.7290  -47.2148 N.am      12 UNK        -0.5000 
     70 CA         -3.5798  -21.7423  -47.2942 C.3       12 UNK         0.1400 
     71 CB         -4.1388  -20.5366  -46.5254 C.3       12 UNK        -0.1800 
     72 C          -4.2149  -23.0474  -46.7786 C.2       12 UNK         0.5000 
     73 O          -5.2395  -23.4687  -47.3133 O.2       12 UNK        -0.5000 
     74 N          -3.6029  -23.6583  -45.7556 N.am      13 UNK        -0.5000 
     75 CA         -4.0115  -24.9482  -45.2037 C.3       13 UNK         0.1400 
     76 CB         -3.4034  -25.1176  -43.8027 C.3       13 UNK        -0.1800 
     77 C          -3.6259  -26.1303  -46.1131 C.2       13 UNK         0.5000 
     78 O          -4.4162  -27.0644  -46.2548 O.2       13 UNK        -0.5000 
     79 N          -2.4172  -26.0835  -46.6902 N.am      14 UNK        -0.5000 
     80 CA         -1.8738  -27.1238  -47.5636 C.3       14 UNK         0.1400 
     81 CB         -0.3524  -26.9433  -47.6857 C.3       14 UNK        -0.1800 
     82 C          -2.5289  -27.1421  -48.9555 C.2       14 UNK         0.5000 
     83 O          -2.8521  -28.2184  -49.4613 O.2       14 UNK        -0.5000 
     84 N          -2.6962  -25.9573  -49.5536 N.am      15 UNK        -0.5000 
     85 CA         -3.3192  -25.7583  -50.8596 C.3       15 UNK         0.1400 
     86 CB         -2.7690  -24.4547  -51.4650 C.3       15 UNK        -0.1800 
     87 C          -4.8573  -25.7266  -50.7577 C.2       15 UNK         0.5000 
     88 O          -5.4218  -25.8130  -49.6640 O.2       15 UNK        -0.5000 
     89 N          -5.5211  -25.5885  -51.9122 N.am      16 UNK        -0.5000 
     90 CA         -6.9718  -25.4345  -52.0450 C.3       16 UNK         0.1400 
     91 CB         -7.3727  -25.7831  -53.4900 C.3       16 UNK        -0.1800 
     92 C          -7.4386  -24.0236  -51.6204 C.2       16 UNK         0.5000 
     93 O          -7.8719  -23.2352  -52.4628 O.2       16 UNK        -0.5000 
     94 N          -7.3143  -23.7400  -50.3169 N.am      17 UNK        -0.5000 
     95 CA         -7.5563  -22.4651  -49.6347 C.3       17 UNK         0.1400 
     96 CB         -8.9968  -21.9607  -49.8739 C.3       17 UNK        -0.1800 
     97 C          -6.4946  -21.3969  -49.9712 C.2       17 UNK         0.5000 
     98 O          -5.5564  -21.6494  -50.7312 O.2       17 UNK        -0.5000 
     99 N          -6.6555  -20.2049  -49.3791 N.am      18 UNK        -0.5000 
    100 CA        -5.7441  -19.0635  -49.5119 C.3       18 UNK         0.1400 
    101 CB        -6.2130  -17.9379  -48.5776 C.3       18 UNK        -0.1800 
    102 C         -5.5864  -18.5400  -50.9520 C.2       18 UNK         0.5000 
    103 O         -4.5266  -18.0192  -51.2962 O.2       18 UNK        -0.5000 
    104 N         -6.6209  -18.7279  -51.7821 N.am      19 UNK        -0.5000 
    105 CA        -6.6218  -18.3921  -53.2071 C.3       19 UNK         0.1400 
    106 CB        -8.0439  -18.5807  -53.7571 C.3       19 UNK        -0.1800 
    107 C         -5.6116  -19.2097  -54.0395 C.2       19 UNK         0.5000 
    108 O         -5.1981  -18.7493  -55.1040 O.2       19 UNK        -0.5000 
    109 N         -5.2288  -20.3947  -53.5451 N.am      20 UNK        -0.5000 
    110 CA        -4.2997  -21.3135  -54.1982 C.3       20 UNK         0.1400 
    111 CB        -4.8247  -22.7444  -54.0169 C.3       20 UNK        -0.1800 
    112 C         -2.8498  -21.1699  -53.6929 C.2       20 UNK         0.5000 
    113 O         -1.9970  -21.9560  -54.1100 O.2       20 UNK        -0.5000 
    114 N         -2.5639  -20.1752  -52.8367 N.am      21 UNK        -0.5000 
    115 CA        -1.2161  -19.8402  -52.3622 C.3       21 UNK         0.1400 
    116 CB        -1.3175  -19.0277  -51.0588 C.3       21 UNK        -0.1800 
    117 C         -0.4086  -19.1138  -53.4608 C.2       21 UNK         0.5000 
    118 O         -0.2119  -17.9016  -53.3902 O.2       21 UNK        -0.5000 
    119 N         -0.0375  -19.8821  -54.4917 N.am      22 UNK        -0.5000 
    120 CA         0.6630  -19.5101  -55.7339 C.3       22 UNK         0.1400 
    121 C         -0.0645  -18.5110  -56.6874 C.2       22 UNK         0.5000 
    122 N         -1.2850  -18.0765  -56.4005 N.am      22 UNK        -0.7600 
    123 O          0.4652  -18.1660  -57.7405 O.2       22 UNK        -0.5000 
    124 C124        2.1842  -19.2367  -55.5416 C.3       23 UNK        -0.0398 
    125 S125        2.6636  -17.5377  -55.0630 S.3       23 UNK        -0.2404 
    126 C126        4.0450  -17.8488  -53.9198 C.3       23 UNK        -0.0205 
    127 H127       -1.6910  -17.7140  -47.9404 H         1 UNK         0.0600 
    128 H128       -3.1287  -17.7168  -48.9539 H         1 UNK         0.0600 
    129 H129       -3.2575  -17.2894  -47.2413 H         1 UNK         0.0600 
    130 H130       -0.4230  -15.9550  -48.3003 H         1 UNK         0.3000 
    131 H131       -1.1789  -13.6381  -49.7223 H         1 UNK         0.0600 
    132 H132        1.3059  -14.1407  -47.9876 H         1 UNK         0.0800 
    133 H133        1.1193  -12.8183  -49.1114 H         1 UNK         0.0800 
    134 H134        1.7807  -16.5398  -48.6053 H         1 UNK         0.0800 
    135 H135        3.2716  -15.7219  -49.0232 H         1 UNK         0.0800 
    136 H136        3.3013  -16.0659  -52.0283 H         1 UNK         0.1150 
    137 H137        3.7222  -20.2709  -52.6920 H         1 UNK         0.1150 
    138 H138        2.3504  -18.8339  -48.8935 H         1 UNK         0.1150 
    139 H139        3.4835  -21.8053  -50.9202 H         1 UNK         0.0800 
    140 H140        3.4703  -21.2322  -49.2796 H         1 UNK         0.0800 
    141 H141        0.1394  -20.3858  -48.4167 H         1 UNK         0.0800 
    142 H142        1.7103  -20.9110  -47.9030 H         1 UNK         0.0800 
    143 H143        0.6712  -23.3593  -47.9559 H         1 UNK         0.0600 
    144 H144        0.9537  -21.5311  -45.8391 H         1 UNK         0.3000 
    145 H145       -0.1167  -23.7420  -43.2130 H         1 UNK         0.0600 
    146 H146        2.1372  -23.1460  -42.3945 H         1 UNK         0.0600 
    147 H147        2.2694  -24.2797  -43.7299 H         1 UNK         0.0600 
    148 H148        2.6062  -22.5734  -43.9937 H         1 UNK         0.0600 
    149 H149        0.8162  -21.0690  -43.1037 H         1 UNK         0.3000 
    150 H150       -2.3679  -19.4499  -43.5725 H         1 UNK         0.0600 
    151 H151       -2.1474  -20.0356  -41.1608 H         1 UNK         0.0600 
    152 H152       -1.5740  -18.4010  -41.4622 H         1 UNK         0.0600 
    153 H153       -0.4197  -19.7094  -41.2194 H         1 UNK         0.0600 
    154 H154        0.2085  -18.3320  -43.2350 H         1 UNK         0.3000 
    155 H155        1.1761  -18.2381  -46.6827 H         1 UNK         0.0600 
    156 H156        0.5105  -16.0992  -44.5887 H         1 UNK         0.0600 
    157 H157       -0.2812  -16.2515  -46.1364 H         1 UNK         0.0600 
    158 H158        1.4352  -15.8696  -46.0689 H         1 UNK         0.0600 
    159 H159        2.4564  -17.5191  -44.1975 H         1 UNK         0.3000 
    160 H160        4.2451  -20.5766  -43.7629 H         1 UNK         0.0600 
    161 H161        5.1808  -17.7963  -44.6613 H         1 UNK         0.0600 
    162 H162        5.5388  -19.3088  -45.4863 H         1 UNK         0.0600 
    163 H163        6.1732  -19.0234  -43.8737 H         1 UNK         0.0600 
    164 H164        4.2913  -18.0786  -42.3673 H         1 UNK         0.3000 
    165 H165        1.6272  -18.7384  -40.1056 H         1 UNK         0.0600 
    166 H166        3.4189  -18.3770  -38.4348 H         1 UNK         0.0600 
    167 H167        3.5746  -19.9767  -39.1420 H         1 UNK         0.0600 
    168 H168        4.6595  -18.6878  -39.6499 H         1 UNK         0.0600 
    169 H169        3.4392  -16.5770  -40.2181 H         1 UNK         0.3000 
    170 H170        2.4105  -14.4641  -40.8037 H         1 UNK         0.0600 
    171 H171        4.3822  -15.2307  -42.1492 H         1 UNK         0.0600 
    172 H172        3.4094  -15.2178  -43.6156 H         1 UNK         0.0600 
    173 H173        3.7678  -13.7115  -42.7737 H         1 UNK         0.0600 
    174 H174        1.3126  -13.9769  -43.4222 H         1 UNK         0.3000 
    175 H175       -1.5023  -14.0576  -43.4437 H         1 UNK         0.0600 
    176 H176       -2.7464  -13.2382  -41.4819 H         1 UNK         0.0600 
    177 H177       -1.8038  -11.7540  -41.4468 H         1 UNK         0.0600 
    178 H178       -2.8932  -12.0806  -42.7939 H         1 UNK         0.0600 
    179 H179       -0.6268  -12.5721  -44.8084 H         1 UNK         0.3000 
    180 H180        0.8061   -9.3853  -44.5013 H         1 UNK         0.0600 
    181 H181        2.2989  -11.8874  -45.4696 H         1 UNK         0.0600 
    182 H182        2.9094  -10.7286  -44.2950 H         1 UNK         0.0600 
    183 H183        2.6385  -10.2257  -45.9555 H         1 UNK         0.0600 
    184 H184        0.3509  -11.1043  -46.7476 H         1 UNK         0.3000 
    185 H185       -3.0744  -10.9725  -46.9842 H         1 UNK         0.0600 
    186 H186       -2.8069   -8.5906  -47.7114 H         1 UNK         0.0600 
    187 H187       -1.3874   -9.0315  -48.6525 H         1 UNK         0.0600 
    188 H188       -2.9752   -9.6673  -49.0865 H         1 UNK         0.0600 
    189 H189       -1.3627  -11.4939  -49.0951 H         1 UNK         0.3000 
    190 H190       -1.7010  -21.0091  -46.6298 H         1 UNK         0.3000 
    191 H191       -3.8506  -21.6374  -48.3466 H         1 UNK         0.0600 
    192 H192       -3.7402  -19.6021  -46.9158 H         1 UNK         0.0600 
    193 H193       -5.2253  -20.4901  -46.6072 H         1 UNK         0.0600 
    194 H194       -3.8902  -20.5858  -45.4649 H         1 UNK         0.0600 
    195 H195       -2.8076  -23.2036  -45.3215 H         1 UNK         0.3000 
    196 H196       -5.0986  -24.9490  -45.0990 H         1 UNK         0.0600 
    197 H197       -3.7115  -26.0631  -43.3549 H         1 UNK         0.0600 
    198 H198       -3.7268  -24.3195  -43.1343 H         1 UNK         0.0600 
    199 H199       -2.3135  -25.1070  -43.8313 H         1 UNK         0.0600 
    200 H200       -1.8005  -25.3056  -46.4752 H         1 UNK         0.3000 
    201 H201       -2.0593  -28.0930  -47.0959 H         1 UNK         0.0600 
    202 H202        0.1324  -27.0230  -46.7126 H         1 UNK         0.0600 
    203 H203       -0.0954  -25.9707  -48.1076 H         1 UNK         0.0600 
    204 H204        0.0828  -27.7082  -48.3300 H         1 UNK         0.0600 
    205 H205       -2.4104  -25.1108  -49.0656 H         1 UNK         0.3000 
    206 H206       -3.0377  -26.5863  -51.5133 H         1 UNK         0.0600 
    207 H207       -1.6840  -24.3987  -51.3732 H         1 UNK         0.0600 
    208 H208       -2.9957  -24.3901  -52.5280 H         1 UNK         0.0600 
    209 H209       -3.1887  -23.5724  -50.9786 H         1 UNK         0.0600 
    210 H210       -4.9918  -25.5113  -52.7678 H         1 UNK         0.3000 
    211 H211       -7.4630  -26.1530  -51.3853 H         1 UNK         0.0600 
    212 H212       -6.8929  -25.1242  -54.2143 H         1 UNK         0.0600 
    213 H213       -8.4509  -25.6938  -53.6282 H         1 UNK         0.0600 
    214 H214       -7.0992  -26.8088  -53.7379 H         1 UNK         0.0600 
    215 H215       -6.8389  -24.4393  -49.7527 H         1 UNK         0.3000 
    216 H216       -7.4554  -22.6792  -48.5705 H         1 UNK         0.0600 
    217 H217       -9.2564  -21.1597  -49.1814 H         1 UNK         0.0600 
    218 H218       -9.7239  -22.7586  -49.7224 H         1 UNK         0.0600 
    219 H219       -9.1324  -21.5719  -50.8835 H         1 UNK         0.0600 
    220 H220       -7.4485  -20.0701  -48.7688 H         1 UNK         0.3000 
    221 H221       -4.7574  -19.3961  -49.1872 H         1 UNK         0.0600 
    222 H222       -7.2297  -17.6200  -48.8110 H         1 UNK         0.0600 
    223 H223       -6.1897  -18.2534  -47.5346 H         1 UNK         0.0600 
    224 H224       -5.5711  -17.0602  -48.6639 H         1 UNK         0.0600 
    225 H225       -7.4505  -19.1737  -51.4198 H         1 UNK         0.3000 
    226 H226       -6.3509  -17.3388  -53.3050 H         1 UNK         0.0600 
    227 H227       -8.7589  -17.9486  -53.2301 H         1 UNK         0.0600 
    228 H228       -8.0934  -18.3138  -54.8136 H         1 UNK         0.0600 
    229 H229       -8.3760  -19.6158  -53.6640 H         1 UNK         0.0600 
    230 H230       -5.5817  -20.6934  -52.6422 H         1 UNK         0.3000 
    231 H231       -4.2742  -21.1113  -55.2708 H         1 UNK         0.0600 
    232 H232       -5.8215  -22.8509  -54.4447 H         1 UNK         0.0600 
    233 H233       -4.8859  -23.0095  -52.9626 H         1 UNK         0.0600 
    234 H234       -4.1813  -23.4725  -54.5118 H         1 UNK         0.0600 
    235 H235       -3.3082  -19.5541  -52.5463 H         1 UNK         0.3000 
    236 H236       -0.6917  -20.7679  -52.1272 H         1 UNK         0.0600 
    237 H237       -0.3254  -18.7989  -50.6672 H         1 UNK         0.0600 
    238 H238       -1.8341  -18.0798  -51.2113 H         1 UNK         0.0600 
    239 H239       -1.8516  -19.5839  -50.2880 H         1 UNK         0.0600 
    240 H240       -0.3665  -20.8422  -54.4650 H         1 UNK         0.3000 
    241 H241        0.6181  -20.4405  -56.3012 H         1 UNK         0.0600 
    242 H242       -1.7219  -18.3231  -55.5275 H         1 UNK         0.3800 
    243 H243       -1.7502  -17.4479  -57.0362 H         1 UNK         0.3800 
    244 H244        2.5887  -19.9473  -54.8212 H         1 UNK         0.0800 
    245 H245        2.7032  -19.4534  -56.4764 H         1 UNK         0.0800 
    246 H246        4.6637  -18.6662  -54.2936 H         1 UNK         0.0800 
    247 H247        4.6886  -16.9680  -53.9038 H         1 UNK         0.0800 
@<TRIPOS>BOND
     1    1    2 1    
     2    1  127 1    
     3    1  128 1    
     4    1  129 1    
     5    2    3 2    
     6    2    4 am   BACKBONE|DICT|INTERRES
     7    4    5 1    
     8    4  130 1    
     9    5    6 1    
    10    5   65 1    
    11    5  131 1    
    12    6    7 1    
    13    6  132 1    
    14    6  133 1    
    15    7    8 1    
    16    8    9 1    
    17    8  134 1    
    18    8  135 1    
    19    9   10 ar   
    20    9   14 ar   
    21   10   11 ar   
    22   10  136 1    
    23   11   12 ar   
    24   11  126 1    
    25   12   13 ar   
    26   12  137 1    
    27   13   14 ar   
    28   13   15 1    
    29   14  138 1    
    30   15   16 1    
    31   15  139 1    
    32   15  140 1    
    33   16   17 1    
    34   17   18 1    
    35   17  141 1    
    36   17  142 1    
    37   18   19 1    
    38   18   67 1    
    39   18  143 1    
    40   19   20 am   BACKBONE|DICT|INTERRES
    41   19  144 1    
    42   20   21 2    
    43   20   22 1    
    44   22   23 1    
    45   22   24 1    
    46   22  145 1    
    47   23  146 1    
    48   23  147 1    
    49   23  148 1    
    50   24   25 am   BACKBONE|DICT|INTERRES
    51   24  149 1    
    52   25   26 2    
    53   25   27 1    
    54   27   28 1    
    55   27   29 1    
    56   27  150 1    
    57   28  151 1    
    58   28  152 1    
    59   28  153 1    
    60   29   30 am   BACKBONE|DICT|INTERRES
    61   29  154 1    
    62   30   31 2    
    63   30   32 1    
    64   32   33 1    
    65   32   34 1    
    66   32  155 1    
    67   33  156 1    
    68   33  157 1    
    69   33  158 1    
    70   34   35 am   BACKBONE|DICT|INTERRES
    71   34  159 1    
    72   35   36 2    
    73   35   37 1    
    74   37   38 1    
    75   37   39 1    
    76   37  160 1    
    77   38  161 1    
    78   38  162 1    
    79   38  163 1    
    80   39   40 am   BACKBONE|DICT|INTERRES
    81   39  164 1    
    82   40   41 2    
    83   40   42 1    
    84   42   43 1    
    85   42   44 1    
    86   42  165 1    
    87   43  166 1    
    88   43  167 1    
    89   43  168 1    
    90   44   45 am   BACKBONE|DICT|INTERRES
    91   44  169 1    
    92   45   46 2    
    93   45   47 1    
    94   47   48 1    
    95   47   49 1    
    96   47  170 1    
    97   48  171 1    
    98   48  172 1    
    99   48  173 1    
   100   49   50 am   BACKBONE|DICT|INTERRES
   101   49  174 1    
   102   50   51 2    
   103   50   52 1    
   104   52   53 1    
   105   52   54 1    
   106   52  175 1    
   107   53  176 1    
   108   53  177 1    
   109   53  178 1    
   110   54   55 am   BACKBONE|DICT|INTERRES
   111   54  179 1    
   112   55   56 2    
   113   55   57 1    
   114   57   58 1    
   115   57   59 1    
   116   57  180 1    
   117   58  181 1    
   118   58  182 1    
   119   58  183 1    
   120   59   60 am   BACKBONE|DICT|INTERRES
   121   59  184 1    
   122   60   61 2    
   123   60   62 1    
   124   62   63 1    
   125   62   64 1    
   126   62  185 1    
   127   63  186 1    
   128   63  187 1    
   129   63  188 1    
   130   64   65 am   BACKBONE|DICT|INTERRES
   131   64  189 1    
   132   65   66 2    
   133   67   68 2    
   134   67   69 am   BACKBONE|DICT|INTERRES
   135   69   70 1    
   136   69  190 1    
   137   70   71 1    
   138   70   72 1    
   139   70  191 1    
   140   71  192 1    
   141   71  193 1    
   142   71  194 1    
   143   72   73 2    
   144   72   74 am   BACKBONE|DICT|INTERRES
   145   74   75 1    
   146   74  195 1    
   147   75   76 1    
   148   75   77 1    
   149   75  196 1    
   150   76  197 1    
   151   76  198 1    
   152   76  199 1    
   153   77   78 2    
   154   77   79 am   BACKBONE|DICT|INTERRES
   155   79   80 1    
   156   79  200 1    
   157   80   81 1    
   158   80   82 1    
   159   80  201 1    
   160   81  202 1    
   161   81  203 1    
   162   81  204 1    
   163   82   83 2    
   164   82   84 am   BACKBONE|DICT|INTERRES
   165   84   85 1    
   166   84  205 1    
   167   85   86 1    
   168   85   87 1    
   169   85  206 1    
   170   86  207 1    
   171   86  208 1    
   172   86  209 1    
   173   87   88 2    
   174   87   89 am   BACKBONE|DICT|INTERRES
   175   89   90 1    
   176   89  210 1    
   177   90   91 1    
   178   90   92 1    
   179   90  211 1    
   180   91  212 1    
   181   91  213 1    
   182   91  214 1    
   183   92   93 2    
   184   92   94 am   BACKBONE|DICT|INTERRES
   185   94   95 1    
   186   94  215 1    
   187   95   96 1    
   188   95   97 1    
   189   95  216 1    
   190   96  217 1    
   191   96  218 1    
   192   96  219 1    
   193   97   98 2    
   194   97   99 am   BACKBONE|DICT|INTERRES
   195   99  100 1    
   196   99  220 1    
   197  100  101 1    
   198  100  102 1    
   199  100  221 1    
   200  101  222 1    
   201  101  223 1    
   202  101  224 1    
   203  102  103 2    
   204  102  104 am   BACKBONE|DICT|INTERRES
   205  104  105 1    
   206  104  225 1    
   207  105  106 1    
   208  105  107 1    
   209  105  226 1    
   210  106  227 1    
   211  106  228 1    
   212  106  229 1    
   213  107  108 2    
   214  107  109 am   BACKBONE|DICT|INTERRES
   215  109  110 1    
   216  109  230 1    
   217  110  111 1    
   218  110  112 1    
   219  110  231 1    
   220  111  232 1    
   221  111  233 1    
   222  111  234 1    
   223  112  113 2    
   224  112  114 am   BACKBONE|DICT|INTERRES
   225  114  115 1    
   226  114  235 1    
   227  115  116 1    
   228  115  117 1    
   229  115  236 1    
   230  116  237 1    
   231  116  238 1    
   232  116  239 1    
   233  117  118 2    
   234  117  119 am   BACKBONE|DICT|INTERRES
   235  119  120 1    
   236  119  240 1    
   237  120  121 1    
   238  120  124 1    
   239  120  241 1    
   240  121  122 am   BACKBONE|DICT|INTERRES
   241  121  123 2    
   242  122  242 1    
   243  122  243 1    
   244  124  125 1    
   245  124  244 1    
   246  124  245 1    
   247  125  126 1    
   248  126  246 1    
   249  126  247 1    
@<TRIPOS>SUBSTRUCTURE
     1 UNK         1 GROUP             0       ****    0 ROOT    
