@<TRIPOS>MOLECULE
3R540
247   249    1
SMALL
USER_CHARGES


@<TRIPOS>ATOM
      1 CA          3.0494  -14.3308  -48.6068 C.3       0 UNK        -0.1800 
      2 C           1.8011  -15.1698  -48.3779 C.2       0 UNK         0.5000 
      3 O           1.8913  -16.2496  -47.7957 O.2       0 UNK        -0.5000 
      4 N           0.6430  -14.6788  -48.8324 N.am      1 UNK        -0.5000 
      5 CA         -0.6609  -15.3138  -48.6434 C.3       1 UNK         0.1400 
      6 C6         -1.5917  -15.1444  -49.8722 C.3       23 UNK        -0.0398 
      7 S7         -0.9012  -15.8807  -51.3895 S.3       23 UNK        -0.2404 
      8 C8         -1.2513  -17.6402  -51.1005 C.3       23 UNK        -0.0205 
      9 C9         -0.0416  -18.4935  -51.4355 C.ar      23 UNK        -0.0193 
     10 C10        -0.0036  -19.2309  -52.6209 C.ar      23 UNK        -0.1150 
     11 C11         1.0994  -20.0322  -52.9240 C.ar      23 UNK        -0.0193 
     12 C12         2.1887  -20.0609  -52.0488 C.ar      23 UNK        -0.1150 
     13 C13         2.1714  -19.3100  -50.8691 C.ar      23 UNK        -0.0193 
     14 C14         1.0463  -18.5419  -50.5592 C.ar      23 UNK        -0.1150 
     15 C15         3.3844  -19.3043  -49.9529 C.3       23 UNK        -0.0205 
     16 S16         3.4497  -20.7802  -48.8931 S.3       23 UNK        -0.2404 
     17 C17         2.3791  -20.2987  -47.4979 C.3       23 UNK        -0.0398 
     18 CA          1.3224  -21.3829  -47.1661 C.3       11 UNK         0.1400 
     19 N           1.0577  -21.4811  -45.7275 N.am      11 UNK        -0.5000 
     20 C           0.3257  -22.4442  -45.1486 C.2       10 UNK         0.5000 
     21 O          -0.1732  -23.3863  -45.7627 O.2       10 UNK        -0.5000 
     22 CA          0.0622  -22.3087  -43.6379 C.3       10 UNK         0.1400 
     23 CB          1.2400  -22.8624  -42.8229 C.3       10 UNK        -0.1800 
     24 N          -0.2178  -20.9294  -43.2369 N.am      10 UNK        -0.5000 
     25 C          -1.2735  -20.2186  -43.6579 C.2       9 UNK         0.5000 
     26 O          -2.1518  -20.6715  -44.3908 O.2       9 UNK        -0.5000 
     27 CA         -1.3285  -18.7379  -43.2471 C.3       9 UNK         0.1400 
     28 CB         -1.8357  -18.5709  -41.8082 C.3       9 UNK        -0.1800 
     29 N          -0.0328  -18.0747  -43.3981 N.am      9 UNK        -0.5000 
     30 C           0.5831  -17.8729  -44.5717 C.2       8 UNK         0.5000 
     31 O           0.0657  -18.1232  -45.6625 O.2       8 UNK        -0.5000 
     32 CA          2.0252  -17.3362  -44.5150 C.3       8 UNK         0.1400 
     33 CB          2.0527  -15.8033  -44.4567 C.3       8 UNK        -0.1800 
     34 N           2.7716  -17.8698  -43.3753 N.am      8 UNK        -0.5000 
     35 C           3.1827  -19.1400  -43.2680 C.2       7 UNK         0.5000 
     36 O           2.9916  -19.9936  -44.1318 O.2       7 UNK        -0.5000 
     37 CA          3.8835  -19.5303  -41.9546 C.3       7 UNK         0.1400 
     38 CB          5.3585  -19.1028  -41.9771 C.3       7 UNK        -0.1800 
     39 N           3.2269  -18.9546  -40.7803 N.am      7 UNK        -0.5000 
     40 C           1.9915  -19.2761  -40.3710 C.2       6 UNK         0.5000 
     41 O           1.2899  -20.1231  -40.9213 O.2       6 UNK        -0.5000 
     42 CA          1.4282  -18.4880  -39.1745 C.3       6 UNK         0.1400 
     43 CB          1.7952  -19.1795  -37.8532 C.3       6 UNK        -0.1800 
     44 N           1.8800  -17.0946  -39.1364 N.am      6 UNK        -0.5000 
     45 C           1.5913  -16.1752  -40.0664 C.2       5 UNK         0.5000 
     46 O           0.9288  -16.4083  -41.0795 O.2       5 UNK        -0.5000 
     47 CA          2.1984  -14.7845  -39.8542 C.3       5 UNK         0.1400 
     48 CB          3.5394  -14.6632  -40.5986 C.3       5 UNK        -0.1800 
     49 N           1.2799  -13.7563  -40.3366 N.am      5 UNK        -0.5000 
     50 C           1.1411  -12.5443  -39.7796 C.2       4 UNK         0.5000 
     51 O           1.7657  -12.1827  -38.7804 O.2       4 UNK        -0.5000 
     52 CA          0.1853  -11.5632  -40.4825 C.3       4 UNK         0.1400 
     53 CB          0.3388  -10.1054  -40.0044 C.3       4 UNK        -0.1800 
     54 N           0.4056  -11.6451  -41.9212 N.am      4 UNK        -0.5000 
     55 C          -0.5125  -11.4289  -42.8670 C.2       3 UNK         0.5000 
     56 O          -1.6417  -10.9884  -42.6434 O.2       3 UNK        -0.5000 
     57 CA         -0.1224  -11.8178  -44.3097 C.3       3 UNK         0.1400 
     58 CB          1.3835  -12.1071  -44.5024 C.3       3 UNK        -0.1800 
     59 N          -0.9022  -12.9567  -44.8018 N.am      3 UNK        -0.5000 
     60 C          -1.1431  -14.1257  -44.1905 C.2       2 UNK         0.5000 
     61 O          -0.7413  -14.4154  -43.0635 O.2       2 UNK        -0.5000 
     62 CA         -1.9436  -15.1723  -44.9867 C.3       2 UNK         0.1400 
     63 CB         -3.4384  -14.8103  -45.0741 C.3       2 UNK        -0.1800 
     64 N          -1.3759  -15.4914  -46.3045 N.am      2 UNK        -0.5000 
     65 C          -1.3064  -14.7069  -47.3889 C.2       1 UNK         0.5000 
     66 O          -1.7100  -13.5423  -47.4273 O.2       1 UNK        -0.5000 
     67 C           0.0230  -21.1897  -47.9736 C.2       11 UNK         0.5000 
     68 O          -0.1967  -21.9069  -48.9489 O.2       11 UNK        -0.5000 
     69 N          -0.8455  -20.2759  -47.5129 N.am      12 UNK        -0.5000 
     70 CA         -2.1747  -20.0509  -48.0806 C.3       12 UNK         0.1400 
     71 CB         -2.8161  -18.8123  -47.4375 C.3       12 UNK        -0.1800 
     72 C          -3.0953  -21.2772  -47.9581 C.2       12 UNK         0.5000 
     73 O          -3.7725  -21.6186  -48.9273 O.2       12 UNK        -0.5000 
     74 N          -3.0843  -21.9378  -46.7920 N.am      13 UNK        -0.5000 
     75 CA         -3.8325  -23.1687  -46.5335 C.3       13 UNK         0.1400 
     76 CB         -3.7036  -23.5644  -45.0555 C.3       13 UNK        -0.1800 
     77 C          -3.4079  -24.3254  -47.4566 C.2       13 UNK         0.5000 
     78 O          -4.2724  -24.9875  -48.0343 O.2       13 UNK        -0.5000 
     79 N          -2.0887  -24.5081  -47.6153 N.am      14 UNK        -0.5000 
     80 CA         -1.4783  -25.4761  -48.5279 C.3       14 UNK         0.1400 
     81 CB          0.0403  -25.5102  -48.3010 C.3       14 UNK        -0.1800 
     82 C          -1.8016  -25.1937  -50.0066 C.2       14 UNK         0.5000 
     83 O          -2.0224  -26.1352  -50.7691 O.2       14 UNK        -0.5000 
     84 N          -1.8868  -23.9094  -50.3775 N.am      15 UNK        -0.5000 
     85 CA         -2.2798  -23.4147  -51.6986 C.3       15 UNK         0.1400 
     86 CB         -1.7200  -21.9971  -51.8778 C.3       15 UNK        -0.1800 
     87 C          -3.8049  -23.4838  -51.9430 C.2       15 UNK         0.5000 
     88 O          -4.4000  -22.5163  -52.4277 O.2       15 UNK        -0.5000 
     89 N          -4.3886  -24.6476  -51.6272 N.am      16 UNK        -0.5000 
     90 CA         -5.7862  -25.0445  -51.7911 C.3       16 UNK         0.1400 
     91 CB         -6.1417  -25.1643  -53.2863 C.3       16 UNK        -0.1800 
     92 C          -6.7668  -24.1576  -51.0006 C.2       16 UNK         0.5000 
     93 O          -7.7163  -23.6255  -51.5757 O.2       16 UNK        -0.5000 
     94 N          -6.5266  -24.0316  -49.6868 N.am      17 UNK        -0.5000 
     95 CA         -7.3893  -23.3585  -48.7069 C.3       17 UNK         0.1400 
     96 CB         -8.7006  -24.1484  -48.5100 C.3       17 UNK        -0.1800 
     97 C          -7.6241  -21.8675  -49.0285 C.2       17 UNK         0.5000 
     98 O          -8.7656  -21.4033  -49.0437 O.2       17 UNK        -0.5000 
     99 N          -6.5216  -21.1538  -49.2914 N.am      18 UNK        -0.5000 
    100 CA        -6.4343  -19.7285  -49.6203 C.3       18 UNK         0.1400 
    101 CB        -6.9712  -18.8485  -48.4721 C.3       18 UNK        -0.1800 
    102 C         -7.0186  -19.3563  -50.9983 C.2       18 UNK         0.5000 
    103 O         -7.2750  -18.1775  -51.2481 O.2       18 UNK        -0.5000 
    104 N         -7.1625  -20.3431  -51.8962 N.am      19 UNK        -0.5000 
    105 CA        -7.4788  -20.1232  -53.3116 C.3       19 UNK         0.1400 
    106 CB        -7.9724  -21.4348  -53.9364 C.3       19 UNK        -0.1800 
    107 C         -6.2766  -19.5719  -54.1057 C.2       19 UNK         0.5000 
    108 O         -6.4756  -19.0053  -55.1806 O.2       19 UNK        -0.5000 
    109 N         -5.0656  -19.7440  -53.5530 N.am      20 UNK        -0.5000 
    110 CA        -3.7679  -19.3199  -54.0765 C.3       20 UNK         0.1400 
    111 CB        -3.6876  -17.7867  -54.2304 C.3       20 UNK        -0.1800 
    112 C         -3.3945  -20.0908  -55.3543 C.2       20 UNK         0.5000 
    113 O         -3.1092  -19.4886  -56.3933 O.2       20 UNK        -0.5000 
    114 N         -3.4089  -21.4268  -55.2413 N.am      21 UNK        -0.5000 
    115 CA        -3.1369  -22.4140  -56.2938 C.3       21 UNK         0.1400 
    116 CB        -3.6066  -23.7933  -55.7996 C.3       21 UNK        -0.1800 
    117 C         -1.6812  -22.4385  -56.8268 C.2       21 UNK         0.5000 
    118 O         -1.0896  -23.5088  -56.9783 O.2       21 UNK        -0.5000 
    119 N         -1.1422  -21.2591  -57.1344 N.am      22 UNK        -0.5000 
    120 CA         0.1114  -21.0272  -57.8622 C.3       22 UNK         0.1400 
    121 C          0.0902  -19.7313  -58.7264 C.2       22 UNK         0.5000 
    122 N         -0.9708  -18.9286  -58.7200 N.am      22 UNK        -0.7600 
    123 O          1.0476  -19.4589  -59.4457 O.2       22 UNK        -0.5000 
    124 C124        1.3732  -21.1474  -56.9655 C.3       23 UNK        -0.0398 
    125 S125        1.4859  -19.8805  -55.6529 S.3       23 UNK        -0.2404 
    126 C126        1.0988  -20.8782  -54.1867 C.3       23 UNK        -0.0205 
    127 H127        2.8257  -13.4076  -49.1419 H         1 UNK         0.0600 
    128 H128        3.7773  -14.8950  -49.1898 H         1 UNK         0.0600 
    129 H129        3.5039  -14.0697  -47.6511 H         1 UNK         0.0600 
    130 H130        0.6252  -13.7761  -49.2851 H         1 UNK         0.3000 
    131 H131       -0.5256  -16.3836  -48.4745 H         1 UNK         0.0600 
    132 H132       -2.5702  -15.5898  -49.6824 H         1 UNK         0.0800 
    133 H133       -1.7758  -14.0875  -50.0739 H         1 UNK         0.0800 
    134 H134       -1.5246  -17.8079  -50.0604 H         1 UNK         0.0800 
    135 H135       -2.1169  -17.9368  -51.6927 H         1 UNK         0.0800 
    136 H136       -0.8315  -19.1893  -53.3112 H         1 UNK         0.1150 
    137 H137        3.0528  -20.6662  -52.2844 H         1 UNK         0.1150 
    138 H138        1.0249  -17.9632  -49.6472 H         1 UNK         0.1150 
    139 H139        4.2895  -19.2739  -50.5612 H         1 UNK         0.0800 
    140 H140        3.4056  -18.4012  -49.3400 H         1 UNK         0.0800 
    141 H141        1.9217  -19.3217  -47.6679 H         1 UNK         0.0800 
    142 H142        3.0540  -20.1571  -46.6553 H         1 UNK         0.0800 
    143 H143        1.7300  -22.3555  -47.4513 H         1 UNK         0.0600 
    144 H144        1.4937  -20.7819  -45.1346 H         1 UNK         0.3000 
    145 H145       -0.8198  -22.9067  -43.4009 H         1 UNK         0.0600 
    146 H146        1.0237  -22.8409  -41.7547 H         1 UNK         0.0600 
    147 H147        1.4477  -23.8987  -43.0921 H         1 UNK         0.0600 
    148 H148        2.1526  -22.2905  -42.9900 H         1 UNK         0.0600 
    149 H149        0.4328  -20.5054  -42.5811 H         1 UNK         0.3000 
    150 H150       -2.0434  -18.2519  -43.9117 H         1 UNK         0.0600 
    151 H151       -2.8329  -18.9978  -41.6958 H         1 UNK         0.0600 
    152 H152       -1.8974  -17.5176  -41.5328 H         1 UNK         0.0600 
    153 H153       -1.1850  -19.0671  -41.0892 H         1 UNK         0.0600 
    154 H154        0.4247  -17.7606  -42.5488 H         1 UNK         0.3000 
    155 H155        2.5255  -17.6488  -45.4341 H         1 UNK         0.0600 
    156 H156        1.6651  -15.4316  -43.5089 H         1 UNK         0.0600 
    157 H157        3.0677  -15.4242  -44.5738 H         1 UNK         0.0600 
    158 H158        1.4510  -15.3662  -45.2535 H         1 UNK         0.0600 
    159 H159        2.9209  -17.2442  -42.5983 H         1 UNK         0.3000 
    160 H160        3.8443  -20.6181  -41.8664 H         1 UNK         0.0600 
    161 H161        5.4655  -18.0188  -42.0341 H         1 UNK         0.0600 
    162 H162        5.8747  -19.5297  -42.8381 H         1 UNK         0.0600 
    163 H163        5.8814  -19.4453  -41.0839 H         1 UNK         0.0600 
    164 H164        3.7373  -18.2520  -40.2666 H         1 UNK         0.3000 
    165 H165        0.3402  -18.4835  -39.2650 H         1 UNK         0.0600 
    166 H166        1.3309  -18.6787  -37.0034 H         1 UNK         0.0600 
    167 H167        1.4509  -20.2146  -37.8460 H         1 UNK         0.0600 
    168 H168        2.8735  -19.1910  -37.6892 H         1 UNK         0.0600 
    169 H169        2.4412  -16.8276  -38.3401 H         1 UNK         0.3000 
    170 H170        2.3719  -14.6540  -38.7838 H         1 UNK         0.0600 
    171 H171        3.4123  -14.7704  -41.6765 H         1 UNK         0.0600 
    172 H172        4.0058  -13.6955  -40.4130 H         1 UNK         0.0600 
    173 H173        4.2431  -15.4293  -40.2709 H         1 UNK         0.0600 
    174 H174        0.6910  -14.0322  -41.1163 H         1 UNK         0.3000 
    175 H175       -0.8280  -11.9001  -40.2543 H         1 UNK         0.0600 
    176 H176       -0.3718   -9.4475  -40.5047 H         1 UNK         0.0600 
    177 H177        1.3419   -9.7245  -40.1989 H         1 UNK         0.0600 
    178 H178        0.1545  -10.0222  -38.9327 H         1 UNK         0.0600 
    179 H179        1.2990  -12.0269  -42.1992 H         1 UNK         0.3000 
    180 H180       -0.3812  -10.9657  -44.9398 H         1 UNK         0.0600 
    181 H181        1.7160  -12.9669  -43.9210 H         1 UNK         0.0600 
    182 H182        1.9907  -11.2491  -44.2112 H         1 UNK         0.0600 
    183 H183        1.6072  -12.3158  -45.5489 H         1 UNK         0.0600 
    184 H184       -1.2800  -12.8589  -45.7409 H         1 UNK         0.3000 
    185 H185       -1.8820  -16.0937  -44.4130 H         1 UNK         0.0600 
    186 H186       -3.8637  -14.6847  -44.0777 H         1 UNK         0.0600 
    187 H187       -3.6082  -13.8803  -45.6168 H         1 UNK         0.0600 
    188 H188       -4.0045  -15.5977  -45.5719 H         1 UNK         0.0600 
    189 H189       -0.9395  -16.4065  -46.3553 H         1 UNK         0.3000 
    190 H190       -0.5868  -19.7087  -46.7117 H         1 UNK         0.3000 
    191 H191       -2.0470  -19.8561  -49.1462 H         1 UNK         0.0600 
    192 H192       -2.2103  -17.9243  -47.6072 H         1 UNK         0.0600 
    193 H193       -3.8028  -18.6172  -47.8587 H         1 UNK         0.0600 
    194 H194       -2.9366  -18.9320  -46.3606 H         1 UNK         0.0600 
    195 H195       -2.5457  -21.5593  -46.0168 H         1 UNK         0.3000 
    196 H196       -4.8829  -22.9532  -46.7279 H         1 UNK         0.0600 
    197 H197       -4.2911  -24.4573  -44.8387 H         1 UNK         0.0600 
    198 H198       -4.0651  -22.7704  -44.4019 H         1 UNK         0.0600 
    199 H199       -2.6707  -23.7779  -44.7824 H         1 UNK         0.0600 
    200 H200       -1.4475  -23.9378  -47.0692 H         1 UNK         0.3000 
    201 H201       -1.8815  -26.4610  -48.2840 H         1 UNK         0.0600 
    202 H202        0.2789  -25.7902  -47.2748 H         1 UNK         0.0600 
    203 H203        0.4984  -24.5403  -48.4972 H         1 UNK         0.0600 
    204 H204        0.5181  -26.2389  -48.9569 H         1 UNK         0.0600 
    205 H205       -1.6585  -23.1981  -49.6911 H         1 UNK         0.3000 
    206 H206       -1.8100  -24.0485  -52.4532 H         1 UNK         0.0600 
    207 H207       -0.6495  -21.9730  -51.6749 H         1 UNK         0.0600 
    208 H208       -1.8613  -21.6492  -52.8991 H         1 UNK         0.0600 
    209 H209       -2.2016  -21.2828  -51.2097 H         1 UNK         0.0600 
    210 H210       -3.7771  -25.3616  -51.2444 H         1 UNK         0.3000 
    211 H211       -5.8693  -26.0428  -51.3592 H         1 UNK         0.0600 
    212 H212       -6.1046  -24.1985  -53.7862 H         1 UNK         0.0600 
    213 H213       -7.1485  -25.5620  -53.4186 H         1 UNK         0.0600 
    214 H214       -5.4562  -25.8359  -53.8032 H         1 UNK         0.0600 
    215 H215       -5.6937  -24.4689  -49.3012 H         1 UNK         0.3000 
    216 H216       -6.8578  -23.3854  -47.7568 H         1 UNK         0.0600 
    217 H217       -9.2971  -23.7200  -47.7037 H         1 UNK         0.0600 
    218 H218       -8.4989  -25.1865  -48.2462 H         1 UNK         0.0600 
    219 H219       -9.3172  -24.1446  -49.4095 H         1 UNK         0.0600 
    220 H220       -5.6198  -21.6251  -49.2602 H         1 UNK         0.3000 
    221 H221       -5.3673  -19.5196  -49.7042 H         1 UNK         0.0600 
    222 H222       -8.0536  -18.9275  -48.3708 H         1 UNK         0.0600 
    223 H223       -6.5218  -19.1274  -47.5190 H         1 UNK         0.0600 
    224 H224       -6.7372  -17.7971  -48.6427 H         1 UNK         0.0600 
    225 H225       -6.9663  -21.2957  -51.6162 H         1 UNK         0.3000 
    226 H226       -8.2859  -19.3908  -53.3791 H         1 UNK         0.0600 
    227 H227       -8.8391  -21.8261  -53.4034 H         1 UNK         0.0600 
    228 H228       -8.2681  -21.2871  -54.9757 H         1 UNK         0.0600 
    229 H229       -7.1944  -22.1969  -53.9223 H         1 UNK         0.0600 
    230 H230       -5.0282  -20.3144  -52.7179 H         1 UNK         0.3000 
    231 H231       -3.0430  -19.6069  -53.3167 H         1 UNK         0.0600 
    232 H232       -4.3415  -17.4193  -55.0216 H         1 UNK         0.0600 
    233 H233       -2.6720  -17.4755  -54.4782 H         1 UNK         0.0600 
    234 H234       -3.9657  -17.2813  -53.3056 H         1 UNK         0.0600 
    235 H235       -3.6944  -21.8117  -54.3483 H         1 UNK         0.3000 
    236 H236       -3.7618  -22.1496  -57.1491 H         1 UNK         0.0600 
    237 H237       -4.6644  -23.7732  -55.5424 H         1 UNK         0.0600 
    238 H238       -3.4827  -24.5552  -56.5702 H         1 UNK         0.0600 
    239 H239       -3.0489  -24.1182  -54.9209 H         1 UNK         0.0600 
    240 H240       -1.7041  -20.4349  -56.9415 H         1 UNK         0.3000 
    241 H241        0.1834  -21.8239  -58.6050 H         1 UNK         0.0600 
    242 H242       -1.7799  -19.1041  -58.1416 H         1 UNK         0.3800 
    243 H243       -0.9550  -18.1044  -59.3001 H         1 UNK         0.3800 
    244 H244        1.4107  -22.1415  -56.5186 H         1 UNK         0.0800 
    245 H245        2.2736  -21.0762  -57.5777 H         1 UNK         0.0800 
    246 H246        0.1220  -21.3455  -54.3170 H         1 UNK         0.0800 
    247 H247        1.8215  -21.6909  -54.0985 H         1 UNK         0.0800 
@<TRIPOS>BOND
     1    1    2 1    
     2    1  127 1    
     3    1  128 1    
     4    1  129 1    
     5    2    3 2    
     6    2    4 am   BACKBONE|DICT|INTERRES
     7    4    5 1    
     8    4  130 1    
     9    5    6 1    
    10    5   65 1    
    11    5  131 1    
    12    6    7 1    
    13    6  132 1    
    14    6  133 1    
    15    7    8 1    
    16    8    9 1    
    17    8  134 1    
    18    8  135 1    
    19    9   10 ar   
    20    9   14 ar   
    21   10   11 ar   
    22   10  136 1    
    23   11   12 ar   
    24   11  126 1    
    25   12   13 ar   
    26   12  137 1    
    27   13   14 ar   
    28   13   15 1    
    29   14  138 1    
    30   15   16 1    
    31   15  139 1    
    32   15  140 1    
    33   16   17 1    
    34   17   18 1    
    35   17  141 1    
    36   17  142 1    
    37   18   19 1    
    38   18   67 1    
    39   18  143 1    
    40   19   20 am   BACKBONE|DICT|INTERRES
    41   19  144 1    
    42   20   21 2    
    43   20   22 1    
    44   22   23 1    
    45   22   24 1    
    46   22  145 1    
    47   23  146 1    
    48   23  147 1    
    49   23  148 1    
    50   24   25 am   BACKBONE|DICT|INTERRES
    51   24  149 1    
    52   25   26 2    
    53   25   27 1    
    54   27   28 1    
    55   27   29 1    
    56   27  150 1    
    57   28  151 1    
    58   28  152 1    
    59   28  153 1    
    60   29   30 am   BACKBONE|DICT|INTERRES
    61   29  154 1    
    62   30   31 2    
    63   30   32 1    
    64   32   33 1    
    65   32   34 1    
    66   32  155 1    
    67   33  156 1    
    68   33  157 1    
    69   33  158 1    
    70   34   35 am   BACKBONE|DICT|INTERRES
    71   34  159 1    
    72   35   36 2    
    73   35   37 1    
    74   37   38 1    
    75   37   39 1    
    76   37  160 1    
    77   38  161 1    
    78   38  162 1    
    79   38  163 1    
    80   39   40 am   BACKBONE|DICT|INTERRES
    81   39  164 1    
    82   40   41 2    
    83   40   42 1    
    84   42   43 1    
    85   42   44 1    
    86   42  165 1    
    87   43  166 1    
    88   43  167 1    
    89   43  168 1    
    90   44   45 am   BACKBONE|DICT|INTERRES
    91   44  169 1    
    92   45   46 2    
    93   45   47 1    
    94   47   48 1    
    95   47   49 1    
    96   47  170 1    
    97   48  171 1    
    98   48  172 1    
    99   48  173 1    
   100   49   50 am   BACKBONE|DICT|INTERRES
   101   49  174 1    
   102   50   51 2    
   103   50   52 1    
   104   52   53 1    
   105   52   54 1    
   106   52  175 1    
   107   53  176 1    
   108   53  177 1    
   109   53  178 1    
   110   54   55 am   BACKBONE|DICT|INTERRES
   111   54  179 1    
   112   55   56 2    
   113   55   57 1    
   114   57   58 1    
   115   57   59 1    
   116   57  180 1    
   117   58  181 1    
   118   58  182 1    
   119   58  183 1    
   120   59   60 am   BACKBONE|DICT|INTERRES
   121   59  184 1    
   122   60   61 2    
   123   60   62 1    
   124   62   63 1    
   125   62   64 1    
   126   62  185 1    
   127   63  186 1    
   128   63  187 1    
   129   63  188 1    
   130   64   65 am   BACKBONE|DICT|INTERRES
   131   64  189 1    
   132   65   66 2    
   133   67   68 2    
   134   67   69 am   BACKBONE|DICT|INTERRES
   135   69   70 1    
   136   69  190 1    
   137   70   71 1    
   138   70   72 1    
   139   70  191 1    
   140   71  192 1    
   141   71  193 1    
   142   71  194 1    
   143   72   73 2    
   144   72   74 am   BACKBONE|DICT|INTERRES
   145   74   75 1    
   146   74  195 1    
   147   75   76 1    
   148   75   77 1    
   149   75  196 1    
   150   76  197 1    
   151   76  198 1    
   152   76  199 1    
   153   77   78 2    
   154   77   79 am   BACKBONE|DICT|INTERRES
   155   79   80 1    
   156   79  200 1    
   157   80   81 1    
   158   80   82 1    
   159   80  201 1    
   160   81  202 1    
   161   81  203 1    
   162   81  204 1    
   163   82   83 2    
   164   82   84 am   BACKBONE|DICT|INTERRES
   165   84   85 1    
   166   84  205 1    
   167   85   86 1    
   168   85   87 1    
   169   85  206 1    
   170   86  207 1    
   171   86  208 1    
   172   86  209 1    
   173   87   88 2    
   174   87   89 am   BACKBONE|DICT|INTERRES
   175   89   90 1    
   176   89  210 1    
   177   90   91 1    
   178   90   92 1    
   179   90  211 1    
   180   91  212 1    
   181   91  213 1    
   182   91  214 1    
   183   92   93 2    
   184   92   94 am   BACKBONE|DICT|INTERRES
   185   94   95 1    
   186   94  215 1    
   187   95   96 1    
   188   95   97 1    
   189   95  216 1    
   190   96  217 1    
   191   96  218 1    
   192   96  219 1    
   193   97   98 2    
   194   97   99 am   BACKBONE|DICT|INTERRES
   195   99  100 1    
   196   99  220 1    
   197  100  101 1    
   198  100  102 1    
   199  100  221 1    
   200  101  222 1    
   201  101  223 1    
   202  101  224 1    
   203  102  103 2    
   204  102  104 am   BACKBONE|DICT|INTERRES
   205  104  105 1    
   206  104  225 1    
   207  105  106 1    
   208  105  107 1    
   209  105  226 1    
   210  106  227 1    
   211  106  228 1    
   212  106  229 1    
   213  107  108 2    
   214  107  109 am   BACKBONE|DICT|INTERRES
   215  109  110 1    
   216  109  230 1    
   217  110  111 1    
   218  110  112 1    
   219  110  231 1    
   220  111  232 1    
   221  111  233 1    
   222  111  234 1    
   223  112  113 2    
   224  112  114 am   BACKBONE|DICT|INTERRES
   225  114  115 1    
   226  114  235 1    
   227  115  116 1    
   228  115  117 1    
   229  115  236 1    
   230  116  237 1    
   231  116  238 1    
   232  116  239 1    
   233  117  118 2    
   234  117  119 am   BACKBONE|DICT|INTERRES
   235  119  120 1    
   236  119  240 1    
   237  120  121 1    
   238  120  124 1    
   239  120  241 1    
   240  121  122 am   BACKBONE|DICT|INTERRES
   241  121  123 2    
   242  122  242 1    
   243  122  243 1    
   244  124  125 1    
   245  124  244 1    
   246  124  245 1    
   247  125  126 1    
   248  126  246 1    
   249  126  247 1    
@<TRIPOS>SUBSTRUCTURE
     1 UNK         1 GROUP             0       ****    0 ROOT    
