@<TRIPOS>MOLECULE
3R540
247   249    1
SMALL
USER_CHARGES


@<TRIPOS>ATOM
      1 CA         -0.5580   -8.6468  -47.6379 C.3       0 UNK        -0.1800 
      2 C          -0.0748  -10.0869  -47.5411 C.2       0 UNK         0.5000 
      3 O           1.1082  -10.3186  -47.2972 O.2       0 UNK        -0.5000 
      4 N          -0.9845  -11.0509  -47.7357 N.am      1 UNK        -0.5000 
      5 CA         -0.7157  -12.4907  -47.6257 C.3       1 UNK         0.1400 
      6 C6         -1.8039  -13.3118  -48.3617 C.3       23 UNK        -0.0398 
      7 S7         -1.2747  -15.0141  -48.7389 S.3       23 UNK        -0.2404 
      8 C8         -2.1377  -15.3315  -50.3059 C.3       23 UNK        -0.0205 
      9 C9         -2.0242  -16.8006  -50.6728 C.ar      23 UNK        -0.0193 
     10 C10        -1.0382  -17.2421  -51.5570 C.ar      23 UNK        -0.1150 
     11 C11        -0.9144  -18.6016  -51.8627 C.ar      23 UNK        -0.0193 
     12 C12        -1.7712  -19.5250  -51.2506 C.ar      23 UNK        -0.1150 
     13 C13        -2.7431  -19.0962  -50.3392 C.ar      23 UNK        -0.0193 
     14 C14        -2.8821  -17.7289  -50.0827 C.ar      23 UNK        -0.1150 
     15 C15        -3.6083  -20.0969  -49.5818 C.3       23 UNK        -0.0205 
     16 S16        -3.3798  -19.8801  -47.7883 S.3       23 UNK        -0.2404 
     17 C17        -4.3816  -21.2108  -47.0483 C.3       23 UNK        -0.0398 
     18 CA         -3.5149  -22.4266  -46.6484 C.3       11 UNK         0.1400 
     19 N          -2.3221  -22.0510  -45.8788 N.am      11 UNK        -0.5000 
     20 C          -1.2718  -22.8491  -45.6438 C.2       10 UNK         0.5000 
     21 O          -1.2461  -24.0374  -45.9617 O.2       10 UNK        -0.5000 
     22 CA         -0.0543  -22.2316  -44.9339 C.3       10 UNK         0.1400 
     23 CB          1.0804  -21.9963  -45.9422 C.3       10 UNK        -0.1800 
     24 N          -0.3640  -20.9750  -44.2464 N.am      10 UNK        -0.5000 
     25 C          -1.0380  -20.8973  -43.0882 C.2       9 UNK         0.5000 
     26 O          -1.4725  -21.8838  -42.4925 O.2       9 UNK        -0.5000 
     27 CA         -1.2845  -19.4947  -42.4966 C.3       9 UNK         0.1400 
     28 CB         -0.2478  -19.1816  -41.4075 C.3       9 UNK        -0.1800 
     29 N          -1.2600  -18.4314  -43.5017 N.am      9 UNK        -0.5000 
     30 C          -2.2167  -18.2361  -44.4212 C.2       8 UNK         0.5000 
     31 O          -3.2473  -18.9074  -44.4717 O.2       8 UNK        -0.5000 
     32 CA         -1.9836  -17.1232  -45.4666 C.3       8 UNK         0.1400 
     33 CB         -2.7739  -15.8617  -45.0871 C.3       8 UNK        -0.1800 
     34 N          -0.5781  -16.7593  -45.6623 N.am      8 UNK        -0.5000 
     35 C           0.3993  -17.5862  -46.0617 C.2       7 UNK         0.5000 
     36 O           0.2298  -18.7793  -46.3097 O.2       7 UNK        -0.5000 
     37 CA          1.8195  -16.9945  -46.1128 C.3       7 UNK         0.1400 
     38 CB          2.1271  -16.4159  -47.5017 C.3       7 UNK        -0.1800 
     39 N           2.0214  -15.9569  -45.1003 N.am      7 UNK        -0.5000 
     40 C           2.0623  -16.1719  -43.7788 C.2       6 UNK         0.5000 
     41 O           1.9802  -17.2942  -43.2783 O.2       6 UNK        -0.5000 
     42 CA          2.1692  -14.9277  -42.8691 C.3       6 UNK         0.1400 
     43 CB          2.8127  -15.2426  -41.5036 C.3       6 UNK        -0.1800 
     44 N           2.8320  -13.7767  -43.4919 N.am      6 UNK        -0.5000 
     45 C           4.0810  -13.7178  -43.9773 C.2       5 UNK         0.5000 
     46 O           4.8623  -14.6689  -44.0157 O.2       5 UNK        -0.5000 
     47 CA          4.5371  -12.3381  -44.4775 C.3       5 UNK         0.1400 
     48 CB          3.8961  -12.0039  -45.8341 C.3       5 UNK        -0.1800 
     49 N           4.2252  -11.2901  -43.5030 N.am      5 UNK        -0.5000 
     50 C           4.9049  -11.1048  -42.3607 C.2       4 UNK         0.5000 
     51 O           5.8934  -11.7683  -42.0441 O.2       4 UNK        -0.5000 
     52 CA          4.4275   -9.9870  -41.4123 C.3       4 UNK         0.1400 
     53 CB          5.3119   -8.7397  -41.5673 C.3       4 UNK        -0.1800 
     54 N           3.0320   -9.6011  -41.6192 N.am      4 UNK        -0.5000 
     55 C           1.9718  -10.3019  -41.1973 C.2       3 UNK         0.5000 
     56 O           2.0594  -11.3500  -40.5545 O.2       3 UNK        -0.5000 
     57 CA          0.5724   -9.7476  -41.5527 C.3       3 UNK         0.1400 
     58 CB          0.6009   -8.4777  -42.4350 C.3       3 UNK        -0.1800 
     59 N          -0.2956  -10.7554  -42.1721 N.am      3 UNK        -0.5000 
     60 C          -0.0167  -11.5017  -43.2505 C.2       2 UNK         0.5000 
     61 O           1.0756  -11.4846  -43.8217 O.2       2 UNK        -0.5000 
     62 CA         -1.1348  -12.4194  -43.7900 C.3       2 UNK         0.1400 
     63 CB         -2.5167  -12.1798  -43.1502 C.3       2 UNK        -0.1800 
     64 N          -1.2516  -12.2451  -45.2359 N.am      2 UNK        -0.5000 
     65 C          -0.5588  -12.9346  -46.1519 C.2       1 UNK         0.5000 
     66 O           0.1806  -13.8783  -45.8707 O.2       1 UNK        -0.5000 
     67 C          -4.3579  -23.5316  -45.9758 C.2       11 UNK         0.5000 
     68 O          -5.1449  -24.1888  -46.6570 O.2       11 UNK        -0.5000 
     69 N          -4.1412  -23.7629  -44.6732 N.am      12 UNK        -0.5000 
     70 CA         -4.6849  -24.8937  -43.9211 C.3       12 UNK         0.1400 
     71 CB         -4.3536  -24.7066  -42.4331 C.3       12 UNK        -0.1800 
     72 C          -4.1716  -26.2608  -44.4211 C.2       12 UNK         0.5000 
     73 O          -4.8905  -27.2541  -44.3019 O.2       12 UNK        -0.5000 
     74 N          -2.9628  -26.2952  -45.0026 N.am      13 UNK        -0.5000 
     75 CA         -2.3542  -27.4814  -45.6030 C.3       13 UNK         0.1400 
     76 CB         -0.8216  -27.3615  -45.5187 C.3       13 UNK        -0.1800 
     77 C          -2.8557  -27.6726  -47.0472 C.2       13 UNK         0.5000 
     78 O          -2.0775  -27.5496  -47.9947 O.2       13 UNK        -0.5000 
     79 N          -4.1628  -27.9381  -47.1848 N.am      14 UNK        -0.5000 
     80 CA         -4.8861  -28.2235  -48.4300 C.3       14 UNK         0.1400 
     81 CB         -4.4871  -29.6144  -48.9659 C.3       14 UNK        -0.1800 
     82 C          -4.7227  -27.1120  -49.4870 C.2       14 UNK         0.5000 
     83 O          -4.2776  -27.3796  -50.6044 O.2       14 UNK        -0.5000 
     84 N          -5.0387  -25.8697  -49.0919 N.am      15 UNK        -0.5000 
     85 CA         -4.9067  -24.6426  -49.8881 C.3       15 UNK         0.1400 
     86 CB         -5.8511  -24.6704  -51.1062 C.3       15 UNK        -0.1800 
     87 C          -3.4409  -24.3280  -50.2551 C.2       15 UNK         0.5000 
     88 O          -3.1735  -23.8035  -51.3378 O.2       15 UNK        -0.5000 
     89 N          -2.5282  -24.6652  -49.3306 N.am      16 UNK        -0.5000 
     90 CA         -1.0699  -24.5638  -49.4254 C.3       16 UNK         0.1400 
     91 CB         -0.6174  -23.0924  -49.5408 C.3       16 UNK        -0.1800 
     92 C          -0.5299  -25.4711  -50.5460 C.2       16 UNK         0.5000 
     93 O           0.1619  -25.0025  -51.4494 O.2       16 UNK        -0.5000 
     94 N          -0.9051  -26.7564  -50.4718 N.am      17 UNK        -0.5000 
     95 CA         -0.6476  -27.8166  -51.4506 C.3       17 UNK         0.1400 
     96 CB          0.8557  -28.1594  -51.5061 C.3       17 UNK        -0.1800 
     97 C          -1.2550  -27.4936  -52.8324 C.2       17 UNK         0.5000 
     98 O          -0.5729  -27.5944  -53.8541 O.2       17 UNK        -0.5000 
     99 N          -2.5369  -27.1000  -52.8206 N.am      18 UNK        -0.5000 
    100 CA        -3.3739  -26.7367  -53.9683 C.3       18 UNK         0.1400 
    101 CB        -3.6178  -27.9620  -54.8740 C.3       18 UNK        -0.1800 
    102 C         -2.8823  -25.4989  -54.7508 C.2       18 UNK         0.5000 
    103 O         -3.1773  -25.3755  -55.9411 O.2       18 UNK        -0.5000 
    104 N         -2.1593  -24.5931  -54.0777 N.am      19 UNK        -0.5000 
    105 CA        -1.7050  -23.3198  -54.6390 C.3       19 UNK         0.1400 
    106 CB        -0.5510  -22.7751  -53.7898 C.3       19 UNK        -0.1800 
    107 C         -2.8638  -22.3095  -54.7550 C.2       19 UNK         0.5000 
    108 O         -2.9905  -21.6568  -55.7907 O.2       19 UNK        -0.5000 
    109 N         -3.7185  -22.2778  -53.7198 N.am      20 UNK        -0.5000 
    110 CA        -5.0612  -21.6929  -53.6733 C.3       20 UNK         0.1400 
    111 CB        -6.0316  -22.5890  -54.4706 C.3       20 UNK        -0.1800 
    112 C         -5.1562  -20.2111  -54.0961 C.2       20 UNK         0.5000 
    113 O         -5.6140  -19.9142  -55.2014 O.2       20 UNK        -0.5000 
    114 N         -4.7772  -19.3156  -53.1716 N.am      21 UNK        -0.5000 
    115 CA        -4.9340  -17.8559  -53.2369 C.3       21 UNK         0.1400 
    116 CB        -6.4267  -17.4641  -53.2266 C.3       21 UNK        -0.1800 
    117 C         -4.1539  -17.2304  -54.4081 C.2       21 UNK         0.5000 
    118 O         -4.7457  -16.7407  -55.3721 O.2       21 UNK        -0.5000 
    119 N         -2.8237  -17.2853  -54.2952 N.am      22 UNK        -0.5000 
    120 CA        -1.8540  -16.8507  -55.3145 C.3       22 UNK         0.1400 
    121 C         -1.8222  -15.3214  -55.6115 C.2       22 UNK         0.5000 
    122 N         -2.4238  -14.4677  -54.7922 N.am      22 UNK        -0.7600 
    123 O         -1.2370  -14.9023  -56.6065 O.2       22 UNK        -0.5000 
    124 C124       -0.4215  -17.3593  -55.0021 C.3       23 UNK        -0.0398 
    125 S125       -0.3557  -19.1279  -54.5500 S.3       23 UNK        -0.2404 
    126 C126        0.1825  -19.0747  -52.8081 C.3       23 UNK        -0.0205 
    127 H127       -0.0126   -8.1198  -48.4208 H         1 UNK         0.0600 
    128 H128       -0.3853   -8.1302  -46.6936 H         1 UNK         0.0600 
    129 H129       -1.6223   -8.5895  -47.8673 H         1 UNK         0.0600 
    130 H130       -1.9367  -10.7925  -47.9533 H         1 UNK         0.3000 
    131 H131        0.2400  -12.6811  -48.1197 H         1 UNK         0.0600 
    132 H132       -2.0460  -12.8253  -49.3078 H         1 UNK         0.0800 
    133 H133       -2.7347  -13.3424  -47.7925 H         1 UNK         0.0800 
    134 H134       -1.7158  -14.7032  -51.0919 H         1 UNK         0.0800 
    135 H135       -3.1889  -15.0552  -50.2102 H         1 UNK         0.0800 
    136 H136       -0.3562  -16.5248  -51.9900 H         1 UNK         0.1150 
    137 H137       -1.6582  -20.5788  -51.4599 H         1 UNK         0.1150 
    138 H138       -3.6259  -17.3899  -49.3750 H         1 UNK         0.1150 
    139 H139       -4.6573  -19.9456  -49.8396 H         1 UNK         0.0800 
    140 H140       -3.3501  -21.1208  -49.8570 H         1 UNK         0.0800 
    141 H141       -5.1685  -21.5034  -47.7457 H         1 UNK         0.0800 
    142 H142       -4.8833  -20.7975  -46.1714 H         1 UNK         0.0800 
    143 H143       -3.1463  -22.8553  -47.5773 H         1 UNK         0.0600 
    144 H144       -2.2678  -21.0830  -45.5924 H         1 UNK         0.3000 
    145 H145        0.2956  -22.9540  -44.1935 H         1 UNK         0.0600 
    146 H146        0.7690  -21.3367  -46.7529 H         1 UNK         0.0600 
    147 H147        1.9530  -21.5528  -45.4625 H         1 UNK         0.0600 
    148 H148        1.3993  -22.9363  -46.3945 H         1 UNK         0.0600 
    149 H149       -0.0780  -20.1223  -44.7156 H         1 UNK         0.3000 
    150 H150       -2.2726  -19.5020  -42.0315 H         1 UNK         0.0600 
    151 H151       -0.2963  -19.9149  -40.6015 H         1 UNK         0.0600 
    152 H152       -0.4205  -18.2004  -40.9649 H         1 UNK         0.0600 
    153 H153        0.7684  -19.1983  -41.8027 H         1 UNK         0.0600 
    154 H154       -0.4271  -17.8599  -43.5372 H         1 UNK         0.3000 
    155 H155       -2.3603  -17.4861  -46.4238 H         1 UNK         0.0600 
    156 H156       -3.8308  -16.0897  -44.9429 H         1 UNK         0.0600 
    157 H157       -2.7127  -15.1074  -45.8707 H         1 UNK         0.0600 
    158 H158       -2.4033  -15.4183  -44.1624 H         1 UNK         0.0600 
    159 H159       -0.3371  -15.7813  -45.5365 H         1 UNK         0.3000 
    160 H160        2.5232  -17.8061  -45.9167 H         1 UNK         0.0600 
    161 H161        3.1684  -16.1017  -47.5743 H         1 UNK         0.0600 
    162 H162        1.5018  -15.5513  -47.7248 H         1 UNK         0.0600 
    163 H163        1.9538  -17.1575  -48.2827 H         1 UNK         0.0600 
    164 H164        1.9808  -14.9983  -45.4237 H         1 UNK         0.3000 
    165 H165        1.1429  -14.6132  -42.6787 H         1 UNK         0.0600 
    166 H166        3.8302  -15.6186  -41.6141 H         1 UNK         0.0600 
    167 H167        2.8499  -14.3538  -40.8731 H         1 UNK         0.0600 
    168 H168        2.2408  -15.9980  -40.9633 H         1 UNK         0.0600 
    169 H169        2.2708  -12.9305  -43.5566 H         1 UNK         0.3000 
    170 H170        5.6196  -12.3706  -44.6193 H         1 UNK         0.0600 
    171 H171        2.8081  -11.9655  -45.7746 H         1 UNK         0.0600 
    172 H172        4.2428  -11.0408  -46.2085 H         1 UNK         0.0600 
    173 H173        4.1535  -12.7556  -46.5811 H         1 UNK         0.0600 
    174 H174        3.3882  -10.7480  -43.6691 H         1 UNK         0.3000 
    175 H175        4.5383  -10.3556  -40.3902 H         1 UNK         0.0600 
    176 H176        5.2390   -8.3164  -42.5699 H         1 UNK         0.0600 
    177 H177        5.0309   -7.9651  -40.8534 H         1 UNK         0.0600 
    178 H178        6.3609   -8.9792  -41.3879 H         1 UNK         0.0600 
    179 H179        2.8712   -8.7544  -42.1453 H         1 UNK         0.3000 
    180 H180        0.1064   -9.4795  -40.6035 H         1 UNK         0.0600 
    181 H181        1.0673   -8.6621  -43.4039 H         1 UNK         0.0600 
    182 H182        1.1409   -7.6648  -41.9481 H         1 UNK         0.0600 
    183 H183       -0.4096   -8.1148  -42.6237 H         1 UNK         0.0600 
    184 H184       -1.2033  -10.8663  -41.7433 H         1 UNK         0.3000 
    185 H185       -0.8414  -13.4464  -43.5660 H         1 UNK         0.0600 
    186 H186       -3.2649  -12.8426  -43.5858 H         1 UNK         0.0600 
    187 H187       -2.5012  -12.3842  -42.0790 H         1 UNK         0.0600 
    188 H188       -2.8614  -11.1550  -43.2953 H         1 UNK         0.0600 
    189 H189       -1.7958  -11.4554  -45.5490 H         1 UNK         0.3000 
    190 H190       -3.4723  -23.1790  -44.1911 H         1 UNK         0.3000 
    191 H191       -5.7707  -24.8860  -44.0367 H         1 UNK         0.0600 
    192 H192       -3.2766  -24.6765  -42.2616 H         1 UNK         0.0600 
    193 H193       -4.7800  -23.7803  -42.0475 H         1 UNK         0.0600 
    194 H194       -4.7597  -25.5240  -41.8357 H         1 UNK         0.0600 
    195 H195       -2.4488  -25.4290  -45.1273 H         1 UNK         0.3000 
    196 H196       -2.6444  -28.3667  -45.0333 H         1 UNK         0.0600 
    197 H197       -0.4922  -27.2271  -44.4884 H         1 UNK         0.0600 
    198 H198       -0.4442  -26.5221  -46.1029 H         1 UNK         0.0600 
    199 H199       -0.3409  -28.2637  -45.8988 H         1 UNK         0.0600 
    200 H200       -4.7177  -27.9602  -46.3364 H         1 UNK         0.3000 
    201 H201       -5.9468  -28.2569  -48.1776 H         1 UNK         0.0600 
    202 H202       -5.0769  -29.8788  -49.8445 H         1 UNK         0.0600 
    203 H203       -4.6565  -30.3884  -48.2174 H         1 UNK         0.0600 
    204 H204       -3.4359  -29.6521  -49.2545 H         1 UNK         0.0600 
    205 H205       -5.3432  -25.7226  -48.1357 H         1 UNK         0.3000 
    206 H206       -5.2367  -23.8223  -49.2507 H         1 UNK         0.0600 
    207 H207       -6.8676  -24.9297  -50.8107 H         1 UNK         0.0600 
    208 H208       -5.5287  -25.3877  -51.8592 H         1 UNK         0.0600 
    209 H209       -5.8968  -23.6935  -51.5824 H         1 UNK         0.0600 
    210 H210       -2.8643  -25.1500  -48.5111 H         1 UNK         0.3000 
    211 H211       -0.6690  -24.9575  -48.4902 H         1 UNK         0.0600 
    212 H212       -0.9954  -22.4933  -48.7132 H         1 UNK         0.0600 
    213 H213        0.4703  -23.0186  -49.5224 H         1 UNK         0.0600 
    214 H214       -0.9586  -22.6320  -50.4660 H         1 UNK         0.0600 
    215 H215       -1.4571  -27.0389  -49.6635 H         1 UNK         0.3000 
    216 H216       -1.1728  -28.7004  -51.0852 H         1 UNK         0.0600 
    217 H217        1.0342  -29.0242  -52.1460 H         1 UNK         0.0600 
    218 H218        1.4476  -27.3334  -51.9015 H         1 UNK         0.0600 
    219 H219        1.2401  -28.4038  -50.5159 H         1 UNK         0.0600 
    220 H220       -3.0224  -27.0882  -51.9250 H         1 UNK         0.3000 
    221 H221       -4.3390  -26.4526  -53.5498 H         1 UNK         0.0600 
    222 H222       -2.7090  -28.2715  -55.3906 H         1 UNK         0.0600 
    223 H223       -3.9826  -28.8118  -54.2969 H         1 UNK         0.0600 
    224 H224       -4.3679  -27.7446  -55.6352 H         1 UNK         0.0600 
    225 H225       -1.9839  -24.7434  -53.0923 H         1 UNK         0.3000 
    226 H226       -1.3178  -23.5069  -55.6429 H         1 UNK         0.0600 
    227 H227        0.2384  -23.5178  -53.6767 H         1 UNK         0.0600 
    228 H228       -0.0989  -21.9082  -54.2657 H         1 UNK         0.0600 
    229 H229       -0.8826  -22.4810  -52.7949 H         1 UNK         0.0600 
    230 H230       -3.4748  -22.8450  -52.9100 H         1 UNK         0.3000 
    231 H231       -5.3714  -21.7304  -52.6289 H         1 UNK         0.0600 
    232 H232       -7.0551  -22.2192  -54.3987 H         1 UNK         0.0600 
    233 H233       -6.0276  -23.6111  -54.0921 H         1 UNK         0.0600 
    234 H234       -5.7692  -22.6275  -55.5286 H         1 UNK         0.0600 
    235 H235       -4.3639  -19.6647  -52.3197 H         1 UNK         0.3000 
    236 H236       -4.4981  -17.4525  -52.3234 H         1 UNK         0.0600 
    237 H237       -6.9336  -17.8699  -52.3512 H         1 UNK         0.0600 
    238 H238       -6.5427  -16.3802  -53.1952 H         1 UNK         0.0600 
    239 H239       -6.9516  -17.8214  -54.1130 H         1 UNK         0.0600 
    240 H240       -2.4218  -17.7296  -53.4813 H         1 UNK         0.3000 
    241 H241       -2.1658  -17.3250  -56.2470 H         1 UNK         0.0600 
    242 H242       -2.9220  -14.7992  -53.9829 H         1 UNK         0.3800 
    243 H243       -2.3989  -13.4814  -54.9982 H         1 UNK         0.3800 
    244 H244        0.2165  -17.2243  -55.8772 H         1 UNK         0.0800 
    245 H245        0.0379  -16.7636  -54.2137 H         1 UNK         0.0800 
    246 H246        0.5074  -20.0741  -52.5150 H         1 UNK         0.0800 
    247 H247        1.0639  -18.4381  -52.7160 H         1 UNK         0.0800 
@<TRIPOS>BOND
     1    1    2 1    
     2    1  127 1    
     3    1  128 1    
     4    1  129 1    
     5    2    3 2    
     6    2    4 am   BACKBONE|DICT|INTERRES
     7    4    5 1    
     8    4  130 1    
     9    5    6 1    
    10    5   65 1    
    11    5  131 1    
    12    6    7 1    
    13    6  132 1    
    14    6  133 1    
    15    7    8 1    
    16    8    9 1    
    17    8  134 1    
    18    8  135 1    
    19    9   10 ar   
    20    9   14 ar   
    21   10   11 ar   
    22   10  136 1    
    23   11   12 ar   
    24   11  126 1    
    25   12   13 ar   
    26   12  137 1    
    27   13   14 ar   
    28   13   15 1    
    29   14  138 1    
    30   15   16 1    
    31   15  139 1    
    32   15  140 1    
    33   16   17 1    
    34   17   18 1    
    35   17  141 1    
    36   17  142 1    
    37   18   19 1    
    38   18   67 1    
    39   18  143 1    
    40   19   20 am   BACKBONE|DICT|INTERRES
    41   19  144 1    
    42   20   21 2    
    43   20   22 1    
    44   22   23 1    
    45   22   24 1    
    46   22  145 1    
    47   23  146 1    
    48   23  147 1    
    49   23  148 1    
    50   24   25 am   BACKBONE|DICT|INTERRES
    51   24  149 1    
    52   25   26 2    
    53   25   27 1    
    54   27   28 1    
    55   27   29 1    
    56   27  150 1    
    57   28  151 1    
    58   28  152 1    
    59   28  153 1    
    60   29   30 am   BACKBONE|DICT|INTERRES
    61   29  154 1    
    62   30   31 2    
    63   30   32 1    
    64   32   33 1    
    65   32   34 1    
    66   32  155 1    
    67   33  156 1    
    68   33  157 1    
    69   33  158 1    
    70   34   35 am   BACKBONE|DICT|INTERRES
    71   34  159 1    
    72   35   36 2    
    73   35   37 1    
    74   37   38 1    
    75   37   39 1    
    76   37  160 1    
    77   38  161 1    
    78   38  162 1    
    79   38  163 1    
    80   39   40 am   BACKBONE|DICT|INTERRES
    81   39  164 1    
    82   40   41 2    
    83   40   42 1    
    84   42   43 1    
    85   42   44 1    
    86   42  165 1    
    87   43  166 1    
    88   43  167 1    
    89   43  168 1    
    90   44   45 am   BACKBONE|DICT|INTERRES
    91   44  169 1    
    92   45   46 2    
    93   45   47 1    
    94   47   48 1    
    95   47   49 1    
    96   47  170 1    
    97   48  171 1    
    98   48  172 1    
    99   48  173 1    
   100   49   50 am   BACKBONE|DICT|INTERRES
   101   49  174 1    
   102   50   51 2    
   103   50   52 1    
   104   52   53 1    
   105   52   54 1    
   106   52  175 1    
   107   53  176 1    
   108   53  177 1    
   109   53  178 1    
   110   54   55 am   BACKBONE|DICT|INTERRES
   111   54  179 1    
   112   55   56 2    
   113   55   57 1    
   114   57   58 1    
   115   57   59 1    
   116   57  180 1    
   117   58  181 1    
   118   58  182 1    
   119   58  183 1    
   120   59   60 am   BACKBONE|DICT|INTERRES
   121   59  184 1    
   122   60   61 2    
   123   60   62 1    
   124   62   63 1    
   125   62   64 1    
   126   62  185 1    
   127   63  186 1    
   128   63  187 1    
   129   63  188 1    
   130   64   65 am   BACKBONE|DICT|INTERRES
   131   64  189 1    
   132   65   66 2    
   133   67   68 2    
   134   67   69 am   BACKBONE|DICT|INTERRES
   135   69   70 1    
   136   69  190 1    
   137   70   71 1    
   138   70   72 1    
   139   70  191 1    
   140   71  192 1    
   141   71  193 1    
   142   71  194 1    
   143   72   73 2    
   144   72   74 am   BACKBONE|DICT|INTERRES
   145   74   75 1    
   146   74  195 1    
   147   75   76 1    
   148   75   77 1    
   149   75  196 1    
   150   76  197 1    
   151   76  198 1    
   152   76  199 1    
   153   77   78 2    
   154   77   79 am   BACKBONE|DICT|INTERRES
   155   79   80 1    
   156   79  200 1    
   157   80   81 1    
   158   80   82 1    
   159   80  201 1    
   160   81  202 1    
   161   81  203 1    
   162   81  204 1    
   163   82   83 2    
   164   82   84 am   BACKBONE|DICT|INTERRES
   165   84   85 1    
   166   84  205 1    
   167   85   86 1    
   168   85   87 1    
   169   85  206 1    
   170   86  207 1    
   171   86  208 1    
   172   86  209 1    
   173   87   88 2    
   174   87   89 am   BACKBONE|DICT|INTERRES
   175   89   90 1    
   176   89  210 1    
   177   90   91 1    
   178   90   92 1    
   179   90  211 1    
   180   91  212 1    
   181   91  213 1    
   182   91  214 1    
   183   92   93 2    
   184   92   94 am   BACKBONE|DICT|INTERRES
   185   94   95 1    
   186   94  215 1    
   187   95   96 1    
   188   95   97 1    
   189   95  216 1    
   190   96  217 1    
   191   96  218 1    
   192   96  219 1    
   193   97   98 2    
   194   97   99 am   BACKBONE|DICT|INTERRES
   195   99  100 1    
   196   99  220 1    
   197  100  101 1    
   198  100  102 1    
   199  100  221 1    
   200  101  222 1    
   201  101  223 1    
   202  101  224 1    
   203  102  103 2    
   204  102  104 am   BACKBONE|DICT|INTERRES
   205  104  105 1    
   206  104  225 1    
   207  105  106 1    
   208  105  107 1    
   209  105  226 1    
   210  106  227 1    
   211  106  228 1    
   212  106  229 1    
   213  107  108 2    
   214  107  109 am   BACKBONE|DICT|INTERRES
   215  109  110 1    
   216  109  230 1    
   217  110  111 1    
   218  110  112 1    
   219  110  231 1    
   220  111  232 1    
   221  111  233 1    
   222  111  234 1    
   223  112  113 2    
   224  112  114 am   BACKBONE|DICT|INTERRES
   225  114  115 1    
   226  114  235 1    
   227  115  116 1    
   228  115  117 1    
   229  115  236 1    
   230  116  237 1    
   231  116  238 1    
   232  116  239 1    
   233  117  118 2    
   234  117  119 am   BACKBONE|DICT|INTERRES
   235  119  120 1    
   236  119  240 1    
   237  120  121 1    
   238  120  124 1    
   239  120  241 1    
   240  121  122 am   BACKBONE|DICT|INTERRES
   241  121  123 2    
   242  122  242 1    
   243  122  243 1    
   244  124  125 1    
   245  124  244 1    
   246  124  245 1    
   247  125  126 1    
   248  126  246 1    
   249  126  247 1    
@<TRIPOS>SUBSTRUCTURE
     1 UNK         1 GROUP             0       ****    0 ROOT    
