@<TRIPOS>MOLECULE
3R540
247   249    1
SMALL
USER_CHARGES


@<TRIPOS>ATOM
      1 CA         -4.6268  -16.2798  -44.8653 C.3       0 UNK        -0.1800 
      2 C          -4.0108  -15.3672  -45.9150 C.2       0 UNK         0.5000 
      3 O          -2.9619  -15.6929  -46.4650 O.2       0 UNK        -0.5000 
      4 N          -4.6446  -14.2194  -46.1913 N.am      1 UNK        -0.5000 
      5 CA         -4.2533  -13.1950  -47.1741 C.3       1 UNK         0.1400 
      6 C6         -4.1987  -13.7332  -48.6484 C.3       23 UNK        -0.0398 
      7 S7         -2.8181  -13.2102  -49.7363 S.3       23 UNK        -0.2404 
      8 C8         -1.6345  -14.5802  -49.5320 C.3       23 UNK        -0.0205 
      9 C9         -1.9387  -15.7509  -50.4530 C.ar      23 UNK        -0.0193 
     10 C10        -1.3869  -15.7796  -51.7356 C.ar      23 UNK        -0.1150 
     11 C11        -1.6110  -16.8675  -52.5882 C.ar      23 UNK        -0.0193 
     12 C12        -2.4243  -17.9114  -52.1407 C.ar      23 UNK        -0.1150 
     13 C13        -2.9794  -17.9112  -50.8583 C.ar      23 UNK        -0.0193 
     14 C14        -2.7310  -16.8174  -50.0179 C.ar      23 UNK        -0.1150 
     15 C15        -3.8234  -19.1214  -50.4463 C.3       23 UNK        -0.0205 
     16 S16        -4.2708  -19.2510  -48.6803 S.3       23 UNK        -0.2404 
     17 C17        -2.6489  -19.5684  -47.9120 C.3       23 UNK        -0.0398 
     18 CA         -2.2840  -21.0663  -47.7682 C.3       11 UNK         0.1400 
     19 N          -0.8611  -21.2282  -47.4609 N.am      11 UNK        -0.5000 
     20 C          -0.2080  -22.3952  -47.3755 C.2       10 UNK         0.5000 
     21 O          -0.7254  -23.4899  -47.5923 O.2       10 UNK        -0.5000 
     22 CA          1.2626  -22.3293  -46.9248 C.3       10 UNK         0.1400 
     23 CB          2.1730  -21.8969  -48.0844 C.3       10 UNK        -0.1800 
     24 N           1.4588  -21.4347  -45.7823 N.am      10 UNK        -0.5000 
     25 C           0.9155  -21.6209  -44.5697 C.2       9 UNK         0.5000 
     26 O           0.2313  -22.5985  -44.2678 O.2       9 UNK        -0.5000 
     27 CA          1.1166  -20.4953  -43.5383 C.3       9 UNK         0.1400 
     28 CB          2.5226  -20.5475  -42.9231 C.3       9 UNK        -0.1800 
     29 N           0.8757  -19.1718  -44.1115 N.am      9 UNK        -0.5000 
     30 C          -0.2974  -18.7683  -44.6175 C.2       8 UNK         0.5000 
     31 O          -1.3223  -19.4466  -44.5971 O.2       8 UNK        -0.5000 
     32 CA         -0.3230  -17.3991  -45.3075 C.3       8 UNK         0.1400 
     33 CB         -0.5502  -16.2789  -44.2846 C.3       8 UNK        -0.1800 
     34 N           0.8896  -17.1438  -46.0834 N.am      8 UNK        -0.5000 
     35 C           1.2050  -17.7931  -47.2131 C.2       7 UNK         0.5000 
     36 O           0.4987  -18.6609  -47.7230 O.2       7 UNK        -0.5000 
     37 CA          2.5628  -17.4522  -47.8513 C.3       7 UNK         0.1400 
     38 CB          2.4646  -16.1560  -48.6709 C.3       7 UNK        -0.1800 
     39 N           3.6309  -17.3287  -46.8588 N.am      7 UNK        -0.5000 
     40 C           4.0747  -18.3380  -46.0946 C.2       6 UNK         0.5000 
     41 O           3.6755  -19.4983  -46.1953 O.2       6 UNK        -0.5000 
     42 CA          5.0926  -17.9770  -44.9934 C.3       6 UNK         0.1400 
     43 CB          6.5257  -18.0480  -45.5407 C.3       6 UNK        -0.1800 
     44 N           4.8670  -16.6579  -44.3892 N.am      6 UNK        -0.5000 
     45 C           3.7352  -16.2828  -43.7771 C.2       5 UNK         0.5000 
     46 O           2.7529  -17.0201  -43.6698 O.2       5 UNK        -0.5000 
     47 CA          3.6797  -14.8292  -43.2628 C.3       5 UNK         0.1400 
     48 CB          3.6774  -13.8479  -44.4459 C.3       5 UNK        -0.1800 
     49 N           2.4941  -14.5717  -42.4400 N.am      5 UNK        -0.5000 
     50 C           2.2902  -15.0881  -41.2182 C.2       4 UNK         0.5000 
     51 O           3.1385  -15.7517  -40.6188 O.2       4 UNK        -0.5000 
     52 CA          0.9269  -14.8245  -40.5470 C.3       4 UNK         0.1400 
     53 CB          1.0661  -14.5463  -39.0390 C.3       4 UNK        -0.1800 
     54 N           0.2145  -13.7080  -41.1681 N.am      4 UNK        -0.5000 
     55 C          -1.0578  -13.7277  -41.5822 C.2       3 UNK         0.5000 
     56 O          -1.7936  -14.7118  -41.5026 O.2       3 UNK        -0.5000 
     57 CA         -1.6149  -12.4235  -42.1884 C.3       3 UNK         0.1400 
     58 CB         -0.9758  -11.1469  -41.5974 C.3       3 UNK        -0.1800 
     59 N          -1.5406  -12.4105  -43.6522 N.am      3 UNK        -0.5000 
     60 C          -0.4437  -12.5176  -44.4160 C.2       2 UNK         0.5000 
     61 O           0.6907  -12.6728  -43.9608 O.2       2 UNK        -0.5000 
     62 CA         -0.6573  -12.4529  -45.9415 C.3       2 UNK         0.1400 
     63 CB          0.4688  -13.1494  -46.7265 C.3       2 UNK        -0.1800 
     64 N          -1.9391  -13.0399  -46.3369 N.am      2 UNK        -0.5000 
     65 C          -3.0338  -12.3634  -46.7027 C.2       1 UNK         0.5000 
     66 O          -3.1197  -11.1355  -46.6555 O.2       1 UNK        -0.5000 
     67 C          -3.1773  -21.8019  -46.7451 C.2       11 UNK         0.5000 
     68 O          -4.0457  -22.5772  -47.1448 O.2       11 UNK        -0.5000 
     69 N          -2.9166  -21.5935  -45.4467 N.am      12 UNK        -0.5000 
     70 CA         -3.6141  -22.2442  -44.3375 C.3       12 UNK         0.1400 
     71 CB         -3.1632  -21.6235  -43.0070 C.3       12 UNK        -0.1800 
     72 C          -3.4248  -23.7709  -44.3205 C.2       12 UNK         0.5000 
     73 O          -4.4064  -24.4967  -44.1584 O.2       12 UNK        -0.5000 
     74 N          -2.1848  -24.2354  -44.5352 N.am      13 UNK        -0.5000 
     75 CA         -1.8329  -25.6561  -44.6308 C.3       13 UNK         0.1400 
     76 CB         -0.3065  -25.8021  -44.7177 C.3       13 UNK        -0.1800 
     77 C          -2.5131  -26.3727  -45.8136 C.2       13 UNK         0.5000 
     78 O          -2.8636  -27.5471  -45.6950 O.2       13 UNK        -0.5000 
     79 N          -2.7223  -25.6404  -46.9140 N.am      14 UNK        -0.5000 
     80 CA         -3.4363  -26.0869  -48.1090 C.3       14 UNK         0.1400 
     81 CB         -2.8663  -25.3347  -49.3188 C.3       14 UNK        -0.1800 
     82 C          -4.9670  -25.9121  -48.0136 C.2       14 UNK         0.5000 
     83 O          -5.6518  -26.1303  -49.0129 O.2       14 UNK        -0.5000 
     84 N          -5.4834  -25.5177  -46.8392 N.am      15 UNK        -0.5000 
     85 CA         -6.8992  -25.2992  -46.5229 C.3       15 UNK         0.1400 
     86 CB         -7.6877  -26.6247  -46.5793 C.3       15 UNK        -0.1800 
     87 C          -7.5371  -24.1722  -47.3627 C.2       15 UNK         0.5000 
     88 O          -8.6709  -24.3054  -47.8264 O.2       15 UNK        -0.5000 
     89 N          -6.7812  -23.0790  -47.5315 N.am      16 UNK        -0.5000 
     90 CA         -7.1186  -21.8461  -48.2476 C.3       16 UNK         0.1400 
     91 CB         -8.3796  -21.1740  -47.6644 C.3       16 UNK        -0.1800 
     92 C          -7.1679  -21.9978  -49.7818 C.2       16 UNK         0.5000 
     93 O          -7.7394  -21.1389  -50.4562 O.2       16 UNK        -0.5000 
     94 N          -6.5601  -23.0644  -50.3210 N.am      17 UNK        -0.5000 
     95 CA         -6.4165  -23.2834  -51.7586 C.3       17 UNK         0.1400 
     96 CB         -6.0047  -24.7387  -52.0220 C.3       17 UNK        -0.1800 
     97 C          -5.3877  -22.3113  -52.3617 C.2       17 UNK         0.5000 
     98 O          -4.2537  -22.2446  -51.8834 O.2       17 UNK        -0.5000 
     99 N          -5.7905  -21.6058  -53.4258 N.am      18 UNK        -0.5000 
    100 CA        -4.9899  -20.5974  -54.1298 C.3       18 UNK         0.1400 
    101 CB        -5.9179  -19.7907  -55.0518 C.3       18 UNK        -0.1800 
    102 C         -3.7917  -21.1638  -54.9215 C.2       18 UNK         0.5000 
    103 O         -2.9683  -20.3870  -55.4052 O.2       18 UNK        -0.5000 
    104 N         -3.7175  -22.4956  -55.0513 N.am      19 UNK        -0.5000 
    105 CA        -2.6089  -23.2228  -55.6693 C.3       19 UNK         0.1400 
    106 CB        -3.0480  -24.6747  -55.9160 C.3       19 UNK        -0.1800 
    107 C         -1.3130  -23.1866  -54.8333 C.2       19 UNK         0.5000 
    108 O         -0.2306  -23.3461  -55.3995 O.2       19 UNK        -0.5000 
    109 N         -1.4375  -22.9892  -53.5137 N.am      20 UNK        -0.5000 
    110 CA        -0.3122  -22.7874  -52.6037 C.3       20 UNK         0.1400 
    111 CB        -0.7480  -23.1775  -51.1862 C.3       20 UNK        -0.1800 
    112 C          0.1583  -21.3248  -52.6386 C.2       20 UNK         0.5000 
    113 O         -0.6607  -20.4330  -52.8576 O.2       20 UNK        -0.5000 
    114 N          1.4585  -21.1146  -52.3868 N.am      21 UNK        -0.5000 
    115 CA         2.1621  -19.8246  -52.3971 C.3       21 UNK         0.1400 
    116 CB         1.6054  -18.8912  -51.2973 C.3       21 UNK        -0.1800 
    117 C          2.1923  -19.1550  -53.7923 C.2       21 UNK         0.5000 
    118 O          1.8501  -19.7861  -54.7951 O.2       21 UNK        -0.5000 
    119 N          2.6455  -17.8944  -53.8342 N.am      22 UNK        -0.5000 
    120 CA         2.7238  -17.0325  -55.0320 C.3       22 UNK         0.1400 
    121 C          3.7153  -17.5166  -56.1371 C.2       22 UNK         0.5000 
    122 N          4.6713  -18.3853  -55.8315 N.am      22 UNK        -0.7600 
    123 O          3.6462  -17.0754  -57.2815 O.2       22 UNK        -0.5000 
    124 C124        1.3241  -16.6543  -55.5996 C.3       23 UNK        -0.0398 
    125 S125        0.3082  -15.7586  -54.3746 S.3       23 UNK        -0.2404 
    126 C126       -0.9854  -16.9885  -53.9806 C.3       23 UNK        -0.0205 
    127 H127       -4.7650  -17.2802  -45.2759 H         1 UNK         0.0600 
    128 H128       -5.5958  -15.9128  -44.5267 H         1 UNK         0.0600 
    129 H129       -3.9672  -16.3539  -44.0008 H         1 UNK         0.0600 
    130 H130       -5.4889  -14.0048  -45.6787 H         1 UNK         0.3000 
    131 H131       -5.0834  -12.4865  -47.1496 H         1 UNK         0.0600 
    132 H132       -4.2396  -14.8205  -48.6654 H         1 UNK         0.0800 
    133 H133       -5.1168  -13.4339  -49.1553 H         1 UNK         0.0800 
    134 H134       -1.6068  -14.9104  -48.4945 H         1 UNK         0.0800 
    135 H135       -0.6335  -14.2045  -49.7478 H         1 UNK         0.0800 
    136 H136       -0.7707  -14.9507  -52.0498 H         1 UNK         0.1150 
    137 H137       -2.6008  -18.7542  -52.7938 H         1 UNK         0.1150 
    138 H138       -3.1367  -16.7923  -49.0177 H         1 UNK         0.1150 
    139 H139       -4.7476  -19.1084  -51.0250 H         1 UNK         0.0800 
    140 H140       -3.2955  -20.0332  -50.7304 H         1 UNK         0.0800 
    141 H141       -2.6296  -19.0688  -46.9430 H         1 UNK         0.0800 
    142 H142       -1.8940  -19.0668  -48.5165 H         1 UNK         0.0800 
    143 H143       -2.4458  -21.5434  -48.7370 H         1 UNK         0.0600 
    144 H144       -0.3371  -20.3700  -47.3145 H         1 UNK         0.3000 
    145 H145        1.5600  -23.3335  -46.6162 H         1 UNK         0.0600 
    146 H146        3.2227  -21.9277  -47.7922 H         1 UNK         0.0600 
    147 H147        2.0544  -22.5578  -48.9437 H         1 UNK         0.0600 
    148 H148        1.9506  -20.8826  -48.4156 H         1 UNK         0.0600 
    149 H149        2.0432  -20.6189  -45.9379 H         1 UNK         0.3000 
    150 H150        0.3904  -20.6443  -42.7366 H         1 UNK         0.0600 
    151 H151        2.6930  -21.5026  -42.4250 H         1 UNK         0.0600 
    152 H152        2.6575  -19.7619  -42.1791 H         1 UNK         0.0600 
    153 H153        3.2993  -20.4298  -43.6780 H         1 UNK         0.0600 
    154 H154        1.6534  -18.5173  -44.1150 H         1 UNK         0.3000 
    155 H155       -1.1646  -17.4047  -46.0001 H         1 UNK         0.0600 
    156 H156        0.2828  -16.1751  -43.5909 H         1 UNK         0.0600 
    157 H157       -1.4453  -16.4709  -43.6922 H         1 UNK         0.0600 
    158 H158       -0.6984  -15.3247  -44.7825 H         1 UNK         0.0600 
    159 H159        1.5653  -16.5169  -45.6733 H         1 UNK         0.3000 
    160 H160        2.8253  -18.2675  -48.5283 H         1 UNK         0.0600 
    161 H161        2.2724  -15.2897  -48.0374 H         1 UNK         0.0600 
    162 H162        1.6544  -16.2142  -49.3997 H         1 UNK         0.0600 
    163 H163        3.3853  -15.9695  -49.2237 H         1 UNK         0.0600 
    164 H164        4.0181  -16.4086  -46.7123 H         1 UNK         0.3000 
    165 H165        4.9944  -18.7212  -44.2009 H         1 UNK         0.0600 
    166 H166        7.2588  -17.8899  -44.7494 H         1 UNK         0.0600 
    167 H167        6.7284  -19.0267  -45.9780 H         1 UNK         0.0600 
    168 H168        6.6994  -17.2999  -46.3151 H         1 UNK         0.0600 
    169 H169        5.6318  -16.0012  -44.4490 H         1 UNK         0.3000 
    170 H170        4.5677  -14.6466  -42.6544 H         1 UNK         0.0600 
    171 H171        4.5989  -13.9173  -45.0246 H         1 UNK         0.0600 
    172 H172        2.8480  -14.0468  -45.1244 H         1 UNK         0.0600 
    173 H173        3.5896  -12.8162  -44.1046 H         1 UNK         0.0600 
    174 H174        1.7521  -14.0384  -42.8818 H         1 UNK         0.3000 
    175 H175        0.3556  -15.7467  -40.6706 H         1 UNK         0.0600 
    176 H176        1.6702  -13.6583  -38.8502 H         1 UNK         0.0600 
    177 H177        0.0912  -14.3930  -38.5761 H         1 UNK         0.0600 
    178 H178        1.5382  -15.3834  -38.5234 H         1 UNK         0.0600 
    179 H179        0.7519  -12.8652  -41.3187 H         1 UNK         0.3000 
    180 H180       -2.6759  -12.3994  -41.9348 H         1 UNK         0.0600 
    181 H181       -1.5016  -10.2564  -41.9421 H         1 UNK         0.0600 
    182 H182        0.0724  -11.0348  -41.8755 H         1 UNK         0.0600 
    183 H183       -1.0306  -11.1503  -40.5080 H         1 UNK         0.0600 
    184 H184       -2.4250  -12.3216  -44.1310 H         1 UNK         0.3000 
    185 H185       -0.6334  -11.3951  -46.2097 H         1 UNK         0.0600 
    186 H186        0.3120  -13.0552  -47.8004 H         1 UNK         0.0600 
    187 H187        1.4369  -12.6975  -46.5089 H         1 UNK         0.0600 
    188 H188        0.5340  -14.2108  -46.4890 H         1 UNK         0.0600 
    189 H189       -1.9962  -14.0550  -46.3604 H         1 UNK         0.3000 
    190 H190       -2.2020  -20.9146  -45.1893 H         1 UNK         0.3000 
    191 H191       -4.6810  -22.0456  -44.4586 H         1 UNK         0.0600 
    192 H192       -3.6755  -22.0885  -42.1638 H         1 UNK         0.0600 
    193 H193       -3.3865  -20.5569  -42.9754 H         1 UNK         0.0600 
    194 H194       -2.0909  -21.7443  -42.8494 H         1 UNK         0.0600 
    195 H195       -1.4191  -23.5729  -44.6268 H         1 UNK         0.3000 
    196 H196       -2.1698  -26.1435  -43.7137 H         1 UNK         0.0600 
    197 H197        0.0955  -25.2972  -45.5967 H         1 UNK         0.0600 
    198 H198        0.1802  -25.3809  -43.8380 H         1 UNK         0.0600 
    199 H199       -0.0157  -26.8516  -44.7787 H         1 UNK         0.0600 
    200 H200       -2.3551  -24.6950  -46.9423 H         1 UNK         0.3000 
    201 H201       -3.2448  -27.1514  -48.2579 H         1 UNK         0.0600 
    202 H202       -3.0888  -24.2675  -49.2740 H         1 UNK         0.0600 
    203 H203       -3.2712  -25.7224  -50.2532 H         1 UNK         0.0600 
    204 H204       -1.7840  -25.4521  -49.3648 H         1 UNK         0.0600 
    205 H205       -4.8408  -25.3235  -46.0801 H         1 UNK         0.3000 
    206 H206       -6.9246  -24.9513  -45.4892 H         1 UNK         0.0600 
    207 H207       -7.2174  -27.3891  -45.9607 H         1 UNK         0.0600 
    208 H208       -8.7045  -26.4895  -46.2090 H         1 UNK         0.0600 
    209 H209       -7.7602  -27.0126  -47.5956 H         1 UNK         0.0600 
    210 H210       -5.8263  -23.0974  -47.1776 H         1 UNK         0.3000 
    211 H211       -6.2868  -21.1726  -48.0500 H         1 UNK         0.0600 
    212 H212       -8.5063  -20.1685  -48.0672 H         1 UNK         0.0600 
    213 H213       -8.3119  -21.0802  -46.5806 H         1 UNK         0.0600 
    214 H214       -9.2853  -21.7332  -47.8995 H         1 UNK         0.0600 
    215 H215       -6.1073  -23.7297  -49.7101 H         1 UNK         0.3000 
    216 H216       -7.3884  -23.1184  -52.2288 H         1 UNK         0.0600 
    217 H217       -5.0325  -24.9659  -51.5858 H         1 UNK         0.0600 
    218 H218       -5.9390  -24.9397  -53.0919 H         1 UNK         0.0600 
    219 H219       -6.7302  -25.4364  -51.6032 H         1 UNK         0.0600 
    220 H220       -6.7356  -21.7297  -53.7600 H         1 UNK         0.3000 
    221 H221       -4.5817  -19.9159  -53.3822 H         1 UNK         0.0600 
    222 H222       -6.7219  -19.3180  -54.4872 H         1 UNK         0.0600 
    223 H223       -6.3693  -20.4213  -55.8187 H         1 UNK         0.0600 
    224 H224       -5.3716  -18.9952  -55.5604 H         1 UNK         0.0600 
    225 H225       -4.4487  -23.0518  -54.6353 H         1 UNK         0.3000 
    226 H226       -2.3922  -22.7604  -56.6345 H         1 UNK         0.0600 
    227 H227       -3.2947  -25.1844  -54.9837 H         1 UNK         0.0600 
    228 H228       -3.9225  -24.7181  -56.5654 H         1 UNK         0.0600 
    229 H229       -2.2554  -25.2451  -56.4021 H         1 UNK         0.0600 
    230 H230       -2.3559  -22.7983  -53.1338 H         1 UNK         0.3000 
    231 H231        0.5153  -23.4350  -52.9016 H         1 UNK         0.0600 
    232 H232       -1.5989  -22.5859  -50.8460 H         1 UNK         0.0600 
    233 H233        0.0609  -23.0356  -50.4692 H         1 UNK         0.0600 
    234 H234       -1.0310  -24.2278  -51.1541 H         1 UNK         0.0600 
    235 H235        2.0495  -21.9206  -52.2430 H         1 UNK         0.3000 
    236 H236        3.1987  -20.0515  -52.1445 H         1 UNK         0.0600 
    237 H237        0.6268  -18.4893  -51.5610 H         1 UNK         0.0600 
    238 H238        1.4980  -19.4178  -50.3495 H         1 UNK         0.0600 
    239 H239        2.2682  -18.0446  -51.1200 H         1 UNK         0.0600 
    240 H240        2.9263  -17.4542  -52.9705 H         1 UNK         0.3000 
    241 H241        3.1749  -16.1048  -54.6783 H         1 UNK         0.0600 
    242 H242        5.3156  -18.6860  -56.5462 H         1 UNK         0.3800 
    243 H243        4.7519  -18.7524  -54.8971 H         1 UNK         0.3800 
    244 H244        0.7978  -17.5385  -55.9614 H         1 UNK         0.0800 
    245 H245        1.4261  -15.9940  -56.4621 H         1 UNK         0.0800 
    246 H246       -1.7731  -16.9229  -54.7320 H         1 UNK         0.0800 
    247 H247       -0.5573  -17.9878  -54.0700 H         1 UNK         0.0800 
@<TRIPOS>BOND
     1    1    2 1    
     2    1  127 1    
     3    1  128 1    
     4    1  129 1    
     5    2    3 2    
     6    2    4 am   BACKBONE|DICT|INTERRES
     7    4    5 1    
     8    4  130 1    
     9    5    6 1    
    10    5   65 1    
    11    5  131 1    
    12    6    7 1    
    13    6  132 1    
    14    6  133 1    
    15    7    8 1    
    16    8    9 1    
    17    8  134 1    
    18    8  135 1    
    19    9   10 ar   
    20    9   14 ar   
    21   10   11 ar   
    22   10  136 1    
    23   11   12 ar   
    24   11  126 1    
    25   12   13 ar   
    26   12  137 1    
    27   13   14 ar   
    28   13   15 1    
    29   14  138 1    
    30   15   16 1    
    31   15  139 1    
    32   15  140 1    
    33   16   17 1    
    34   17   18 1    
    35   17  141 1    
    36   17  142 1    
    37   18   19 1    
    38   18   67 1    
    39   18  143 1    
    40   19   20 am   BACKBONE|DICT|INTERRES
    41   19  144 1    
    42   20   21 2    
    43   20   22 1    
    44   22   23 1    
    45   22   24 1    
    46   22  145 1    
    47   23  146 1    
    48   23  147 1    
    49   23  148 1    
    50   24   25 am   BACKBONE|DICT|INTERRES
    51   24  149 1    
    52   25   26 2    
    53   25   27 1    
    54   27   28 1    
    55   27   29 1    
    56   27  150 1    
    57   28  151 1    
    58   28  152 1    
    59   28  153 1    
    60   29   30 am   BACKBONE|DICT|INTERRES
    61   29  154 1    
    62   30   31 2    
    63   30   32 1    
    64   32   33 1    
    65   32   34 1    
    66   32  155 1    
    67   33  156 1    
    68   33  157 1    
    69   33  158 1    
    70   34   35 am   BACKBONE|DICT|INTERRES
    71   34  159 1    
    72   35   36 2    
    73   35   37 1    
    74   37   38 1    
    75   37   39 1    
    76   37  160 1    
    77   38  161 1    
    78   38  162 1    
    79   38  163 1    
    80   39   40 am   BACKBONE|DICT|INTERRES
    81   39  164 1    
    82   40   41 2    
    83   40   42 1    
    84   42   43 1    
    85   42   44 1    
    86   42  165 1    
    87   43  166 1    
    88   43  167 1    
    89   43  168 1    
    90   44   45 am   BACKBONE|DICT|INTERRES
    91   44  169 1    
    92   45   46 2    
    93   45   47 1    
    94   47   48 1    
    95   47   49 1    
    96   47  170 1    
    97   48  171 1    
    98   48  172 1    
    99   48  173 1    
   100   49   50 am   BACKBONE|DICT|INTERRES
   101   49  174 1    
   102   50   51 2    
   103   50   52 1    
   104   52   53 1    
   105   52   54 1    
   106   52  175 1    
   107   53  176 1    
   108   53  177 1    
   109   53  178 1    
   110   54   55 am   BACKBONE|DICT|INTERRES
   111   54  179 1    
   112   55   56 2    
   113   55   57 1    
   114   57   58 1    
   115   57   59 1    
   116   57  180 1    
   117   58  181 1    
   118   58  182 1    
   119   58  183 1    
   120   59   60 am   BACKBONE|DICT|INTERRES
   121   59  184 1    
   122   60   61 2    
   123   60   62 1    
   124   62   63 1    
   125   62   64 1    
   126   62  185 1    
   127   63  186 1    
   128   63  187 1    
   129   63  188 1    
   130   64   65 am   BACKBONE|DICT|INTERRES
   131   64  189 1    
   132   65   66 2    
   133   67   68 2    
   134   67   69 am   BACKBONE|DICT|INTERRES
   135   69   70 1    
   136   69  190 1    
   137   70   71 1    
   138   70   72 1    
   139   70  191 1    
   140   71  192 1    
   141   71  193 1    
   142   71  194 1    
   143   72   73 2    
   144   72   74 am   BACKBONE|DICT|INTERRES
   145   74   75 1    
   146   74  195 1    
   147   75   76 1    
   148   75   77 1    
   149   75  196 1    
   150   76  197 1    
   151   76  198 1    
   152   76  199 1    
   153   77   78 2    
   154   77   79 am   BACKBONE|DICT|INTERRES
   155   79   80 1    
   156   79  200 1    
   157   80   81 1    
   158   80   82 1    
   159   80  201 1    
   160   81  202 1    
   161   81  203 1    
   162   81  204 1    
   163   82   83 2    
   164   82   84 am   BACKBONE|DICT|INTERRES
   165   84   85 1    
   166   84  205 1    
   167   85   86 1    
   168   85   87 1    
   169   85  206 1    
   170   86  207 1    
   171   86  208 1    
   172   86  209 1    
   173   87   88 2    
   174   87   89 am   BACKBONE|DICT|INTERRES
   175   89   90 1    
   176   89  210 1    
   177   90   91 1    
   178   90   92 1    
   179   90  211 1    
   180   91  212 1    
   181   91  213 1    
   182   91  214 1    
   183   92   93 2    
   184   92   94 am   BACKBONE|DICT|INTERRES
   185   94   95 1    
   186   94  215 1    
   187   95   96 1    
   188   95   97 1    
   189   95  216 1    
   190   96  217 1    
   191   96  218 1    
   192   96  219 1    
   193   97   98 2    
   194   97   99 am   BACKBONE|DICT|INTERRES
   195   99  100 1    
   196   99  220 1    
   197  100  101 1    
   198  100  102 1    
   199  100  221 1    
   200  101  222 1    
   201  101  223 1    
   202  101  224 1    
   203  102  103 2    
   204  102  104 am   BACKBONE|DICT|INTERRES
   205  104  105 1    
   206  104  225 1    
   207  105  106 1    
   208  105  107 1    
   209  105  226 1    
   210  106  227 1    
   211  106  228 1    
   212  106  229 1    
   213  107  108 2    
   214  107  109 am   BACKBONE|DICT|INTERRES
   215  109  110 1    
   216  109  230 1    
   217  110  111 1    
   218  110  112 1    
   219  110  231 1    
   220  111  232 1    
   221  111  233 1    
   222  111  234 1    
   223  112  113 2    
   224  112  114 am   BACKBONE|DICT|INTERRES
   225  114  115 1    
   226  114  235 1    
   227  115  116 1    
   228  115  117 1    
   229  115  236 1    
   230  116  237 1    
   231  116  238 1    
   232  116  239 1    
   233  117  118 2    
   234  117  119 am   BACKBONE|DICT|INTERRES
   235  119  120 1    
   236  119  240 1    
   237  120  121 1    
   238  120  124 1    
   239  120  241 1    
   240  121  122 am   BACKBONE|DICT|INTERRES
   241  121  123 2    
   242  122  242 1    
   243  122  243 1    
   244  124  125 1    
   245  124  244 1    
   246  124  245 1    
   247  125  126 1    
   248  126  246 1    
   249  126  247 1    
@<TRIPOS>SUBSTRUCTURE
     1 UNK         1 GROUP             0       ****    0 ROOT    
