@<TRIPOS>MOLECULE
3R540
247   249    1
SMALL
USER_CHARGES


@<TRIPOS>ATOM
      1 CA          6.9261  -14.9649  -48.5388 C.3       0 UNK        -0.1800 
      2 C           5.7418  -14.3846  -47.7801 C.2       0 UNK         0.5000 
      3 O           5.6074  -14.6155  -46.5783 O.2       0 UNK        -0.5000 
      4 N           4.8905  -13.6126  -48.4662 N.am      1 UNK        -0.5000 
      5 CA          3.6555  -13.0089  -47.9450 C.3       1 UNK         0.1400 
      6 C6          2.6249  -12.7295  -49.0734 C.3       23 UNK        -0.0398 
      7 S7          2.2278  -14.2022  -50.0758 S.3       23 UNK        -0.2404 
      8 C8          0.7919  -14.8695  -49.1779 C.3       23 UNK        -0.0205 
      9 C9          0.2861  -16.1605  -49.8034 C.ar      23 UNK        -0.0193 
     10 C10        -0.9933  -16.2161  -50.3632 C.ar      23 UNK        -0.1150 
     11 C11        -1.4700  -17.4003  -50.9320 C.ar      23 UNK        -0.0193 
     12 C12        -0.6526  -18.5336  -50.9418 C.ar      23 UNK        -0.1150 
     13 C13         0.6366  -18.4871  -50.4069 C.ar      23 UNK        -0.0193 
     14 C14         1.0942  -17.3025  -49.8224 C.ar      23 UNK        -0.1150 
     15 C15         1.5505  -19.7000  -50.5088 C.3       23 UNK        -0.0205 
     16 S16         1.6234  -20.6518  -48.9633 S.3       23 UNK        -0.2404 
     17 C17        -0.0401  -21.3952  -48.9071 C.3       23 UNK        -0.0398 
     18 CA         -0.1251  -22.5002  -47.8295 C.3       11 UNK         0.1400 
     19 N           0.0247  -21.9755  -46.4682 N.am      11 UNK        -0.5000 
     20 C           0.1925  -22.7321  -45.3750 C.2       10 UNK         0.5000 
     21 O           0.2883  -23.9581  -45.4047 O.2       10 UNK        -0.5000 
     22 CA          0.1867  -22.0095  -44.0158 C.3       10 UNK         0.1400 
     23 CB          1.5549  -21.3821  -43.7113 C.3       10 UNK        -0.1800 
     24 N          -0.8637  -20.9934  -43.9361 N.am      10 UNK        -0.5000 
     25 C          -2.1756  -21.2659  -43.9725 C.2       9 UNK         0.5000 
     26 O          -2.6280  -22.4103  -43.9997 O.2       9 UNK        -0.5000 
     27 CA         -3.1440  -20.0698  -44.0361 C.3       9 UNK         0.1400 
     28 CB         -3.4307  -19.5212  -42.6310 C.3       9 UNK        -0.1800 
     29 N          -2.6609  -18.9923  -44.9016 N.am      9 UNK        -0.5000 
     30 C          -2.5004  -19.1037  -46.2287 C.2       8 UNK         0.5000 
     31 O          -2.7961  -20.1119  -46.8692 O.2       8 UNK        -0.5000 
     32 CA         -1.8610  -17.9102  -46.9604 C.3       8 UNK         0.1400 
     33 CB         -2.9151  -16.8345  -47.2569 C.3       8 UNK        -0.1800 
     34 N          -0.7397  -17.3242  -46.2227 N.am      8 UNK        -0.5000 
     35 C           0.3837  -17.9867  -45.9105 C.2       7 UNK         0.5000 
     36 O           0.5935  -19.1532  -46.2346 O.2       7 UNK        -0.5000 
     37 CA          1.4113  -17.2630  -45.0214 C.3       7 UNK         0.1400 
     38 CB          2.2428  -16.2441  -45.8128 C.3       7 UNK        -0.1800 
     39 N           0.7882  -16.5993  -43.8801 N.am      7 UNK        -0.5000 
     40 C           0.1253  -17.2243  -42.8991 C.2       6 UNK         0.5000 
     41 O           0.0155  -18.4468  -42.8147 O.2       6 UNK        -0.5000 
     42 CA         -0.5722  -16.3246  -41.8666 C.3       6 UNK         0.1400 
     43 CB          0.4226  -15.8314  -40.8050 C.3       6 UNK        -0.1800 
     44 N          -1.2250  -15.1790  -42.5006 N.am      6 UNK        -0.5000 
     45 C          -2.3195  -15.2645  -43.2692 C.2       5 UNK         0.5000 
     46 O          -2.9080  -16.3193  -43.5072 O.2       5 UNK        -0.5000 
     47 CA         -2.8206  -13.9536  -43.9024 C.3       5 UNK         0.1400 
     48 CB         -3.6546  -13.1475  -42.8955 C.3       5 UNK        -0.1800 
     49 N          -1.7334  -13.1172  -44.4150 N.am      5 UNK        -0.5000 
     50 C          -0.9640  -13.4495  -45.4599 C.2       4 UNK         0.5000 
     51 O          -1.0815  -14.4960  -46.0934 O.2       4 UNK        -0.5000 
     52 CA          0.1558  -12.4701  -45.8458 C.3       4 UNK         0.1400 
     53 CB         -0.4010  -11.3264  -46.7061 C.3       4 UNK        -0.1800 
     54 N           0.9180  -11.9134  -44.7245 N.am      4 UNK        -0.5000 
     55 C           1.5025  -12.6156  -43.7439 C.2       3 UNK         0.5000 
     56 O           1.3512  -13.8257  -43.5763 O.2       3 UNK        -0.5000 
     57 CA          2.5171  -11.8458  -42.8907 C.3       3 UNK         0.1400 
     58 CB          2.8739  -12.5740  -41.5824 C.3       3 UNK        -0.1800 
     59 N           3.7078  -11.7345  -43.7222 N.am      3 UNK        -0.5000 
     60 C           4.2683  -10.5975  -44.1467 C.2       2 UNK         0.5000 
     61 O           3.9615   -9.4781  -43.7356 O.2       2 UNK        -0.5000 
     62 CA          5.3139  -10.7476  -45.2682 C.3       2 UNK         0.1400 
     63 CB          6.7033  -11.0442  -44.6843 C.3       2 UNK        -0.1800 
     64 N           4.9532  -11.8040  -46.2199 N.am      2 UNK        -0.5000 
     65 C           3.9251  -11.7514  -47.0789 C.2       1 UNK         0.5000 
     66 O           3.2042  -10.7595  -47.1952 O.2       1 UNK        -0.5000 
     67 C          -1.4098  -23.3386  -47.9905 C.2       11 UNK         0.5000 
     68 O          -1.3734  -24.3553  -48.6835 O.2       11 UNK        -0.5000 
     69 N          -2.5035  -22.9352  -47.3272 N.am      12 UNK        -0.5000 
     70 CA         -3.7531  -23.6937  -47.2499 C.3       12 UNK         0.1400 
     71 CB         -4.8502  -22.8443  -46.5894 C.3       12 UNK        -0.1800 
     72 C          -3.5763  -25.0321  -46.5119 C.2       12 UNK         0.5000 
     73 O          -4.0184  -26.0646  -47.0150 O.2       12 UNK        -0.5000 
     74 N          -2.8985  -24.9964  -45.3556 N.am      13 UNK        -0.5000 
     75 CA         -2.5752  -26.1690  -44.5388 C.3       13 UNK         0.1400 
     76 CB         -1.9841  -25.7096  -43.1975 C.3       13 UNK        -0.1800 
     77 C          -1.6266  -27.1557  -45.2472 C.2       13 UNK         0.5000 
     78 O          -1.8105  -28.3677  -45.1307 O.2       13 UNK        -0.5000 
     79 N          -0.6524  -26.6194  -45.9940 N.am      14 UNK        -0.5000 
     80 CA          0.2875  -27.3759  -46.8241 C.3       14 UNK         0.1400 
     81 CB          1.4840  -26.4710  -47.1591 C.3       14 UNK        -0.1800 
     82 C          -0.3356  -27.9288  -48.1230 C.2       14 UNK         0.5000 
     83 O           0.2936  -28.7608  -48.7776 O.2       14 UNK        -0.5000 
     84 N          -1.5319  -27.4411  -48.4861 N.am      15 UNK        -0.5000 
     85 CA         -2.2698  -27.7054  -49.7266 C.3       15 UNK         0.1400 
     86 CB         -2.6761  -29.1900  -49.8324 C.3       15 UNK        -0.1800 
     87 C          -1.5457  -27.1807  -50.9868 C.2       15 UNK         0.5000 
     88 O          -1.7373  -27.7140  -52.0811 O.2       15 UNK        -0.5000 
     89 N          -0.7437  -26.1224  -50.8118 N.am      16 UNK        -0.5000 
     90 CA         -0.1061  -25.3553  -51.8827 C.3       16 UNK         0.1400 
     91 CB          1.1463  -24.6678  -51.3161 C.3       16 UNK        -0.1800 
     92 C          -1.0705  -24.3129  -52.4826 C.2       16 UNK         0.5000 
     93 O          -0.8703  -23.8713  -53.6142 O.2       16 UNK        -0.5000 
     94 N          -2.1008  -23.9528  -51.7123 N.am      17 UNK        -0.5000 
     95 CA         -3.2151  -23.0892  -52.0742 C.3       17 UNK         0.1400 
     96 CB         -2.8460  -21.6294  -51.7536 C.3       17 UNK        -0.1800 
     97 C          -4.4521  -23.5738  -51.2980 C.2       17 UNK         0.5000 
     98 O          -4.4066  -24.6410  -50.6796 O.2       17 UNK        -0.5000 
     99 N          -5.5277  -22.7823  -51.3201 N.am      18 UNK        -0.5000 
    100 CA        -6.7523  -23.0147  -50.5533 C.3       18 UNK         0.1400 
    101 CB        -7.8604  -23.4870  -51.5125 C.3       18 UNK        -0.1800 
    102 C         -7.1259  -21.7290  -49.7946 C.2       18 UNK         0.5000 
    103 O         -8.2985  -21.3553  -49.7521 O.2       18 UNK        -0.5000 
    104 N         -6.1010  -21.0224  -49.2894 N.am      19 UNK        -0.5000 
    105 CA        -6.0933  -19.6637  -48.7184 C.3       19 UNK         0.1400 
    106 CB        -7.0522  -19.5240  -47.5216 C.3       19 UNK        -0.1800 
    107 C         -6.3290  -18.5666  -49.7770 C.2       19 UNK         0.5000 
    108 O         -5.6629  -17.5338  -49.7425 O.2       19 UNK        -0.5000 
    109 N         -7.2196  -18.8455  -50.7305 N.am      20 UNK        -0.5000 
    110 CA        -7.2899  -18.2368  -52.0516 C.3       20 UNK         0.1400 
    111 CB        -8.7594  -17.8788  -52.3394 C.3       20 UNK        -0.1800 
    112 C         -6.7247  -19.2410  -53.0810 C.2       20 UNK         0.5000 
    113 O         -6.1075  -20.2413  -52.6998 O.2       20 UNK        -0.5000 
    114 N         -6.9440  -18.9564  -54.3722 N.am      21 UNK        -0.5000 
    115 CA        -6.5878  -19.7754  -55.5429 C.3       21 UNK         0.1400 
    116 CB        -7.2430  -21.1718  -55.4675 C.3       21 UNK        -0.1800 
    117 C         -5.0753  -19.8598  -55.8464 C.2       21 UNK         0.5000 
    118 O         -4.6802  -20.5966  -56.7517 O.2       21 UNK        -0.5000 
    119 N         -4.2592  -19.0925  -55.1171 N.am      22 UNK        -0.5000 
    120 CA        -2.8271  -18.8929  -55.3693 C.3       22 UNK         0.1400 
    121 C         -2.5443  -17.9841  -56.6008 C.2       22 UNK         0.5000 
    122 N         -1.3552  -18.0749  -57.1816 N.am      22 UNK        -0.7600 
    123 O         -3.3771  -17.1855  -57.0264 O.2       22 UNK        -0.5000 
    124 C124       -2.0929  -18.3990  -54.0960 C.3       23 UNK        -0.0398 
    125 S125       -2.8565  -16.9438  -53.2902 S.3       23 UNK        -0.2404 
    126 C126       -2.8640  -17.4461  -51.5395 C.3       23 UNK        -0.0205 
    127 H127        6.9177  -14.6716  -49.5889 H         1 UNK         0.0600 
    128 H128        6.9047  -16.0536  -48.4896 H         1 UNK         0.0600 
    129 H129        7.8605  -14.6203  -48.0961 H         1 UNK         0.0600 
    130 H130        5.0674  -13.4443  -49.4464 H         1 UNK         0.3000 
    131 H131        3.1960  -13.7341  -47.2709 H         1 UNK         0.0600 
    132 H132        3.0084  -11.9632  -49.7491 H         1 UNK         0.0800 
    133 H133        1.6957  -12.3284  -48.6666 H         1 UNK         0.0800 
    134 H134        1.0656  -15.0657  -48.1446 H         1 UNK         0.0800 
    135 H135        0.0013  -14.1179  -49.1501 H         1 UNK         0.0800 
    136 H136       -1.6223  -15.3370  -50.3573 H         1 UNK         0.1150 
    137 H137       -1.0086  -19.4499  -51.3836 H         1 UNK         0.1150 
    138 H138        2.0888  -17.2622  -49.4009 H         1 UNK         0.1150 
    139 H139        1.2376  -20.3529  -51.3251 H         1 UNK         0.0800 
    140 H140        2.5588  -19.3678  -50.7598 H         1 UNK         0.0800 
    141 H141       -0.2604  -21.8021  -49.8957 H         1 UNK         0.0800 
    142 H142       -0.7757  -20.6118  -48.7189 H         1 UNK         0.0800 
    143 H143        0.7074  -23.1866  -47.9973 H         1 UNK         0.0600 
    144 H144        0.0290  -20.9627  -46.3694 H         1 UNK         0.3000 
    145 H145       -0.0163  -22.7565  -43.2456 H         1 UNK         0.0600 
    146 H146        1.5629  -20.9135  -42.7271 H         1 UNK         0.0600 
    147 H147        2.3395  -22.1396  -43.7184 H         1 UNK         0.0600 
    148 H148        1.8273  -20.6233  -44.4440 H         1 UNK         0.0600 
    149 H149       -0.5627  -20.0268  -43.8562 H         1 UNK         0.3000 
    150 H150       -4.0857  -20.4319  -44.4536 H         1 UNK         0.0600 
    151 H151       -4.1794  -18.7296  -42.6630 H         1 UNK         0.0600 
    152 H152       -2.5336  -19.1137  -42.1652 H         1 UNK         0.0600 
    153 H153       -3.8137  -20.3052  -41.9767 H         1 UNK         0.0600 
    154 H154       -2.4357  -18.1117  -44.4513 H         1 UNK         0.3000 
    155 H155       -1.4726  -18.2753  -47.9133 H         1 UNK         0.0600 
    156 H156       -3.7531  -17.2527  -47.8144 H         1 UNK         0.0600 
    157 H157       -3.3129  -16.3963  -46.3411 H         1 UNK         0.0600 
    158 H158       -2.4971  -16.0283  -47.8591 H         1 UNK         0.0600 
    159 H159       -0.8354  -16.3469  -45.9584 H         1 UNK         0.3000 
    160 H160        2.0943  -18.0221  -44.6346 H         1 UNK         0.0600 
    161 H161        3.1204  -15.9325  -45.2459 H         1 UNK         0.0600 
    162 H162        1.6639  -15.3489  -46.0312 H         1 UNK         0.0600 
    163 H163        2.5956  -16.6608  -46.7572 H         1 UNK         0.0600 
    164 H164        0.8628  -15.5850  -43.8431 H         1 UNK         0.3000 
    165 H165       -1.3373  -16.9203  -41.3644 H         1 UNK         0.0600 
    166 H166       -0.0759  -15.2265  -40.0476 H         1 UNK         0.0600 
    167 H167        0.8921  -16.6721  -40.2929 H         1 UNK         0.0600 
    168 H168        1.2193  -15.2302  -41.2439 H         1 UNK         0.0600 
    169 H169       -0.7564  -14.2883  -42.4206 H         1 UNK         0.3000 
    170 H170       -3.4671  -14.2191  -44.7418 H         1 UNK         0.0600 
    171 H171       -3.0568  -12.8235  -42.0426 H         1 UNK         0.0600 
    172 H172       -4.0846  -12.2604  -43.3608 H         1 UNK         0.0600 
    173 H173       -4.4821  -13.7439  -42.5089 H         1 UNK         0.0600 
    174 H174       -1.5586  -12.2433  -43.9410 H         1 UNK         0.3000 
    175 H175        0.8657  -13.0302  -46.4554 H         1 UNK         0.0600 
    176 H176        0.3986  -10.6910  -47.0868 H         1 UNK         0.0600 
    177 H177       -1.0888  -10.6960  -46.1411 H         1 UNK         0.0600 
    178 H178       -0.9436  -11.7144  -47.5693 H         1 UNK         0.0600 
    179 H179        1.1325  -10.9285  -44.7900 H         1 UNK         0.3000 
    180 H180        2.0988  -10.8664  -42.6494 H         1 UNK         0.0600 
    181 H181        3.3055  -13.5586  -41.7677 H         1 UNK         0.0600 
    182 H182        1.9888  -12.7129  -40.9605 H         1 UNK         0.0600 
    183 H183        3.5948  -11.9999  -41.0004 H         1 UNK         0.0600 
    184 H184        4.0188  -12.5977  -44.1452 H         1 UNK         0.3000 
    185 H185        5.3637   -9.8004  -45.8094 H         1 UNK         0.0600 
    186 H186        6.7225  -11.9950  -44.1502 H         1 UNK         0.0600 
    187 H187        7.4592  -11.0852  -45.4687 H         1 UNK         0.0600 
    188 H188        7.0058  -10.2661  -43.9822 H         1 UNK         0.0600 
    189 H189        5.4790  -12.6709  -46.1746 H         1 UNK         0.3000 
    190 H190       -2.4791  -22.0435  -46.8418 H         1 UNK         0.3000 
    191 H191       -4.0680  -23.9102  -48.2694 H         1 UNK         0.0600 
    192 H192       -4.8874  -21.8425  -47.0118 H         1 UNK         0.0600 
    193 H193       -5.8305  -23.2991  -46.7351 H         1 UNK         0.0600 
    194 H194       -4.6995  -22.7390  -45.5159 H         1 UNK         0.0600 
    195 H195       -2.6066  -24.0935  -44.9913 H         1 UNK         0.3000 
    196 H196       -3.5084  -26.6976  -44.3344 H         1 UNK         0.0600 
    197 H197       -1.7667  -26.5626  -42.5536 H         1 UNK         0.0600 
    198 H198       -2.6800  -25.0647  -42.6606 H         1 UNK         0.0600 
    199 H199       -1.0550  -25.1561  -43.3346 H         1 UNK         0.0600 
    200 H200       -0.5188  -25.6119  -45.9638 H         1 UNK         0.3000 
    201 H201        0.6524  -28.2273  -46.2461 H         1 UNK         0.0600 
    202 H202        1.9719  -26.1096  -46.2537 H         1 UNK         0.0600 
    203 H203        1.1776  -25.6033  -47.7442 H         1 UNK         0.0600 
    204 H204        2.2347  -27.0092  -47.7392 H         1 UNK         0.0600 
    205 H205       -1.9573  -26.7536  -47.8773 H         1 UNK         0.3000 
    206 H206       -3.1885  -27.1217  -49.6509 H         1 UNK         0.0600 
    207 H207       -3.1811  -29.5251  -48.9265 H         1 UNK         0.0600 
    208 H208       -3.3647  -29.3472  -50.6633 H         1 UNK         0.0600 
    209 H209       -1.8148  -29.8376  -49.9973 H         1 UNK         0.0600 
    210 H210       -0.7143  -25.7058  -49.8857 H         1 UNK         0.3000 
    211 H211        0.2011  -26.0330  -52.6818 H         1 UNK         0.0600 
    212 H212        0.8982  -23.9778  -50.5093 H         1 UNK         0.0600 
    213 H213        1.6630  -24.0974  -52.0890 H         1 UNK         0.0600 
    214 H214        1.8531  -25.3994  -50.9239 H         1 UNK         0.0600 
    215 H215       -2.2115  -24.4122  -50.8152 H         1 UNK         0.3000 
    216 H216       -3.4280  -23.1899  -53.1403 H         1 UNK         0.0600 
    217 H217       -3.6043  -20.9357  -52.1155 H         1 UNK         0.0600 
    218 H218       -1.9093  -21.3596  -52.2395 H         1 UNK         0.0600 
    219 H219       -2.7281  -21.4673  -50.6815 H         1 UNK         0.0600 
    220 H220       -5.5160  -21.9170  -51.8568 H         1 UNK         0.3000 
    221 H221       -6.5985  -23.7854  -49.7952 H         1 UNK         0.0600 
    222 H222       -8.0832  -22.7320  -52.2679 H         1 UNK         0.0600 
    223 H223       -7.5681  -24.4010  -52.0296 H         1 UNK         0.0600 
    224 H224       -8.7842  -23.7010  -50.9737 H         1 UNK         0.0600 
    225 H225       -5.1820  -21.4167  -49.4257 H         1 UNK         0.3000 
    226 H226       -5.0809  -19.5142  -48.3402 H         1 UNK         0.0600 
    227 H227       -6.8644  -20.2928  -46.7724 H         1 UNK         0.0600 
    228 H228       -6.9202  -18.5570  -47.0349 H         1 UNK         0.0600 
    229 H229       -8.0977  -19.5941  -47.8218 H         1 UNK         0.0600 
    230 H230       -7.7070  -19.7309  -50.6369 H         1 UNK         0.3000 
    231 H231       -6.6827  -17.3302  -52.0920 H         1 UNK         0.0600 
    232 H232       -9.3838  -18.7705  -52.4122 H         1 UNK         0.0600 
    233 H233       -8.8624  -17.3236  -53.2720 H         1 UNK         0.0600 
    234 H234       -9.1702  -17.2500  -51.5492 H         1 UNK         0.0600 
    235 H235       -7.4381  -18.1020  -54.5892 H         1 UNK         0.3000 
    236 H236       -7.0263  -19.2617  -56.3996 H         1 UNK         0.0600 
    237 H237       -6.7914  -21.7944  -54.6948 H         1 UNK         0.0600 
    238 H238       -8.3100  -21.0972  -55.2580 H         1 UNK         0.0600 
    239 H239       -7.1365  -21.7044  -56.4131 H         1 UNK         0.0600 
    240 H240       -4.6659  -18.4932  -54.4153 H         1 UNK         0.3000 
    241 H241       -2.4107  -19.8722  -55.6147 H         1 UNK         0.0600 
    242 H242       -1.1543  -17.4870  -57.9760 H         1 UNK         0.3800 
    243 H243       -0.6524  -18.7220  -56.8586 H         1 UNK         0.3800 
    244 H244       -2.0755  -19.2223  -53.3850 H         1 UNK         0.0800 
    245 H245       -1.0455  -18.1742  -54.3041 H         1 UNK         0.0800 
    246 H246       -3.3043  -18.4385  -51.4317 H         1 UNK         0.0800 
    247 H247       -3.5153  -16.7644  -50.9919 H         1 UNK         0.0800 
@<TRIPOS>BOND
     1    1    2 1    
     2    1  127 1    
     3    1  128 1    
     4    1  129 1    
     5    2    3 2    
     6    2    4 am   BACKBONE|DICT|INTERRES
     7    4    5 1    
     8    4  130 1    
     9    5    6 1    
    10    5   65 1    
    11    5  131 1    
    12    6    7 1    
    13    6  132 1    
    14    6  133 1    
    15    7    8 1    
    16    8    9 1    
    17    8  134 1    
    18    8  135 1    
    19    9   10 ar   
    20    9   14 ar   
    21   10   11 ar   
    22   10  136 1    
    23   11   12 ar   
    24   11  126 1    
    25   12   13 ar   
    26   12  137 1    
    27   13   14 ar   
    28   13   15 1    
    29   14  138 1    
    30   15   16 1    
    31   15  139 1    
    32   15  140 1    
    33   16   17 1    
    34   17   18 1    
    35   17  141 1    
    36   17  142 1    
    37   18   19 1    
    38   18   67 1    
    39   18  143 1    
    40   19   20 am   BACKBONE|DICT|INTERRES
    41   19  144 1    
    42   20   21 2    
    43   20   22 1    
    44   22   23 1    
    45   22   24 1    
    46   22  145 1    
    47   23  146 1    
    48   23  147 1    
    49   23  148 1    
    50   24   25 am   BACKBONE|DICT|INTERRES
    51   24  149 1    
    52   25   26 2    
    53   25   27 1    
    54   27   28 1    
    55   27   29 1    
    56   27  150 1    
    57   28  151 1    
    58   28  152 1    
    59   28  153 1    
    60   29   30 am   BACKBONE|DICT|INTERRES
    61   29  154 1    
    62   30   31 2    
    63   30   32 1    
    64   32   33 1    
    65   32   34 1    
    66   32  155 1    
    67   33  156 1    
    68   33  157 1    
    69   33  158 1    
    70   34   35 am   BACKBONE|DICT|INTERRES
    71   34  159 1    
    72   35   36 2    
    73   35   37 1    
    74   37   38 1    
    75   37   39 1    
    76   37  160 1    
    77   38  161 1    
    78   38  162 1    
    79   38  163 1    
    80   39   40 am   BACKBONE|DICT|INTERRES
    81   39  164 1    
    82   40   41 2    
    83   40   42 1    
    84   42   43 1    
    85   42   44 1    
    86   42  165 1    
    87   43  166 1    
    88   43  167 1    
    89   43  168 1    
    90   44   45 am   BACKBONE|DICT|INTERRES
    91   44  169 1    
    92   45   46 2    
    93   45   47 1    
    94   47   48 1    
    95   47   49 1    
    96   47  170 1    
    97   48  171 1    
    98   48  172 1    
    99   48  173 1    
   100   49   50 am   BACKBONE|DICT|INTERRES
   101   49  174 1    
   102   50   51 2    
   103   50   52 1    
   104   52   53 1    
   105   52   54 1    
   106   52  175 1    
   107   53  176 1    
   108   53  177 1    
   109   53  178 1    
   110   54   55 am   BACKBONE|DICT|INTERRES
   111   54  179 1    
   112   55   56 2    
   113   55   57 1    
   114   57   58 1    
   115   57   59 1    
   116   57  180 1    
   117   58  181 1    
   118   58  182 1    
   119   58  183 1    
   120   59   60 am   BACKBONE|DICT|INTERRES
   121   59  184 1    
   122   60   61 2    
   123   60   62 1    
   124   62   63 1    
   125   62   64 1    
   126   62  185 1    
   127   63  186 1    
   128   63  187 1    
   129   63  188 1    
   130   64   65 am   BACKBONE|DICT|INTERRES
   131   64  189 1    
   132   65   66 2    
   133   67   68 2    
   134   67   69 am   BACKBONE|DICT|INTERRES
   135   69   70 1    
   136   69  190 1    
   137   70   71 1    
   138   70   72 1    
   139   70  191 1    
   140   71  192 1    
   141   71  193 1    
   142   71  194 1    
   143   72   73 2    
   144   72   74 am   BACKBONE|DICT|INTERRES
   145   74   75 1    
   146   74  195 1    
   147   75   76 1    
   148   75   77 1    
   149   75  196 1    
   150   76  197 1    
   151   76  198 1    
   152   76  199 1    
   153   77   78 2    
   154   77   79 am   BACKBONE|DICT|INTERRES
   155   79   80 1    
   156   79  200 1    
   157   80   81 1    
   158   80   82 1    
   159   80  201 1    
   160   81  202 1    
   161   81  203 1    
   162   81  204 1    
   163   82   83 2    
   164   82   84 am   BACKBONE|DICT|INTERRES
   165   84   85 1    
   166   84  205 1    
   167   85   86 1    
   168   85   87 1    
   169   85  206 1    
   170   86  207 1    
   171   86  208 1    
   172   86  209 1    
   173   87   88 2    
   174   87   89 am   BACKBONE|DICT|INTERRES
   175   89   90 1    
   176   89  210 1    
   177   90   91 1    
   178   90   92 1    
   179   90  211 1    
   180   91  212 1    
   181   91  213 1    
   182   91  214 1    
   183   92   93 2    
   184   92   94 am   BACKBONE|DICT|INTERRES
   185   94   95 1    
   186   94  215 1    
   187   95   96 1    
   188   95   97 1    
   189   95  216 1    
   190   96  217 1    
   191   96  218 1    
   192   96  219 1    
   193   97   98 2    
   194   97   99 am   BACKBONE|DICT|INTERRES
   195   99  100 1    
   196   99  220 1    
   197  100  101 1    
   198  100  102 1    
   199  100  221 1    
   200  101  222 1    
   201  101  223 1    
   202  101  224 1    
   203  102  103 2    
   204  102  104 am   BACKBONE|DICT|INTERRES
   205  104  105 1    
   206  104  225 1    
   207  105  106 1    
   208  105  107 1    
   209  105  226 1    
   210  106  227 1    
   211  106  228 1    
   212  106  229 1    
   213  107  108 2    
   214  107  109 am   BACKBONE|DICT|INTERRES
   215  109  110 1    
   216  109  230 1    
   217  110  111 1    
   218  110  112 1    
   219  110  231 1    
   220  111  232 1    
   221  111  233 1    
   222  111  234 1    
   223  112  113 2    
   224  112  114 am   BACKBONE|DICT|INTERRES
   225  114  115 1    
   226  114  235 1    
   227  115  116 1    
   228  115  117 1    
   229  115  236 1    
   230  116  237 1    
   231  116  238 1    
   232  116  239 1    
   233  117  118 2    
   234  117  119 am   BACKBONE|DICT|INTERRES
   235  119  120 1    
   236  119  240 1    
   237  120  121 1    
   238  120  124 1    
   239  120  241 1    
   240  121  122 am   BACKBONE|DICT|INTERRES
   241  121  123 2    
   242  122  242 1    
   243  122  243 1    
   244  124  125 1    
   245  124  244 1    
   246  124  245 1    
   247  125  126 1    
   248  126  246 1    
   249  126  247 1    
@<TRIPOS>SUBSTRUCTURE
     1 UNK         1 GROUP             0       ****    0 ROOT    
