@<TRIPOS>MOLECULE
3R540
247   249    1
SMALL
USER_CHARGES


@<TRIPOS>ATOM
      1 CA         -1.9050  -13.4760  -46.2233 C.3       0 UNK        -0.1800 
      2 C          -0.8111  -12.4355  -46.4141 C.2       0 UNK         0.5000 
      3 O          -0.3255  -11.8601  -45.4396 O.2       0 UNK        -0.5000 
      4 N          -0.4132  -12.2062  -47.6732 N.am      1 UNK        -0.5000 
      5 CA          0.5711  -11.2018  -48.1082 C.3       1 UNK         0.1400 
      6 C6          0.6060  -11.0703  -49.6542 C.3       23 UNK        -0.0398 
      7 S7          1.3510  -12.4953  -50.5255 S.3       23 UNK        -0.2404 
      8 C8         -0.1114  -13.4673  -50.9929 C.3       23 UNK        -0.0205 
      9 C9          0.3094  -14.8153  -51.5532 C.ar      23 UNK        -0.0193 
     10 C10         0.3422  -15.0297  -52.9325 C.ar      23 UNK        -0.1150 
     11 C11         0.7530  -16.2578  -53.4574 C.ar      23 UNK        -0.0193 
     12 C12         1.1358  -17.2753  -52.5709 C.ar      23 UNK        -0.1150 
     13 C13         1.0996  -17.0854  -51.1853 C.ar      23 UNK        -0.0193 
     14 C14         0.6851  -15.8440  -50.6860 C.ar      23 UNK        -0.1150 
     15 C15         1.5400  -18.2480  -50.2897 C.3       23 UNK        -0.0205 
     16 S16         1.3918  -18.0003  -48.4838 S.3       23 UNK        -0.2404 
     17 C17        -0.4123  -18.1170  -48.2414 C.3       23 UNK        -0.0398 
     18 CA         -0.8838  -19.5611  -47.9495 C.3       11 UNK         0.1400 
     19 N          -0.3572  -20.1050  -46.6928 N.am      11 UNK        -0.5000 
     20 C          -0.4840  -21.3861  -46.3158 C.2       10 UNK         0.5000 
     21 O          -1.0139  -22.2529  -47.0115 O.2       10 UNK        -0.5000 
     22 CA          0.0069  -21.7535  -44.9038 C.3       10 UNK         0.1400 
     23 CB          1.5313  -21.9391  -44.8744 C.3       10 UNK        -0.1800 
     24 N          -0.4032  -20.7739  -43.8960 N.am      10 UNK        -0.5000 
     25 C          -1.6797  -20.5286  -43.5653 C.2       9 UNK         0.5000 
     26 O          -2.6358  -21.1366  -44.0436 O.2       9 UNK        -0.5000 
     27 CA         -1.9449  -19.3907  -42.5650 C.3       9 UNK         0.1400 
     28 CB         -1.7633  -19.8865  -41.1231 C.3       9 UNK        -0.1800 
     29 N          -1.1034  -18.2177  -42.8016 N.am      9 UNK        -0.5000 
     30 C          -1.1363  -17.4695  -43.9146 C.2       8 UNK         0.5000 
     31 O          -1.9177  -17.6603  -44.8465 O.2       8 UNK        -0.5000 
     32 CA         -0.0752  -16.3616  -44.0383 C.3       8 UNK         0.1400 
     33 CB         -0.4711  -15.1175  -43.2292 C.3       8 UNK        -0.1800 
     34 N           1.2532  -16.8099  -43.6273 N.am      8 UNK        -0.5000 
     35 C           1.9329  -17.8107  -44.2032 C.2       7 UNK         0.5000 
     36 O           1.5214  -18.4488  -45.1703 O.2       7 UNK        -0.5000 
     37 CA          3.2675  -18.2009  -43.5496 C.3       7 UNK         0.1400 
     38 CB          4.3846  -17.2243  -43.9418 C.3       7 UNK        -0.1800 
     39 N           3.1557  -18.2599  -42.0935 N.am      7 UNK        -0.5000 
     40 C           2.4844  -19.2097  -41.4284 C.2       6 UNK         0.5000 
     41 O           1.9067  -20.1501  -41.9739 O.2       6 UNK        -0.5000 
     42 CA          2.4245  -19.0628  -39.8974 C.3       6 UNK         0.1400 
     43 CB          3.7027  -19.6145  -39.2482 C.3       6 UNK        -0.1800 
     44 N           2.2197  -17.6779  -39.4684 N.am      6 UNK        -0.5000 
     45 C           1.0961  -16.9828  -39.6909 C.2       5 UNK         0.5000 
     46 O           0.1200  -17.4319  -40.2893 O.2       5 UNK        -0.5000 
     47 CA          1.0702  -15.5270  -39.1957 C.3       5 UNK         0.1400 
     48 CB          0.7478  -15.4721  -37.6947 C.3       5 UNK        -0.1800 
     49 N           2.2983  -14.7710  -39.4583 N.am      5 UNK        -0.5000 
     50 C           2.8451  -14.5869  -40.6669 C.2       4 UNK         0.5000 
     51 O           2.4800  -15.1717  -41.6884 O.2       4 UNK        -0.5000 
     52 CA          3.9842  -13.5593  -40.7629 C.3       4 UNK         0.1400 
     53 CB          5.3250  -14.2549  -41.0411 C.3       4 UNK        -0.1800 
     54 N           3.7055  -12.6031  -41.8324 N.am      4 UNK        -0.5000 
     55 C           2.6985  -11.7212  -41.8378 C.2       3 UNK         0.5000 
     56 O           1.9720  -11.5176  -40.8638 O.2       3 UNK        -0.5000 
     57 CA          2.4331  -10.9443  -43.1426 C.3       3 UNK         0.1400 
     58 CB          3.2720   -9.6537  -43.2037 C.3       3 UNK        -0.1800 
     59 N           2.5663  -11.7298  -44.3778 N.am      3 UNK        -0.5000 
     60 C           3.6685  -12.2538  -44.9385 C.2       2 UNK         0.5000 
     61 O           4.7865  -12.2083  -44.4243 O.2       2 UNK        -0.5000 
     62 CA          3.5039  -12.9617  -46.3001 C.3       2 UNK         0.1400 
     63 CB          3.5278  -14.4862  -46.1147 C.3       2 UNK        -0.1800 
     64 N           2.2781  -12.5990  -47.0099 N.am      2 UNK        -0.5000 
     65 C           1.9865  -11.3884  -47.5078 C.2       1 UNK         0.5000 
     66 O           2.7683  -10.4367  -47.4902 O.2       1 UNK        -0.5000 
     67 C          -2.4217  -19.6513  -48.0116 C.2       11 UNK         0.5000 
     68 O          -2.9551  -20.0559  -49.0435 O.2       11 UNK        -0.5000 
     69 N          -3.1061  -19.3159  -46.9080 N.am      12 UNK        -0.5000 
     70 CA         -4.5607  -19.4212  -46.7770 C.3       12 UNK         0.1400 
     71 CB         -5.0135  -18.7749  -45.4596 C.3       12 UNK        -0.1800 
     72 C          -5.0670  -20.8718  -46.8818 C.2       12 UNK         0.5000 
     73 O          -6.0511  -21.1186  -47.5781 O.2       12 UNK        -0.5000 
     74 N          -4.3674  -21.8075  -46.2245 N.am      13 UNK        -0.5000 
     75 CA         -4.6425  -23.2440  -46.2804 C.3       13 UNK         0.1400 
     76 CB         -3.7724  -23.9784  -45.2493 C.3       13 UNK        -0.1800 
     77 C          -4.4400  -23.8366  -47.6863 C.2       13 UNK         0.5000 
     78 O          -5.2404  -24.6704  -48.1085 O.2       13 UNK        -0.5000 
     79 N          -3.3991  -23.3759  -48.3943 N.am      14 UNK        -0.5000 
     80 CA         -3.1326  -23.7205  -49.7901 C.3       14 UNK         0.1400 
     81 CB         -1.7409  -23.2109  -50.1908 C.3       14 UNK        -0.1800 
     82 C          -4.2200  -23.1754  -50.7352 C.2       14 UNK         0.5000 
     83 O          -4.7442  -23.9210  -51.5632 O.2       14 UNK        -0.5000 
     84 N          -4.5596  -21.8880  -50.5716 N.am      15 UNK        -0.5000 
     85 CA         -5.5657  -21.1698  -51.3576 C.3       15 UNK         0.1400 
     86 CB         -5.5360  -19.6805  -50.9860 C.3       15 UNK        -0.1800 
     87 C          -6.9929  -21.7308  -51.2203 C.2       15 UNK         0.5000 
     88 O          -7.7819  -21.5991  -52.1572 O.2       15 UNK        -0.5000 
     89 N          -7.2980  -22.3719  -50.0841 N.am      16 UNK        -0.5000 
     90 CA         -8.5648  -23.0396  -49.7744 C.3       16 UNK         0.1400 
     91 CB         -8.6674  -23.2176  -48.2487 C.3       16 UNK        -0.1800 
     92 C          -8.7630  -24.3672  -50.5456 C.2       16 UNK         0.5000 
     93 O          -9.0592  -25.3982  -49.9389 O.2       16 UNK        -0.5000 
     94 N          -8.6115  -24.3062  -51.8761 N.am      17 UNK        -0.5000 
     95 CA         -8.8116  -25.3723  -52.8635 C.3       17 UNK         0.1400 
     96 CB        -10.3083  -25.7360  -52.9609 C.3       17 UNK        -0.1800 
     97 C          -7.9059  -26.6068  -52.6585 C.2       17 UNK         0.5000 
     98 O          -8.3263  -27.7294  -52.9482 O.2       17 UNK        -0.5000 
     99 N          -6.6779  -26.3809  -52.1784 N.am      18 UNK        -0.5000 
    100 CA        -5.6442  -27.3995  -52.0081 C.3       18 UNK         0.1400 
    101 CB        -5.1271  -27.3313  -50.5606 C.3       18 UNK        -0.1800 
    102 C         -4.5246  -27.1912  -53.0465 C.2       18 UNK         0.5000 
    103 O         -4.6695  -26.3843  -53.9693 O.2       18 UNK        -0.5000 
    104 N         -3.4310  -27.9502  -52.9040 N.am      19 UNK        -0.5000 
    105 CA        -2.2340  -27.8372  -53.7374 C.3       19 UNK         0.1400 
    106 CB        -1.3073  -29.0273  -53.4444 C.3       19 UNK        -0.1800 
    107 C         -1.4950  -26.5063  -53.4986 C.2       19 UNK         0.5000 
    108 O         -1.4579  -26.0266  -52.3633 O.2       19 UNK        -0.5000 
    109 N         -0.9010  -25.9636  -54.5721 N.am      20 UNK        -0.5000 
    110 CA        -0.1354  -24.7103  -54.6182 C.3       20 UNK         0.1400 
    111 CB         1.1729  -24.8379  -53.8088 C.3       20 UNK        -0.1800 
    112 C         -0.9741  -23.4755  -54.2213 C.2       20 UNK         0.5000 
    113 O         -0.4902  -22.6030  -53.4988 O.2       20 UNK        -0.5000 
    114 N         -2.2246  -23.4301  -54.7068 N.am      21 UNK        -0.5000 
    115 CA        -3.2255  -22.4077  -54.3831 C.3       21 UNK         0.1400 
    116 CB        -4.5782  -22.8096  -54.9908 C.3       21 UNK        -0.1800 
    117 C         -2.8510  -20.9699  -54.7911 C.2       21 UNK         0.5000 
    118 O         -3.3481  -20.0264  -54.1762 O.2       21 UNK        -0.5000 
    119 N         -1.9709  -20.8290  -55.7923 N.am      22 UNK        -0.5000 
    120 CA        -1.3561  -19.5594  -56.2185 C.3       22 UNK         0.1400 
    121 C         -2.3176  -18.5700  -56.9495 C.2       22 UNK         0.5000 
    122 N         -3.4783  -19.0092  -57.4212 N.am      22 UNK        -0.7600 
    123 O         -2.0035  -17.3957  -57.1219 O.2       22 UNK        -0.5000 
    124 C124       -0.5463  -18.9014  -55.0622 C.3       23 UNK        -0.0398 
    125 S125        1.0036  -18.1140  -55.6161 S.3       23 UNK        -0.2404 
    126 C126        0.7852  -16.4146  -54.9816 C.3       23 UNK        -0.0205 
    127 H127       -2.5193  -13.2282  -45.3577 H         1 UNK         0.0600 
    128 H128       -1.4680  -14.4606  -46.0648 H         1 UNK         0.0600 
    129 H129       -2.5581  -13.5287  -47.0947 H         1 UNK         0.0600 
    130 H130       -0.8492  -12.7279  -48.4182 H         1 UNK         0.3000 
    131 H131        0.2121  -10.2469  -47.7184 H         1 UNK         0.0600 
    132 H132       -0.3993  -10.8938  -50.0393 H         1 UNK         0.0800 
    133 H133        1.1777  -10.1828  -49.9308 H         1 UNK         0.0800 
    134 H134       -0.7002  -12.9111  -51.7242 H         1 UNK         0.0800 
    135 H135       -0.7549  -13.6220  -50.1270 H         1 UNK         0.0800 
    136 H136        0.0575  -14.2305  -53.6029 H         1 UNK         0.1150 
    137 H137        1.4743  -18.2284  -52.9494 H         1 UNK         0.1150 
    138 H138        0.6656  -15.6551  -49.6232 H         1 UNK         0.1150 
    139 H139        0.9816  -19.1437  -50.5659 H         1 UNK         0.0800 
    140 H140        2.5870  -18.4627  -50.5075 H         1 UNK         0.0800 
    141 H141       -0.9082  -17.7213  -49.1296 H         1 UNK         0.0800 
    142 H142       -0.6881  -17.4541  -47.4195 H         1 UNK         0.0800 
    143 H143       -0.5053  -20.1978  -48.7521 H         1 UNK         0.0600 
    144 H144        0.1443  -19.4594  -46.0879 H         1 UNK         0.3000 
    145 H145       -0.4487  -22.7093  -44.6367 H         1 UNK         0.0600 
    146 H146        1.8695  -22.2634  -43.8901 H         1 UNK         0.0600 
    147 H147        1.8438  -22.6983  -45.5923 H         1 UNK         0.0600 
    148 H148        2.0590  -21.0188  -45.1223 H         1 UNK         0.0600 
    149 H149        0.3353  -20.2549  -43.4354 H         1 UNK         0.3000 
    150 H150       -2.9846  -19.0807  -42.6855 H         1 UNK         0.0600 
    151 H151       -2.3793  -20.7658  -40.9308 H         1 UNK         0.0600 
    152 H152       -2.0575  -19.1216  -40.4043 H         1 UNK         0.0600 
    153 H153       -0.7274  -20.1586  -40.9181 H         1 UNK         0.0600 
    154 H154       -0.4606  -17.9662  -42.0557 H         1 UNK         0.3000 
    155 H155       -0.0124  -16.0812  -45.0912 H         1 UNK         0.0600 
    156 H156       -0.4764  -15.3205  -42.1581 H         1 UNK         0.0600 
    157 H157       -1.4683  -14.7712  -43.5019 H         1 UNK         0.0600 
    158 H158        0.2213  -14.2944  -43.4094 H         1 UNK         0.0600 
    159 H159        1.6784  -16.3149  -42.8451 H         1 UNK         0.3000 
    160 H160        3.5427  -19.1932  -43.9137 H         1 UNK         0.0600 
    161 H161        4.1637  -16.2073  -43.6175 H         1 UNK         0.0600 
    162 H162        4.5176  -17.2053  -45.0240 H         1 UNK         0.0600 
    163 H163        5.3383  -17.5170  -43.5025 H         1 UNK         0.0600 
    164 H164        3.5416  -17.4849  -41.5749 H         1 UNK         0.3000 
    165 H165        1.5793  -19.6559  -39.5413 H         1 UNK         0.0600 
    166 H166        3.6340  -19.5909  -38.1605 H         1 UNK         0.0600 
    167 H167        3.8712  -20.6521  -39.5396 H         1 UNK         0.0600 
    168 H168        4.5844  -19.0436  -39.5419 H         1 UNK         0.0600 
    169 H169        2.9796  -17.2275  -38.9799 H         1 UNK         0.3000 
    170 H170        0.2637  -15.0207  -39.7300 H         1 UNK         0.0600 
    171 H171       -0.1718  -16.0152  -37.4722 H         1 UNK         0.0600 
    172 H172        1.5438  -15.9142  -37.0944 H         1 UNK         0.0600 
    173 H173        0.6048  -14.4448  -37.3591 H         1 UNK         0.0600 
    174 H174        2.6725  -14.2527  -38.6768 H         1 UNK         0.3000 
    175 H175        4.0622  -13.0120  -39.8213 H         1 UNK         0.0600 
    176 H176        5.3148  -14.7855  -41.9937 H         1 UNK         0.0600 
    177 H177        6.1425  -13.5344  -41.0705 H         1 UNK         0.0600 
    178 H178        5.5587  -14.9810  -40.2616 H         1 UNK         0.0600 
    179 H179        4.2499  -12.6896  -42.6854 H         1 UNK         0.3000 
    180 H180        1.3841  -10.6451  -43.1115 H         1 UNK         0.0600 
    181 H181        4.3422   -9.8615  -43.2119 H         1 UNK         0.0600 
    182 H182        3.0716   -9.0198  -42.3391 H         1 UNK         0.0600 
    183 H183        3.0357   -9.0726  -44.0951 H         1 UNK         0.0600 
    184 H184        1.6908  -11.8648  -44.8732 H         1 UNK         0.3000 
    185 H185        4.3520  -12.6753  -46.9252 H         1 UNK         0.0600 
    186 H186        4.4675  -14.8016  -45.6608 H         1 UNK         0.0600 
    187 H187        2.7169  -14.8274  -45.4695 H         1 UNK         0.0600 
    188 H188        3.4399  -15.0059  -47.0692 H         1 UNK         0.0600 
    189 H189        1.5713  -13.3152  -47.0825 H         1 UNK         0.3000 
    190 H190       -2.6029  -18.9447  -46.1064 H         1 UNK         0.3000 
    191 H191       -5.0069  -18.8563  -47.5979 H         1 UNK         0.0600 
    192 H192       -4.5843  -19.2793  -44.5942 H         1 UNK         0.0600 
    193 H193       -6.0987  -18.8150  -45.3584 H         1 UNK         0.0600 
    194 H194       -4.7207  -17.7258  -45.4143 H         1 UNK         0.0600 
    195 H195       -3.6010  -21.5159  -45.6228 H         1 UNK         0.3000 
    196 H196       -5.6894  -23.3921  -46.0076 H         1 UNK         0.0600 
    197 H197       -3.9681  -25.0513  -45.2655 H         1 UNK         0.0600 
    198 H198       -3.9776  -23.6255  -44.2386 H         1 UNK         0.0600 
    199 H199       -2.7094  -23.8342  -45.4443 H         1 UNK         0.0600 
    200 H200       -2.7502  -22.7343  -47.9499 H         1 UNK         0.3000 
    201 H201       -3.1182  -24.8076  -49.8732 H         1 UNK         0.0600 
    202 H202       -0.9676  -23.6224  -49.5421 H         1 UNK         0.0600 
    203 H203       -1.6718  -22.1243  -50.1474 H         1 UNK         0.0600 
    204 H204       -1.5021  -23.5144  -51.2091 H         1 UNK         0.0600 
    205 H205       -4.0523  -21.3336  -49.8856 H         1 UNK         0.3000 
    206 H206       -5.2874  -21.2581  -52.4081 H         1 UNK         0.0600 
    207 H207       -4.5572  -19.2450  -51.1885 H         1 UNK         0.0600 
    208 H208       -6.2669  -19.1163  -51.5666 H         1 UNK         0.0600 
    209 H209       -5.7620  -19.5259  -49.9306 H         1 UNK         0.0600 
    210 H210       -6.5933  -22.3982  -49.3575 H         1 UNK         0.3000 
    211 H211       -9.3776  -22.3777  -50.0800 H         1 UNK         0.0600 
    212 H212       -7.8765  -23.8636  -47.8664 H         1 UNK         0.0600 
    213 H213       -9.6226  -23.6618  -47.9666 H         1 UNK         0.0600 
    214 H214       -8.5942  -22.2594  -47.7342 H         1 UNK         0.0600 
    215 H215       -8.3505  -23.3994  -52.2550 H         1 UNK         0.3000 
    216 H216       -8.5167  -24.9475  -53.8240 H         1 UNK         0.0600 
    217 H217      -10.4937  -26.4208  -53.7891 H         1 UNK         0.0600 
    218 H218      -10.9191  -24.8499  -53.1338 H         1 UNK         0.0600 
    219 H219      -10.6665  -26.2181  -52.0507 H         1 UNK         0.0600 
    220 H220       -6.3731  -25.4270  -52.0227 H         1 UNK         0.3000 
    221 H221       -6.0526  -28.3981  -52.1741 H         1 UNK         0.0600 
    222 H222       -4.6414  -26.3799  -50.3557 H         1 UNK         0.0600 
    223 H223       -5.9449  -27.4410  -49.8478 H         1 UNK         0.0600 
    224 H224       -4.4092  -28.1236  -50.3484 H         1 UNK         0.0600 
    225 H225       -3.3690  -28.5759  -52.1149 H         1 UNK         0.3000 
    226 H226       -2.5427  -27.8877  -54.7838 H         1 UNK         0.0600 
    227 H227       -1.8051  -29.9756  -53.6479 H         1 UNK         0.0600 
    228 H228       -0.4137  -28.9899  -54.0688 H         1 UNK         0.0600 
    229 H229       -0.9797  -29.0353  -52.4039 H         1 UNK         0.0600 
    230 H230       -0.9886  -26.4451  -55.4565 H         1 UNK         0.3000 
    231 H231        0.1428  -24.5603  -55.6623 H         1 UNK         0.0600 
    232 H232        1.7478  -25.7091  -54.1227 H         1 UNK         0.0600 
    233 H233        0.9818  -24.9294  -52.7392 H         1 UNK         0.0600 
    234 H234        1.8076  -23.9627  -53.9522 H         1 UNK         0.0600 
    235 H235       -2.5440  -24.2023  -55.2735 H         1 UNK         0.3000 
    236 H236       -3.3259  -22.3987  -53.2990 H         1 UNK         0.0600 
    237 H237       -5.3443  -22.0627  -54.7786 H         1 UNK         0.0600 
    238 H238       -4.5169  -22.9196  -56.0739 H         1 UNK         0.0600 
    239 H239       -4.9294  -23.7534  -54.5740 H         1 UNK         0.0600 
    240 H240       -1.6343  -21.6619  -56.2528 H         1 UNK         0.3000 
    241 H241       -0.6456  -19.8612  -56.9886 H         1 UNK         0.0600 
    242 H242       -4.0926  -18.3702  -57.9012 H         1 UNK         0.3800 
    243 H243       -3.7517  -19.9704  -57.2953 H         1 UNK         0.3800 
    244 H244       -1.1650  -18.1948  -54.5060 H         1 UNK         0.0800 
    245 H245       -0.2481  -19.6567  -54.3331 H         1 UNK         0.0800 
    246 H246        1.6003  -15.8023  -55.3692 H         1 UNK         0.0800 
    247 H247       -0.1335  -16.0069  -55.4069 H         1 UNK         0.0800 
@<TRIPOS>BOND
     1    1    2 1    
     2    1  127 1    
     3    1  128 1    
     4    1  129 1    
     5    2    3 2    
     6    2    4 am   BACKBONE|DICT|INTERRES
     7    4    5 1    
     8    4  130 1    
     9    5    6 1    
    10    5   65 1    
    11    5  131 1    
    12    6    7 1    
    13    6  132 1    
    14    6  133 1    
    15    7    8 1    
    16    8    9 1    
    17    8  134 1    
    18    8  135 1    
    19    9   10 ar   
    20    9   14 ar   
    21   10   11 ar   
    22   10  136 1    
    23   11   12 ar   
    24   11  126 1    
    25   12   13 ar   
    26   12  137 1    
    27   13   14 ar   
    28   13   15 1    
    29   14  138 1    
    30   15   16 1    
    31   15  139 1    
    32   15  140 1    
    33   16   17 1    
    34   17   18 1    
    35   17  141 1    
    36   17  142 1    
    37   18   19 1    
    38   18   67 1    
    39   18  143 1    
    40   19   20 am   BACKBONE|DICT|INTERRES
    41   19  144 1    
    42   20   21 2    
    43   20   22 1    
    44   22   23 1    
    45   22   24 1    
    46   22  145 1    
    47   23  146 1    
    48   23  147 1    
    49   23  148 1    
    50   24   25 am   BACKBONE|DICT|INTERRES
    51   24  149 1    
    52   25   26 2    
    53   25   27 1    
    54   27   28 1    
    55   27   29 1    
    56   27  150 1    
    57   28  151 1    
    58   28  152 1    
    59   28  153 1    
    60   29   30 am   BACKBONE|DICT|INTERRES
    61   29  154 1    
    62   30   31 2    
    63   30   32 1    
    64   32   33 1    
    65   32   34 1    
    66   32  155 1    
    67   33  156 1    
    68   33  157 1    
    69   33  158 1    
    70   34   35 am   BACKBONE|DICT|INTERRES
    71   34  159 1    
    72   35   36 2    
    73   35   37 1    
    74   37   38 1    
    75   37   39 1    
    76   37  160 1    
    77   38  161 1    
    78   38  162 1    
    79   38  163 1    
    80   39   40 am   BACKBONE|DICT|INTERRES
    81   39  164 1    
    82   40   41 2    
    83   40   42 1    
    84   42   43 1    
    85   42   44 1    
    86   42  165 1    
    87   43  166 1    
    88   43  167 1    
    89   43  168 1    
    90   44   45 am   BACKBONE|DICT|INTERRES
    91   44  169 1    
    92   45   46 2    
    93   45   47 1    
    94   47   48 1    
    95   47   49 1    
    96   47  170 1    
    97   48  171 1    
    98   48  172 1    
    99   48  173 1    
   100   49   50 am   BACKBONE|DICT|INTERRES
   101   49  174 1    
   102   50   51 2    
   103   50   52 1    
   104   52   53 1    
   105   52   54 1    
   106   52  175 1    
   107   53  176 1    
   108   53  177 1    
   109   53  178 1    
   110   54   55 am   BACKBONE|DICT|INTERRES
   111   54  179 1    
   112   55   56 2    
   113   55   57 1    
   114   57   58 1    
   115   57   59 1    
   116   57  180 1    
   117   58  181 1    
   118   58  182 1    
   119   58  183 1    
   120   59   60 am   BACKBONE|DICT|INTERRES
   121   59  184 1    
   122   60   61 2    
   123   60   62 1    
   124   62   63 1    
   125   62   64 1    
   126   62  185 1    
   127   63  186 1    
   128   63  187 1    
   129   63  188 1    
   130   64   65 am   BACKBONE|DICT|INTERRES
   131   64  189 1    
   132   65   66 2    
   133   67   68 2    
   134   67   69 am   BACKBONE|DICT|INTERRES
   135   69   70 1    
   136   69  190 1    
   137   70   71 1    
   138   70   72 1    
   139   70  191 1    
   140   71  192 1    
   141   71  193 1    
   142   71  194 1    
   143   72   73 2    
   144   72   74 am   BACKBONE|DICT|INTERRES
   145   74   75 1    
   146   74  195 1    
   147   75   76 1    
   148   75   77 1    
   149   75  196 1    
   150   76  197 1    
   151   76  198 1    
   152   76  199 1    
   153   77   78 2    
   154   77   79 am   BACKBONE|DICT|INTERRES
   155   79   80 1    
   156   79  200 1    
   157   80   81 1    
   158   80   82 1    
   159   80  201 1    
   160   81  202 1    
   161   81  203 1    
   162   81  204 1    
   163   82   83 2    
   164   82   84 am   BACKBONE|DICT|INTERRES
   165   84   85 1    
   166   84  205 1    
   167   85   86 1    
   168   85   87 1    
   169   85  206 1    
   170   86  207 1    
   171   86  208 1    
   172   86  209 1    
   173   87   88 2    
   174   87   89 am   BACKBONE|DICT|INTERRES
   175   89   90 1    
   176   89  210 1    
   177   90   91 1    
   178   90   92 1    
   179   90  211 1    
   180   91  212 1    
   181   91  213 1    
   182   91  214 1    
   183   92   93 2    
   184   92   94 am   BACKBONE|DICT|INTERRES
   185   94   95 1    
   186   94  215 1    
   187   95   96 1    
   188   95   97 1    
   189   95  216 1    
   190   96  217 1    
   191   96  218 1    
   192   96  219 1    
   193   97   98 2    
   194   97   99 am   BACKBONE|DICT|INTERRES
   195   99  100 1    
   196   99  220 1    
   197  100  101 1    
   198  100  102 1    
   199  100  221 1    
   200  101  222 1    
   201  101  223 1    
   202  101  224 1    
   203  102  103 2    
   204  102  104 am   BACKBONE|DICT|INTERRES
   205  104  105 1    
   206  104  225 1    
   207  105  106 1    
   208  105  107 1    
   209  105  226 1    
   210  106  227 1    
   211  106  228 1    
   212  106  229 1    
   213  107  108 2    
   214  107  109 am   BACKBONE|DICT|INTERRES
   215  109  110 1    
   216  109  230 1    
   217  110  111 1    
   218  110  112 1    
   219  110  231 1    
   220  111  232 1    
   221  111  233 1    
   222  111  234 1    
   223  112  113 2    
   224  112  114 am   BACKBONE|DICT|INTERRES
   225  114  115 1    
   226  114  235 1    
   227  115  116 1    
   228  115  117 1    
   229  115  236 1    
   230  116  237 1    
   231  116  238 1    
   232  116  239 1    
   233  117  118 2    
   234  117  119 am   BACKBONE|DICT|INTERRES
   235  119  120 1    
   236  119  240 1    
   237  120  121 1    
   238  120  124 1    
   239  120  241 1    
   240  121  122 am   BACKBONE|DICT|INTERRES
   241  121  123 2    
   242  122  242 1    
   243  122  243 1    
   244  124  125 1    
   245  124  244 1    
   246  124  245 1    
   247  125  126 1    
   248  126  246 1    
   249  126  247 1    
@<TRIPOS>SUBSTRUCTURE
     1 UNK         1 GROUP             0       ****    0 ROOT    
