@<TRIPOS>MOLECULE
3R540
247   249    1
SMALL
USER_CHARGES


@<TRIPOS>ATOM
      1 CA         -3.1161  -11.8046  -48.1951 C.3       0 UNK        -0.1800 
      2 C          -1.9075  -11.9916  -47.2899 C.2       0 UNK         0.5000 
      3 O          -1.8512  -11.4026  -46.2097 O.2       0 UNK        -0.5000 
      4 N          -0.9469  -12.8263  -47.7113 N.am      1 UNK        -0.5000 
      5 CA          0.3009  -13.1115  -46.9878 C.3       1 UNK         0.1400 
      6 C6          1.3507  -13.8167  -47.8772 C.3       23 UNK        -0.0398 
      7 S7          0.8428  -15.4458  -48.5306 S.3       23 UNK        -0.2404 
      8 C8          2.4267  -15.9400  -49.2761 C.3       23 UNK        -0.0205 
      9 C9          2.3662  -17.3037  -49.9464 C.ar      23 UNK        -0.0193 
     10 C10         1.6094  -17.4802  -51.1082 C.ar      23 UNK        -0.1150 
     11 C11         1.6212  -18.7035  -51.7835 C.ar      23 UNK        -0.0193 
     12 C12         2.3967  -19.7551  -51.2891 C.ar      23 UNK        -0.1150 
     13 C13         3.1519  -19.5949  -50.1241 C.ar      23 UNK        -0.0193 
     14 C14         3.1253  -18.3691  -49.4510 C.ar      23 UNK        -0.1150 
     15 C15         4.0374  -20.7297  -49.6279 C.3       23 UNK        -0.0205 
     16 S16         3.0792  -22.1718  -49.0701 S.3       23 UNK        -0.2404 
     17 C17         2.3469  -21.5286  -47.5315 C.3       23 UNK        -0.0398 
     18 CA          1.0824  -22.3106  -47.1075 C.3       11 UNK         0.1400 
     19 N           0.8099  -22.1527  -45.6773 N.am      11 UNK        -0.5000 
     20 C          -0.1033  -22.8503  -44.9885 C.2       10 UNK         0.5000 
     21 O          -0.7939  -23.7436  -45.4770 O.2       10 UNK        -0.5000 
     22 CA         -0.3153  -22.4491  -43.5173 C.3       10 UNK         0.1400 
     23 CB          0.7519  -23.0855  -42.6147 C.3       10 UNK        -0.1800 
     24 N          -0.3202  -20.9985  -43.3265 N.am      10 UNK        -0.5000 
     25 C          -1.2166  -20.1646  -43.8720 C.2       9 UNK         0.5000 
     26 O          -2.1675  -20.5343  -44.5580 O.2       9 UNK        -0.5000 
     27 CA         -0.9844  -18.6606  -43.6617 C.3       9 UNK         0.1400 
     28 CB         -1.4371  -18.2341  -42.2560 C.3       9 UNK        -0.1800 
     29 N           0.4083  -18.2701  -43.8911 N.am      9 UNK        -0.5000 
     30 C           1.0510  -18.4046  -45.0619 C.2       8 UNK         0.5000 
     31 O           0.5199  -18.8229  -46.0892 O.2       8 UNK        -0.5000 
     32 CA          2.5575  -18.0923  -45.0718 C.3       8 UNK         0.1400 
     33 CB          2.8222  -16.5932  -45.2575 C.3       8 UNK        -0.1800 
     34 N           3.2179  -18.5581  -43.8546 N.am      8 UNK        -0.5000 
     35 C           3.3876  -19.8481  -43.5337 C.2       7 UNK         0.5000 
     36 O           3.0579  -20.7837  -44.2622 O.2       7 UNK        -0.5000 
     37 CA          3.9728  -20.1320  -42.1387 C.3       7 UNK         0.1400 
     38 CB          5.5037  -20.0101  -42.1554 C.3       7 UNK        -0.1800 
     39 N           3.4226  -19.2346  -41.1203 N.am      7 UNK        -0.5000 
     40 C           2.1412  -19.2397  -40.7249 C.2       6 UNK         0.5000 
     41 O           1.3099  -20.0505  -41.1305 O.2       6 UNK        -0.5000 
     42 CA          1.7060  -18.1295  -39.7498 C.3       6 UNK         0.1400 
     43 CB          1.8737  -18.5941  -38.2958 C.3       6 UNK        -0.1800 
     44 N           2.4403  -16.8771  -39.9477 N.am      6 UNK        -0.5000 
     45 C           2.3300  -16.0923  -41.0275 C.2       5 UNK         0.5000 
     46 O           1.5810  -16.3298  -41.9773 O.2       5 UNK        -0.5000 
     47 CA          3.2777  -14.8895  -41.0812 C.3       5 UNK         0.1400 
     48 CB          4.6044  -15.2896  -41.7551 C.3       5 UNK        -0.1800 
     49 N           2.6639  -13.7794  -41.8064 N.am      5 UNK        -0.5000 
     50 C           3.0448  -12.5010  -41.6770 C.2       4 UNK         0.5000 
     51 O           3.9349  -12.1319  -40.9090 O.2       4 UNK        -0.5000 
     52 CA          2.3283  -11.4487  -42.5385 C.3       4 UNK         0.1400 
     53 CB          3.0095  -11.3192  -43.9108 C.3       4 UNK        -0.1800 
     54 N           0.9074  -11.7425  -42.7200 N.am      4 UNK        -0.5000 
     55 C          -0.0554  -11.3540  -41.8703 C.2       3 UNK         0.5000 
     56 O           0.1707  -10.7505  -40.8205 O.2       3 UNK        -0.5000 
     57 CA         -1.5191  -11.6551  -42.2542 C.3       3 UNK         0.1400 
     58 CB         -2.1981  -10.3909  -42.8036 C.3       3 UNK        -0.1800 
     59 N          -1.6440  -12.7220  -43.2453 N.am      3 UNK        -0.5000 
     60 C          -1.5265  -14.0273  -42.9646 C.2       2 UNK         0.5000 
     61 O          -1.3962  -14.4660  -41.8224 O.2       2 UNK        -0.5000 
     62 CA         -1.5319  -15.0053  -44.1580 C.3       2 UNK         0.1400 
     63 CB         -2.9339  -15.6029  -44.3544 C.3       2 UNK        -0.1800 
     64 N          -1.0970  -14.4085  -45.4209 N.am      2 UNK        -0.5000 
     65 C           0.0960  -13.8388  -45.6405 C.2       1 UNK         0.5000 
     66 O           0.9944  -13.8149  -44.8003 O.2       1 UNK        -0.5000 
     67 C          -0.1447  -21.9495  -47.9739 C.2       11 UNK         0.5000 
     68 O          -0.5145  -22.7236  -48.8575 O.2       11 UNK        -0.5000 
     69 N          -0.7888  -20.8133  -47.6699 N.am      12 UNK        -0.5000 
     70 CA         -2.0218  -20.3681  -48.3172 C.3       12 UNK         0.1400 
     71 CB         -2.3605  -18.9388  -47.8689 C.3       12 UNK        -0.1800 
     72 C          -3.2003  -21.3232  -48.0569 C.2       12 UNK         0.5000 
     73 O          -3.9368  -21.6365  -48.9916 O.2       12 UNK        -0.5000 
     74 N          -3.3411  -21.8022  -46.8124 N.am      13 UNK        -0.5000 
     75 CA         -4.3477  -22.7830  -46.3998 C.3       13 UNK         0.1400 
     76 CB         -4.3260  -22.9475  -44.8736 C.3       13 UNK        -0.1800 
     77 C          -4.1809  -24.1446  -47.0973 C.2       13 UNK         0.5000 
     78 O          -5.1780  -24.7277  -47.5230 O.2       13 UNK        -0.5000 
     79 N          -2.9303  -24.6007  -47.2609 N.am      14 UNK        -0.5000 
     80 CA         -2.5739  -25.8000  -48.0270 C.3       14 UNK         0.1400 
     81 CB         -1.0861  -26.1204  -47.8194 C.3       14 UNK        -0.1800 
     82 C          -2.9049  -25.6775  -49.5288 C.2       14 UNK         0.5000 
     83 O          -3.2169  -26.6830  -50.1666 O.2       14 UNK        -0.5000 
     84 N          -2.8884  -24.4432  -50.0477 N.am      15 UNK        -0.5000 
     85 CA         -3.3375  -24.0686  -51.3882 C.3       15 UNK         0.1400 
     86 CB         -2.4708  -22.9002  -51.8876 C.3       15 UNK        -0.1800 
     87 C          -4.8468  -23.7332  -51.4419 C.2       15 UNK         0.5000 
     88 O          -5.2847  -23.0820  -52.3908 O.2       15 UNK        -0.5000 
     89 N          -5.6170  -24.1637  -50.4298 N.am      16 UNK        -0.5000 
     90 CA         -7.0691  -24.0128  -50.2834 C.3       16 UNK         0.1400 
     91 CB         -7.8109  -24.8284  -51.3633 C.3       16 UNK        -0.1800 
     92 C          -7.5169  -22.5385  -50.2116 C.2       16 UNK         0.5000 
     93 O          -8.4901  -22.1542  -50.8596 O.2       16 UNK        -0.5000 
     94 N          -6.7749  -21.7442  -49.4269 N.am      17 UNK        -0.5000 
     95 CA         -6.8675  -20.2862  -49.2873 C.3       17 UNK         0.1400 
     96 CB         -8.2532  -19.8395  -48.7749 C.3       17 UNK        -0.1800 
     97 C          -6.4166  -19.5695  -50.5762 C.2       17 UNK         0.5000 
     98 O          -7.0537  -18.6094  -51.0128 O.2       17 UNK        -0.5000 
     99 N          -5.3144  -20.0729  -51.1534 N.am      18 UNK        -0.5000 
    100 CA        -4.6668  -19.6319  -52.3935 C.3       18 UNK         0.1400 
    101 CB        -4.0192  -18.2456  -52.1959 C.3       18 UNK        -0.1800 
    102 C         -5.5901  -19.6994  -53.6316 C.2       18 UNK         0.5000 
    103 O         -5.5110  -18.8426  -54.5145 O.2       18 UNK        -0.5000 
    104 N         -6.4520  -20.7220  -53.6817 N.am      19 UNK        -0.5000 
    105 CA        -7.4402  -20.9405  -54.7340 C.3       19 UNK         0.1400 
    106 CB        -8.6423  -21.6948  -54.1431 C.3       19 UNK        -0.1800 
    107 C         -6.8034  -21.6907  -55.9149 C.2       19 UNK         0.5000 
    108 O         -6.9363  -22.9114  -56.0172 O.2       19 UNK        -0.5000 
    109 N         -6.0787  -20.9448  -56.7605 N.am      20 UNK        -0.5000 
    110 CA        -5.3776  -21.3508  -57.9903 C.3       20 UNK         0.1400 
    111 CB        -6.3484  -21.9635  -59.0175 C.3       20 UNK        -0.1800 
    112 C         -4.1527  -22.2630  -57.7739 C.2       20 UNK         0.5000 
    113 O         -3.1627  -22.1199  -58.4929 O.2       20 UNK        -0.5000 
    114 N         -4.2030  -23.1401  -56.7632 N.am      21 UNK        -0.5000 
    115 CA        -3.1314  -24.0493  -56.3419 C.3       21 UNK         0.1400 
    116 CB        -3.6736  -24.9688  -55.2380 C.3       21 UNK        -0.1800 
    117 C         -1.8450  -23.3357  -55.8747 C.2       21 UNK         0.5000 
    118 O         -0.7806  -23.9546  -55.8582 O.2       21 UNK        -0.5000 
    119 N         -1.9632  -22.0457  -55.5351 N.am      22 UNK        -0.5000 
    120 CA        -0.8436  -21.1260  -55.2881 C.3       22 UNK         0.1400 
    121 C         -0.0291  -20.7492  -56.5646 C.2       22 UNK         0.5000 
    122 N         -0.5067  -21.0159  -57.7757 N.am      22 UNK        -0.7600 
    123 O          1.0646  -20.2033  -56.4523 O.2       22 UNK        -0.5000 
    124 C124       -1.3189  -19.8536  -54.5251 C.3       23 UNK        -0.0398 
    125 S125       -0.7059  -19.7971  -52.8099 S.3       23 UNK        -0.2404 
    126 C126        0.8388  -18.8764  -53.0735 C.3       23 UNK        -0.0205 
    127 H127       -4.0251  -12.1037  -47.6733 H         1 UNK         0.0600 
    128 H128       -3.0355  -12.3973  -49.1065 H         1 UNK         0.0600 
    129 H129       -3.2132  -10.7565  -48.4779 H         1 UNK         0.0600 
    130 H130       -1.0527  -13.3033  -48.5960 H         1 UNK         0.3000 
    131 H131        0.7263  -12.1406  -46.7237 H         1 UNK         0.0600 
    132 H132        1.5904  -13.1747  -48.7260 H         1 UNK         0.0800 
    133 H133        2.2862  -13.9320  -47.3263 H         1 UNK         0.0800 
    134 H134        2.7202  -15.1965  -50.0187 H         1 UNK         0.0800 
    135 H135        3.2021  -15.9285  -48.5086 H         1 UNK         0.0800 
    136 H136        1.0285  -16.6554  -51.4968 H         1 UNK         0.1150 
    137 H137        2.4195  -20.6984  -51.8171 H         1 UNK         0.1150 
    138 H138        3.7225  -18.2335  -48.5603 H         1 UNK         0.1150 
    139 H139        4.6970  -21.0408  -50.4391 H         1 UNK         0.0800 
    140 H140        4.6878  -20.3948  -48.8183 H         1 UNK         0.0800 
    141 H141        2.1340  -20.4628  -47.6254 H         1 UNK         0.0800 
    142 H142        3.1166  -21.6160  -46.7642 H         1 UNK         0.0800 
    143 H143        1.2798  -23.3743  -47.2592 H         1 UNK         0.0600 
    144 H144        1.3677  -21.4649  -45.1823 H         1 UNK         0.3000 
    145 H145       -1.2908  -22.8278  -43.2066 H         1 UNK         0.0600 
    146 H146        0.5633  -22.8614  -41.5646 H         1 UNK         0.0600 
    147 H147        0.7559  -24.1710  -42.7209 H         1 UNK         0.0600 
    148 H148        1.7526  -22.7275  -42.8571 H         1 UNK         0.0600 
    149 H149        0.4006  -20.6142  -42.7216 H         1 UNK         0.3000 
    150 H150       -1.5931  -18.1313  -44.3953 H         1 UNK         0.0600 
    151 H151       -2.5176  -18.3389  -42.1529 H         1 UNK         0.0600 
    152 H152       -1.1891  -17.1947  -42.0463 H         1 UNK         0.0600 
    153 H153       -0.9810  -18.8440  -41.4778 H         1 UNK         0.0600 
    154 H154        0.9051  -17.8570  -43.1090 H         1 UNK         0.3000 
    155 H155        2.9974  -18.6184  -45.9218 H         1 UNK         0.0600 
    156 H156        2.4595  -16.0088  -44.4132 H         1 UNK         0.0600 
    157 H157        3.8866  -16.3900  -45.3737 H         1 UNK         0.0600 
    158 H158        2.3206  -16.2201  -46.1481 H         1 UNK         0.0600 
    159 H159        3.4782  -17.8534  -43.1823 H         1 UNK         0.3000 
    160 H160        3.7127  -21.1579  -41.8688 H         1 UNK         0.0600 
    161 H161        5.8271  -18.9965  -42.3955 H         1 UNK         0.0600 
    162 H162        5.9394  -20.6789  -42.8989 H         1 UNK         0.0600 
    163 H163        5.9306  -20.2787  -41.1889 H         1 UNK         0.0600 
    164 H164        4.0478  -18.5478  -40.7263 H         1 UNK         0.3000 
    165 H165        0.6467  -17.9305  -39.9233 H         1 UNK         0.0600 
    166 H166        1.4990  -17.8460  -37.5970 H         1 UNK         0.0600 
    167 H167        1.3167  -19.5143  -38.1140 H         1 UNK         0.0600 
    168 H168        2.9188  -18.7892  -38.0518 H         1 UNK         0.0600 
    169 H169        3.0850  -16.6161  -39.2152 H         1 UNK         0.3000 
    170 H170        3.4770  -14.5739  -40.0547 H         1 UNK         0.0600 
    171 H171        4.4563  -15.5646  -42.7999 H         1 UNK         0.0600 
    172 H172        5.3265  -14.4737  -41.7265 H         1 UNK         0.0600 
    173 H173        5.0640  -16.1407  -41.2512 H         1 UNK         0.0600 
    174 H174        1.9166  -14.0301  -42.4432 H         1 UNK         0.3000 
    175 H175        2.4283  -10.4843  -42.0353 H         1 UNK         0.0600 
    176 H176        2.4974  -10.5918  -44.5408 H         1 UNK         0.0600 
    177 H177        3.0370  -12.2685  -44.4456 H         1 UNK         0.0600 
    178 H178        4.0410  -10.9831  -43.7988 H         1 UNK         0.0600 
    179 H179        0.6652  -12.3026  -43.5292 H         1 UNK         0.3000 
    180 H180       -2.0449  -11.9541  -41.3449 H         1 UNK         0.0600 
    181 H181       -1.7119  -10.0372  -43.7138 H         1 UNK         0.0600 
    182 H182       -2.1629   -9.5794  -42.0756 H         1 UNK         0.0600 
    183 H183       -3.2476  -10.5749  -43.0342 H         1 UNK         0.0600 
    184 H184       -1.7526  -12.4331  -44.2105 H         1 UNK         0.3000 
    185 H185       -0.8282  -15.8030  -43.9233 H         1 UNK         0.0600 
    186 H186       -3.2720  -16.1137  -43.4520 H         1 UNK         0.0600 
    187 H187       -3.6683  -14.8308  -44.5874 H         1 UNK         0.0600 
    188 H188       -2.9473  -16.3303  -45.1662 H         1 UNK         0.0600 
    189 H189       -1.7782  -14.3731  -46.1647 H         1 UNK         0.3000 
    190 H190       -0.4018  -20.1993  -46.9566 H         1 UNK         0.3000 
    191 H191       -1.8428  -20.3490  -49.3946 H         1 UNK         0.0600 
    192 H192       -1.5556  -18.2475  -48.1211 H         1 UNK         0.0600 
    193 H193       -3.2652  -18.5794  -48.3609 H         1 UNK         0.0600 
    194 H194       -2.5235  -18.8810  -46.7923 H         1 UNK         0.0600 
    195 H195       -2.7297  -21.4486  -46.0797 H         1 UNK         0.3000 
    196 H196       -5.3260  -22.3873  -46.6799 H         1 UNK         0.0600 
    197 H197       -5.0832  -23.6610  -44.5462 H         1 UNK         0.0600 
    198 H198       -4.5331  -22.0018  -44.3726 H         1 UNK         0.0600 
    199 H199       -3.3600  -23.3087  -44.5213 H         1 UNK         0.0600 
    200 H200       -2.1627  -24.0937  -46.8288 H         1 UNK         0.3000 
    201 H201       -3.1579  -26.6328  -47.6302 H         1 UNK         0.0600 
    202 H202       -0.8620  -26.2849  -46.7654 H         1 UNK         0.0600 
    203 H203       -0.4459  -25.3130  -48.1749 H         1 UNK         0.0600 
    204 H204       -0.8024  -27.0257  -48.3574 H         1 UNK         0.0600 
    205 H205       -2.5965  -23.6794  -49.4504 H         1 UNK         0.3000 
    206 H206       -3.1796  -24.9097  -52.0657 H         1 UNK         0.0600 
    207 H207       -1.4155  -23.1731  -51.9078 H         1 UNK         0.0600 
    208 H208       -2.7451  -22.6066  -52.9001 H         1 UNK         0.0600 
    209 H209       -2.5710  -22.0210  -51.2521 H         1 UNK         0.0600 
    210 H210       -5.1621  -24.6330  -49.6562 H         1 UNK         0.3000 
    211 H211       -7.3251  -24.4485  -49.3168 H         1 UNK         0.0600 
    212 H212       -7.6079  -24.4554  -52.3669 H         1 UNK         0.0600 
    213 H213       -8.8902  -24.7911  -51.2116 H         1 UNK         0.0600 
    214 H214       -7.5166  -25.8773  -51.3326 H         1 UNK         0.0600 
    215 H215       -5.9413  -22.1492  -49.0169 H         1 UNK         0.3000 
    216 H216       -6.1415  -20.0105  -48.5212 H         1 UNK         0.0600 
    217 H217       -8.2472  -18.7793  -48.5201 H         1 UNK         0.0600 
    218 H218       -8.5371  -20.3876  -47.8766 H         1 UNK         0.0600 
    219 H219       -9.0345  -19.9868  -49.5207 H         1 UNK         0.0600 
    220 H220       -4.8716  -20.8550  -50.6840 H         1 UNK         0.3000 
    221 H221       -3.8649  -20.3450  -52.5821 H         1 UNK         0.0600 
    222 H222       -4.7665  -17.4697  -52.0286 H         1 UNK         0.0600 
    223 H223       -3.3396  -18.2482  -51.3434 H         1 UNK         0.0600 
    224 H224       -3.4363  -17.9540  -53.0700 H         1 UNK         0.0600 
    225 H225       -6.3707  -21.4524  -52.9814 H         1 UNK         0.3000 
    226 H226       -7.8055  -19.9782  -55.0993 H         1 UNK         0.0600 
    227 H227       -9.1233  -21.1107  -53.3584 H         1 UNK         0.0600 
    228 H228       -9.3941  -21.8948  -54.9074 H         1 UNK         0.0600 
    229 H229       -8.3468  -22.6515  -53.7124 H         1 UNK         0.0600 
    230 H230       -5.9738  -19.9667  -56.5184 H         1 UNK         0.3000 
    231 H231       -4.9938  -20.4249  -58.4218 H         1 UNK         0.0600 
    232 H232       -6.7571  -22.9155  -58.6777 H         1 UNK         0.0600 
    233 H233       -5.8428  -22.1490  -59.9660 H         1 UNK         0.0600 
    234 H234       -7.1830  -21.2925  -59.2206 H         1 UNK         0.0600 
    235 H235       -5.0844  -23.2086  -56.2615 H         1 UNK         0.3000 
    236 H236       -2.8625  -24.6657  -57.2018 H         1 UNK         0.0600 
    237 H237       -4.5049  -25.5729  -55.6018 H         1 UNK         0.0600 
    238 H238       -2.9048  -25.6547  -54.8796 H         1 UNK         0.0600 
    239 H239       -4.0294  -24.3942  -54.3839 H         1 UNK         0.0600 
    240 H240       -2.8808  -21.6329  -55.5946 H         1 UNK         0.3000 
    241 H241       -0.1340  -21.6682  -54.6598 H         1 UNK         0.0600 
    242 H242       -1.4109  -21.4576  -57.9089 H         1 UNK         0.3800 
    243 H243        0.0414  -20.7653  -58.5833 H         1 UNK         0.3800 
    244 H244       -1.0247  -18.9294  -55.0269 H         1 UNK         0.0800 
    245 H245       -2.4071  -19.8035  -54.4897 H         1 UNK         0.0800 
    246 H246        1.4562  -19.4046  -53.8016 H         1 UNK         0.0800 
    247 H247        0.6107  -17.9032  -53.5112 H         1 UNK         0.0800 
@<TRIPOS>BOND
     1    1    2 1    
     2    1  127 1    
     3    1  128 1    
     4    1  129 1    
     5    2    3 2    
     6    2    4 am   BACKBONE|DICT|INTERRES
     7    4    5 1    
     8    4  130 1    
     9    5    6 1    
    10    5   65 1    
    11    5  131 1    
    12    6    7 1    
    13    6  132 1    
    14    6  133 1    
    15    7    8 1    
    16    8    9 1    
    17    8  134 1    
    18    8  135 1    
    19    9   10 ar   
    20    9   14 ar   
    21   10   11 ar   
    22   10  136 1    
    23   11   12 ar   
    24   11  126 1    
    25   12   13 ar   
    26   12  137 1    
    27   13   14 ar   
    28   13   15 1    
    29   14  138 1    
    30   15   16 1    
    31   15  139 1    
    32   15  140 1    
    33   16   17 1    
    34   17   18 1    
    35   17  141 1    
    36   17  142 1    
    37   18   19 1    
    38   18   67 1    
    39   18  143 1    
    40   19   20 am   BACKBONE|DICT|INTERRES
    41   19  144 1    
    42   20   21 2    
    43   20   22 1    
    44   22   23 1    
    45   22   24 1    
    46   22  145 1    
    47   23  146 1    
    48   23  147 1    
    49   23  148 1    
    50   24   25 am   BACKBONE|DICT|INTERRES
    51   24  149 1    
    52   25   26 2    
    53   25   27 1    
    54   27   28 1    
    55   27   29 1    
    56   27  150 1    
    57   28  151 1    
    58   28  152 1    
    59   28  153 1    
    60   29   30 am   BACKBONE|DICT|INTERRES
    61   29  154 1    
    62   30   31 2    
    63   30   32 1    
    64   32   33 1    
    65   32   34 1    
    66   32  155 1    
    67   33  156 1    
    68   33  157 1    
    69   33  158 1    
    70   34   35 am   BACKBONE|DICT|INTERRES
    71   34  159 1    
    72   35   36 2    
    73   35   37 1    
    74   37   38 1    
    75   37   39 1    
    76   37  160 1    
    77   38  161 1    
    78   38  162 1    
    79   38  163 1    
    80   39   40 am   BACKBONE|DICT|INTERRES
    81   39  164 1    
    82   40   41 2    
    83   40   42 1    
    84   42   43 1    
    85   42   44 1    
    86   42  165 1    
    87   43  166 1    
    88   43  167 1    
    89   43  168 1    
    90   44   45 am   BACKBONE|DICT|INTERRES
    91   44  169 1    
    92   45   46 2    
    93   45   47 1    
    94   47   48 1    
    95   47   49 1    
    96   47  170 1    
    97   48  171 1    
    98   48  172 1    
    99   48  173 1    
   100   49   50 am   BACKBONE|DICT|INTERRES
   101   49  174 1    
   102   50   51 2    
   103   50   52 1    
   104   52   53 1    
   105   52   54 1    
   106   52  175 1    
   107   53  176 1    
   108   53  177 1    
   109   53  178 1    
   110   54   55 am   BACKBONE|DICT|INTERRES
   111   54  179 1    
   112   55   56 2    
   113   55   57 1    
   114   57   58 1    
   115   57   59 1    
   116   57  180 1    
   117   58  181 1    
   118   58  182 1    
   119   58  183 1    
   120   59   60 am   BACKBONE|DICT|INTERRES
   121   59  184 1    
   122   60   61 2    
   123   60   62 1    
   124   62   63 1    
   125   62   64 1    
   126   62  185 1    
   127   63  186 1    
   128   63  187 1    
   129   63  188 1    
   130   64   65 am   BACKBONE|DICT|INTERRES
   131   64  189 1    
   132   65   66 2    
   133   67   68 2    
   134   67   69 am   BACKBONE|DICT|INTERRES
   135   69   70 1    
   136   69  190 1    
   137   70   71 1    
   138   70   72 1    
   139   70  191 1    
   140   71  192 1    
   141   71  193 1    
   142   71  194 1    
   143   72   73 2    
   144   72   74 am   BACKBONE|DICT|INTERRES
   145   74   75 1    
   146   74  195 1    
   147   75   76 1    
   148   75   77 1    
   149   75  196 1    
   150   76  197 1    
   151   76  198 1    
   152   76  199 1    
   153   77   78 2    
   154   77   79 am   BACKBONE|DICT|INTERRES
   155   79   80 1    
   156   79  200 1    
   157   80   81 1    
   158   80   82 1    
   159   80  201 1    
   160   81  202 1    
   161   81  203 1    
   162   81  204 1    
   163   82   83 2    
   164   82   84 am   BACKBONE|DICT|INTERRES
   165   84   85 1    
   166   84  205 1    
   167   85   86 1    
   168   85   87 1    
   169   85  206 1    
   170   86  207 1    
   171   86  208 1    
   172   86  209 1    
   173   87   88 2    
   174   87   89 am   BACKBONE|DICT|INTERRES
   175   89   90 1    
   176   89  210 1    
   177   90   91 1    
   178   90   92 1    
   179   90  211 1    
   180   91  212 1    
   181   91  213 1    
   182   91  214 1    
   183   92   93 2    
   184   92   94 am   BACKBONE|DICT|INTERRES
   185   94   95 1    
   186   94  215 1    
   187   95   96 1    
   188   95   97 1    
   189   95  216 1    
   190   96  217 1    
   191   96  218 1    
   192   96  219 1    
   193   97   98 2    
   194   97   99 am   BACKBONE|DICT|INTERRES
   195   99  100 1    
   196   99  220 1    
   197  100  101 1    
   198  100  102 1    
   199  100  221 1    
   200  101  222 1    
   201  101  223 1    
   202  101  224 1    
   203  102  103 2    
   204  102  104 am   BACKBONE|DICT|INTERRES
   205  104  105 1    
   206  104  225 1    
   207  105  106 1    
   208  105  107 1    
   209  105  226 1    
   210  106  227 1    
   211  106  228 1    
   212  106  229 1    
   213  107  108 2    
   214  107  109 am   BACKBONE|DICT|INTERRES
   215  109  110 1    
   216  109  230 1    
   217  110  111 1    
   218  110  112 1    
   219  110  231 1    
   220  111  232 1    
   221  111  233 1    
   222  111  234 1    
   223  112  113 2    
   224  112  114 am   BACKBONE|DICT|INTERRES
   225  114  115 1    
   226  114  235 1    
   227  115  116 1    
   228  115  117 1    
   229  115  236 1    
   230  116  237 1    
   231  116  238 1    
   232  116  239 1    
   233  117  118 2    
   234  117  119 am   BACKBONE|DICT|INTERRES
   235  119  120 1    
   236  119  240 1    
   237  120  121 1    
   238  120  124 1    
   239  120  241 1    
   240  121  122 am   BACKBONE|DICT|INTERRES
   241  121  123 2    
   242  122  242 1    
   243  122  243 1    
   244  124  125 1    
   245  124  244 1    
   246  124  245 1    
   247  125  126 1    
   248  126  246 1    
   249  126  247 1    
@<TRIPOS>SUBSTRUCTURE
     1 UNK         1 GROUP             0       ****    0 ROOT    
