@<TRIPOS>MOLECULE
3R540
247   249    1
SMALL
USER_CHARGES


@<TRIPOS>ATOM
      1 CA         -2.8285  -15.1965  -49.5433 C.3       0 UNK        -0.1800 
      2 C          -2.0109  -15.0499  -48.2695 C.2       0 UNK         0.5000 
      3 O          -0.8044  -14.8166  -48.3434 O.2       0 UNK        -0.5000 
      4 N          -2.6631  -15.1631  -47.1041 N.am      1 UNK        -0.5000 
      5 CA         -2.0395  -15.1308  -45.7745 C.3       1 UNK         0.1400 
      6 C6         -3.0454  -15.3924  -44.6227 C.3       23 UNK        -0.0398 
      7 S7         -4.2043  -16.7758  -44.8892 S.3       23 UNK        -0.2404 
      8 C8         -3.1684  -18.2433  -44.5891 C.3       23 UNK        -0.0205 
      9 C9         -2.4351  -18.6795  -45.8497 C.ar      23 UNK        -0.0193 
     10 C10        -3.1644  -19.1136  -46.9602 C.ar      23 UNK        -0.1150 
     11 C11        -2.5149  -19.4850  -48.1396 C.ar      23 UNK        -0.0193 
     12 C12        -1.1214  -19.4232  -48.2024 C.ar      23 UNK        -0.1150 
     13 C13        -0.3782  -19.0023  -47.0973 C.ar      23 UNK        -0.0193 
     14 C14        -1.0391  -18.6453  -45.9181 C.ar      23 UNK        -0.1150 
     15 C15         1.1348  -18.8861  -47.1989 C.3       23 UNK        -0.0205 
     16 S16         1.9670  -20.4827  -47.4484 S.3       23 UNK        -0.2404 
     17 C17         1.6097  -21.3514  -45.8891 C.3       23 UNK        -0.0398 
     18 CA          1.0125  -22.7646  -46.0966 C.3       11 UNK         0.1400 
     19 N           1.0969  -23.5562  -44.8675 N.am      11 UNK        -0.5000 
     20 C           0.8635  -24.8730  -44.7759 C.2       10 UNK         0.5000 
     21 O           0.5955  -25.5933  -45.7371 O.2       10 UNK        -0.5000 
     22 CA          0.8836  -25.4684  -43.3560 C.3       10 UNK         0.1400 
     23 CB          2.3203  -25.8020  -42.9278 C.3       10 UNK        -0.1800 
     24 N           0.2777  -24.5699  -42.3699 N.am      10 UNK        -0.5000 
     25 C          -1.0232  -24.2452  -42.3469 C.2       9 UNK         0.5000 
     26 O          -1.8542  -24.7162  -43.1209 O.2       9 UNK        -0.5000 
     27 CA         -1.4619  -23.1837  -41.3219 C.3       9 UNK         0.1400 
     28 CB         -1.8433  -23.8456  -39.9897 C.3       9 UNK        -0.1800 
     29 N          -0.4433  -22.1581  -41.0821 N.am      9 UNK        -0.5000 
     30 C          -0.0214  -21.2765  -41.9979 C.2       8 UNK         0.5000 
     31 O          -0.4289  -21.2487  -43.1616 O.2       8 UNK        -0.5000 
     32 CA          1.0968  -20.3190  -41.5504 C.3       8 UNK         0.1400 
     33 CB          2.4718  -20.8859  -41.9355 C.3       8 UNK        -0.1800 
     34 N           0.9618  -18.9801  -42.1219 N.am      8 UNK        -0.5000 
     35 C           0.0166  -18.0946  -41.7785 C.2       7 UNK         0.5000 
     36 O          -0.8945  -18.3492  -40.9889 O.2       7 UNK        -0.5000 
     37 CA          0.1219  -16.6835  -42.4062 C.3       7 UNK         0.1400 
     38 CB         -0.5763  -15.6019  -41.5560 C.3       7 UNK        -0.1800 
     39 N           1.4911  -16.2592  -42.7292 N.am      7 UNK        -0.5000 
     40 C           2.5348  -16.1635  -41.8883 C.2       6 UNK         0.5000 
     41 O           2.5032  -16.4831  -40.6997 O.2       6 UNK        -0.5000 
     42 CA          3.8411  -15.6075  -42.4851 C.3       6 UNK         0.1400 
     43 CB          4.6535  -16.7363  -43.1389 C.3       6 UNK        -0.1800 
     44 N           3.6163  -14.5479  -43.4696 N.am      6 UNK        -0.5000 
     45 C           3.0981  -13.3410  -43.2068 C.2       5 UNK         0.5000 
     46 O           2.7793  -12.9729  -42.0756 O.2       5 UNK        -0.5000 
     47 CA          2.8807  -12.3791  -44.3921 C.3       5 UNK         0.1400 
     48 CB          4.0200  -11.3477  -44.4934 C.3       5 UNK        -0.1800 
     49 N           2.6327  -13.0295  -45.6851 N.am      5 UNK        -0.5000 
     50 C           3.4608  -13.7375  -46.4659 C.2       4 UNK         0.5000 
     51 O           4.6212  -14.0146  -46.1640 O.2       4 UNK        -0.5000 
     52 CA          2.8807  -14.2543  -47.7958 C.3       4 UNK         0.1400 
     53 CB          2.4183  -15.7078  -47.6442 C.3       4 UNK        -0.1800 
     54 N           1.7529  -13.4537  -48.2721 N.am      4 UNK        -0.5000 
     55 C           1.8626  -12.2327  -48.8130 C.2       3 UNK         0.5000 
     56 O           2.9366  -11.6794  -49.0514 O.2       3 UNK        -0.5000 
     57 CA          0.5439  -11.4932  -49.0935 C.3       3 UNK         0.1400 
     58 CB         -0.1048  -11.9914  -50.3947 C.3       3 UNK        -0.1800 
     59 N          -0.3994  -11.6393  -47.9836 N.am      3 UNK        -0.5000 
     60 C          -0.2789  -11.0200  -46.8003 C.2       2 UNK         0.5000 
     61 O           0.6223  -10.2255  -46.5331 O.2       2 UNK        -0.5000 
     62 CA         -1.3331  -11.3470  -45.7275 C.3       2 UNK         0.1400 
     63 CB         -2.4739  -10.3190  -45.7651 C.3       2 UNK        -0.1800 
     64 N          -1.8957  -12.6893  -45.8747 N.am      2 UNK        -0.5000 
     65 C          -1.2758  -13.8188  -45.5056 C.2       1 UNK         0.5000 
     66 O          -0.1546  -13.8555  -44.9990 O.2       1 UNK        -0.5000 
     67 C          -0.4345  -22.7266  -46.6298 C.2       11 UNK         0.5000 
     68 O          -0.6463  -22.9199  -47.8285 O.2       11 UNK        -0.5000 
     69 N          -1.3977  -22.5448  -45.7144 N.am      12 UNK        -0.5000 
     70 CA         -2.8326  -22.5766  -45.9887 C.3       12 UNK         0.1400 
     71 CB         -3.6017  -22.1254  -44.7381 C.3       12 UNK        -0.1800 
     72 C          -3.3203  -23.9553  -46.4640 C.2       12 UNK         0.5000 
     73 O          -4.0617  -24.0265  -47.4435 O.2       12 UNK        -0.5000 
     74 N          -2.8764  -25.0212  -45.7826 N.am      13 UNK        -0.5000 
     75 CA         -3.1985  -26.4137  -46.1010 C.3       13 UNK         0.1400 
     76 CB         -2.6841  -27.3290  -44.9796 C.3       13 UNK        -0.1800 
     77 C          -2.6444  -26.8623  -47.4648 C.2       13 UNK         0.5000 
     78 O          -3.3416  -27.5566  -48.2056 O.2       13 UNK        -0.5000 
     79 N          -1.4136  -26.4383  -47.7817 N.am      14 UNK        -0.5000 
     80 CA         -0.7699  -26.6677  -49.0760 C.3       14 UNK         0.1400 
     81 CB          0.7388  -26.4178  -48.9263 C.3       14 UNK        -0.1800 
     82 C          -1.3408  -25.7846  -50.2035 C.2       14 UNK         0.5000 
     83 O          -1.1809  -26.1301  -51.3746 O.2       14 UNK        -0.5000 
     84 N          -1.9552  -24.6520  -49.8281 N.am      15 UNK        -0.5000 
     85 CA         -2.3940  -23.5406  -50.6780 C.3       15 UNK         0.1400 
     86 CB         -3.5686  -23.9561  -51.5853 C.3       15 UNK        -0.1800 
     87 C          -1.2120  -22.9181  -51.4516 C.2       15 UNK         0.5000 
     88 O          -1.3375  -22.5775  -52.6294 O.2       15 UNK        -0.5000 
     89 N          -0.0651  -22.7986  -50.7677 N.am      16 UNK        -0.5000 
     90 CA          1.2471  -22.5101  -51.3555 C.3       16 UNK         0.1400 
     91 CB          2.3453  -22.9271  -50.3658 C.3       16 UNK        -0.1800 
     92 C           1.4388  -21.0704  -51.8778 C.2       16 UNK         0.5000 
     93 O           2.4681  -20.7864  -52.4917 O.2       16 UNK        -0.5000 
     94 N           0.4337  -20.2038  -51.6886 N.am      17 UNK        -0.5000 
     95 CA          0.3113  -18.9141  -52.3753 C.3       17 UNK         0.1400 
     96 CB         -0.7609  -18.0649  -51.6761 C.3       17 UNK        -0.1800 
     97 C          -0.0184  -19.0673  -53.8777 C.2       17 UNK         0.5000 
     98 O           0.1958  -18.1227  -54.6369 O.2       17 UNK        -0.5000 
     99 N          -0.5311  -20.2450  -54.2734 N.am      18 UNK        -0.5000 
    100 CA        -0.8295  -20.7038  -55.6362 C.3       18 UNK         0.1400 
    101 CB         0.4267  -20.6566  -56.5305 C.3       18 UNK        -0.1800 
    102 C         -2.0472  -20.0353  -56.3074 C.2       18 UNK         0.5000 
    103 O         -2.3644  -20.3792  -57.4476 O.2       18 UNK        -0.5000 
    104 N         -2.7363  -19.1308  -55.6007 N.am      19 UNK        -0.5000 
    105 CA        -4.0173  -18.5654  -56.0168 C.3       19 UNK         0.1400 
    106 CB        -4.2656  -17.2534  -55.2568 C.3       19 UNK        -0.1800 
    107 C         -5.1411  -19.5801  -55.7486 C.2       19 UNK         0.5000 
    108 O         -5.1844  -20.1610  -54.6623 O.2       19 UNK        -0.5000 
    109 N         -6.0401  -19.7625  -56.7241 N.am      20 UNK        -0.5000 
    110 CA        -7.1235  -20.7534  -56.6897 C.3       20 UNK         0.1400 
    111 CB        -7.8090  -20.7905  -58.0643 C.3       20 UNK        -0.1800 
    112 C         -8.1647  -20.5233  -55.5755 C.2       20 UNK         0.5000 
    113 O         -8.8055  -21.4787  -55.1364 O.2       20 UNK        -0.5000 
    114 N         -8.3070  -19.2669  -55.1354 N.am      21 UNK        -0.5000 
    115 CA        -9.1845  -18.8603  -54.0381 C.3       21 UNK         0.1400 
    116 CB        -9.5244  -17.3714  -54.2150 C.3       21 UNK        -0.1800 
    117 C         -8.5775  -19.1106  -52.6415 C.2       21 UNK         0.5000 
    118 O         -9.3073  -19.0219  -51.6529 O.2       21 UNK        -0.5000 
    119 N         -7.2664  -19.3791  -52.5677 N.am      22 UNK        -0.5000 
    120 CA        -6.5313  -19.6000  -51.3153 C.3       22 UNK         0.1400 
    121 C         -6.8334  -20.9842  -50.6779 C.2       22 UNK         0.5000 
    122 N         -6.9150  -21.0612  -49.3566 N.am      22 UNK        -0.7600 
    123 O         -6.9571  -21.9940  -51.3667 O.2       22 UNK        -0.5000 
    124 C124       -5.0083  -19.3866  -51.5193 C.3       23 UNK        -0.0398 
    125 S125       -4.2268  -18.5699  -50.0914 S.3       23 UNK        -0.2404 
    126 C126       -3.3220  -19.9518  -49.3386 C.3       23 UNK        -0.0205 
    127 H127       -3.8708  -15.4351  -49.3306 H         1 UNK         0.0600 
    128 H128       -2.4167  -15.9960  -50.1587 H         1 UNK         0.0600 
    129 H129       -2.7981  -14.2715  -50.1186 H         1 UNK         0.0600 
    130 H130       -3.6499  -15.3792  -47.1094 H         1 UNK         0.3000 
    131 H131       -1.2967  -15.9284  -45.7613 H         1 UNK         0.0600 
    132 H132       -3.6653  -14.5093  -44.4562 H         1 UNK         0.0800 
    133 H133       -2.5175  -15.5592  -43.6845 H         1 UNK         0.0800 
    134 H134       -2.4784  -18.0598  -43.7653 H         1 UNK         0.0800 
    135 H135       -3.8223  -19.0516  -44.2632 H         1 UNK         0.0800 
    136 H136       -4.2437  -19.1477  -46.9114 H         1 UNK         0.1150 
    137 H137       -0.6064  -19.7047  -49.1080 H         1 UNK         0.1150 
    138 H138       -0.4663  -18.3219  -45.0626 H         1 UNK         0.1150 
    139 H139        1.3687  -18.2536  -48.0541 H         1 UNK         0.0800 
    140 H140        1.5537  -18.3930  -46.3205 H         1 UNK         0.0800 
    141 H141        0.9663  -20.7395  -45.2570 H         1 UNK         0.0800 
    142 H142        2.5600  -21.4316  -45.3608 H         1 UNK         0.0800 
    143 H143        1.6188  -23.2797  -46.8451 H         1 UNK         0.0600 
    144 H144        1.2540  -23.0421  -44.0144 H         1 UNK         0.3000 
    145 H145        0.3074  -26.3958  -43.3738 H         1 UNK         0.0600 
    146 H146        2.3373  -26.2904  -41.9533 H         1 UNK         0.0600 
    147 H147        2.7906  -26.4823  -43.6391 H         1 UNK         0.0600 
    148 H148        2.9428  -24.9085  -42.8669 H         1 UNK         0.0600 
    149 H149        0.8933  -24.1504  -41.6893 H         1 UNK         0.3000 
    150 H150       -2.3485  -22.6873  -41.7219 H         1 UNK         0.0600 
    151 H151       -0.9889  -24.3384  -39.5241 H         1 UNK         0.0600 
    152 H152       -2.6174  -24.6002  -40.1368 H         1 UNK         0.0600 
    153 H153       -2.2357  -23.1136  -39.2836 H         1 UNK         0.0600 
    154 H154       -0.0526  -22.1241  -40.1515 H         1 UNK         0.3000 
    155 H155        1.0587  -20.2233  -40.4631 H         1 UNK         0.0600 
    156 H156        2.5892  -20.9617  -43.0160 H         1 UNK         0.0600 
    157 H157        2.6193  -21.8823  -41.5170 H         1 UNK         0.0600 
    158 H158        3.2764  -20.2550  -41.5565 H         1 UNK         0.0600 
    159 H159        1.6663  -18.6976  -42.7853 H         1 UNK         0.3000 
    160 H160       -0.4049  -16.7383  -43.3578 H         1 UNK         0.0600 
    161 H161       -0.1156  -15.5035  -40.5727 H         1 UNK         0.0600 
    162 H162       -1.6298  -15.8369  -41.4004 H         1 UNK         0.0600 
    163 H163       -0.5305  -14.6285  -42.0453 H         1 UNK         0.0600 
    164 H164        1.6355  -15.9398  -43.6766 H         1 UNK         0.3000 
    165 H165        4.4303  -15.1887  -41.6667 H         1 UNK         0.0600 
    166 H166        5.6186  -16.3725  -43.4922 H         1 UNK         0.0600 
    167 H167        4.8504  -17.5395  -42.4274 H         1 UNK         0.0600 
    168 H168        4.1284  -17.1718  -43.9900 H         1 UNK         0.0600 
    169 H169        3.9249  -14.7219  -44.4192 H         1 UNK         0.3000 
    170 H170        1.9642  -11.8299  -44.1707 H         1 UNK         0.0600 
    171 H171        4.1139  -10.7809  -43.5664 H         1 UNK         0.0600 
    172 H172        4.9839  -11.8205  -44.6833 H         1 UNK         0.0600 
    173 H173        3.8317  -10.6324  -45.2942 H         1 UNK         0.0600 
    174 H174        1.6718  -12.9685  -45.9949 H         1 UNK         0.3000 
    175 H175        3.6761  -14.2212  -48.5431 H         1 UNK         0.0600 
    176 H176        1.6055  -15.7973  -46.9217 H         1 UNK         0.0600 
    177 H177        2.0632  -16.0979  -48.5980 H         1 UNK         0.0600 
    178 H178        3.2342  -16.3499  -47.3099 H         1 UNK         0.0600 
    179 H179        0.8274  -13.8648  -48.1711 H         1 UNK         0.3000 
    180 H180        0.7722  -10.4321  -49.2153 H         1 UNK         0.0600 
    181 H181       -0.3525  -13.0520  -50.3473 H         1 UNK         0.0600 
    182 H182        0.5682  -11.8514  -51.2415 H         1 UNK         0.0600 
    183 H183       -1.0207  -11.4426  -50.6139 H         1 UNK         0.0600 
    184 H184       -1.1422  -12.3115  -48.1048 H         1 UNK         0.3000 
    185 H185       -0.8455  -11.2781  -44.7524 H         1 UNK         0.0600 
    186 H186       -2.0913   -9.3061  -45.6319 H         1 UNK         0.0600 
    187 H187       -3.0098  -10.3452  -46.7147 H         1 UNK         0.0600 
    188 H188       -3.1942  -10.5000  -44.9671 H         1 UNK         0.0600 
    189 H189       -2.8109  -12.7560  -46.2966 H         1 UNK         0.3000 
    190 H190       -1.1234  -22.3429  -44.7593 H         1 UNK         0.3000 
    191 H191       -3.0282  -21.8651  -46.7900 H         1 UNK         0.0600 
    192 H192       -3.1657  -21.2238  -44.3118 H         1 UNK         0.0600 
    193 H193       -4.6425  -21.9089  -44.9807 H         1 UNK         0.0600 
    194 H194       -3.5991  -22.8874  -43.9593 H         1 UNK         0.0600 
    195 H195       -2.3200  -24.8667  -44.9456 H         1 UNK         0.3000 
    196 H196       -4.2861  -26.5025  -46.1399 H         1 UNK         0.0600 
    197 H197       -2.9231  -28.3730  -45.1856 H         1 UNK         0.0600 
    198 H198       -3.1399  -27.0739  -44.0228 H         1 UNK         0.0600 
    199 H199       -1.6022  -27.2550  -44.8650 H         1 UNK         0.0600 
    200 H200       -0.8753  -25.9252  -47.0903 H         1 UNK         0.3000 
    201 H201       -0.9188  -27.7110  -49.3620 H         1 UNK         0.0600 
    202 H202        1.2616  -26.5841  -49.8691 H         1 UNK         0.0600 
    203 H203        1.1779  -27.0887  -48.1877 H         1 UNK         0.0600 
    204 H204        0.9448  -25.3940  -48.6107 H         1 UNK         0.0600 
    205 H205       -1.9974  -24.4633  -48.8348 H         1 UNK         0.3000 
    206 H206       -2.7601  -22.7737  -49.9961 H         1 UNK         0.0600 
    207 H207       -4.3836  -24.3829  -51.0006 H         1 UNK         0.0600 
    208 H208       -3.9718  -23.0948  -52.1197 H         1 UNK         0.0600 
    209 H209       -3.2669  -24.6920  -52.3310 H         1 UNK         0.0600 
    210 H210       -0.0815  -23.0225  -49.7771 H         1 UNK         0.3000 
    211 H211        1.3517  -23.1513  -52.2332 H         1 UNK         0.0600 
    212 H212        2.2202  -22.4445  -49.4004 H         1 UNK         0.0600 
    213 H213        3.3384  -22.6725  -50.7378 H         1 UNK         0.0600 
    214 H214        2.3313  -24.0042  -50.2003 H         1 UNK         0.0600 
    215 H215       -0.3731  -20.5319  -51.1817 H         1 UNK         0.3000 
    216 H216        1.2657  -18.3889  -52.2994 H         1 UNK         0.0600 
    217 H217       -0.8741  -17.0966  -52.1652 H         1 UNK         0.0600 
    218 H218       -0.4980  -17.8673  -50.6371 H         1 UNK         0.0600 
    219 H219       -1.7338  -18.5550  -51.6951 H         1 UNK         0.0600 
    220 H220       -0.7109  -20.9462  -53.5602 H         1 UNK         0.3000 
    221 H221       -1.1033  -21.7541  -55.5255 H         1 UNK         0.0600 
    222 H222        0.7271  -19.6336  -56.7575 H         1 UNK         0.0600 
    223 H223        1.2694  -21.1574  -56.0537 H         1 UNK         0.0600 
    224 H224        0.2484  -21.1595  -57.4816 H         1 UNK         0.0600 
    225 H225       -2.4304  -18.9281  -54.6616 H         1 UNK         0.3000 
    226 H226       -3.9807  -18.3406  -57.0850 H         1 UNK         0.0600 
    227 H227       -3.4947  -16.5173  -55.4856 H         1 UNK         0.0600 
    228 H228       -5.2251  -16.8153  -55.5346 H         1 UNK         0.0600 
    229 H229       -4.2717  -17.4014  -54.1774 H         1 UNK         0.0600 
    230 H230       -5.9420  -19.2399  -57.5829 H         1 UNK         0.3000 
    231 H231       -6.6706  -21.7306  -56.5091 H         1 UNK         0.0600 
    232 H232       -8.2572  -19.8285  -58.3162 H         1 UNK         0.0600 
    233 H233       -8.6032  -21.5381  -58.0857 H         1 UNK         0.0600 
    234 H234       -7.1013  -21.0493  -58.8522 H         1 UNK         0.0600 
    235 H235       -7.7451  -18.5445  -55.5608 H         1 UNK         0.3000 
    236 H236      -10.1144  -19.4299  -54.0975 H         1 UNK         0.0600 
    237 H237      -10.0078  -17.1883  -55.1749 H         1 UNK         0.0600 
    238 H238      -10.2103  -17.0308  -53.4382 H         1 UNK         0.0600 
    239 H239       -8.6324  -16.7460  -54.1623 H         1 UNK         0.0600 
    240 H240       -6.7414  -19.5262  -53.4215 H         1 UNK         0.3000 
    241 H241       -6.8902  -18.8352  -50.6229 H         1 UNK         0.0600 
    242 H242       -6.8160  -20.2446  -48.7744 H         1 UNK         0.3800 
    243 H243       -7.0973  -21.9558  -48.9302 H         1 UNK         0.3800 
    244 H244       -4.4919  -20.3136  -51.7766 H         1 UNK         0.0800 
    245 H245       -4.8338  -18.7196  -52.3625 H         1 UNK         0.0800 
    246 H246       -4.0222  -20.7284  -49.0281 H         1 UNK         0.0800 
    247 H247       -2.6665  -20.3958  -50.0875 H         1 UNK         0.0800 
@<TRIPOS>BOND
     1    1    2 1    
     2    1  127 1    
     3    1  128 1    
     4    1  129 1    
     5    2    3 2    
     6    2    4 am   BACKBONE|DICT|INTERRES
     7    4    5 1    
     8    4  130 1    
     9    5    6 1    
    10    5   65 1    
    11    5  131 1    
    12    6    7 1    
    13    6  132 1    
    14    6  133 1    
    15    7    8 1    
    16    8    9 1    
    17    8  134 1    
    18    8  135 1    
    19    9   10 ar   
    20    9   14 ar   
    21   10   11 ar   
    22   10  136 1    
    23   11   12 ar   
    24   11  126 1    
    25   12   13 ar   
    26   12  137 1    
    27   13   14 ar   
    28   13   15 1    
    29   14  138 1    
    30   15   16 1    
    31   15  139 1    
    32   15  140 1    
    33   16   17 1    
    34   17   18 1    
    35   17  141 1    
    36   17  142 1    
    37   18   19 1    
    38   18   67 1    
    39   18  143 1    
    40   19   20 am   BACKBONE|DICT|INTERRES
    41   19  144 1    
    42   20   21 2    
    43   20   22 1    
    44   22   23 1    
    45   22   24 1    
    46   22  145 1    
    47   23  146 1    
    48   23  147 1    
    49   23  148 1    
    50   24   25 am   BACKBONE|DICT|INTERRES
    51   24  149 1    
    52   25   26 2    
    53   25   27 1    
    54   27   28 1    
    55   27   29 1    
    56   27  150 1    
    57   28  151 1    
    58   28  152 1    
    59   28  153 1    
    60   29   30 am   BACKBONE|DICT|INTERRES
    61   29  154 1    
    62   30   31 2    
    63   30   32 1    
    64   32   33 1    
    65   32   34 1    
    66   32  155 1    
    67   33  156 1    
    68   33  157 1    
    69   33  158 1    
    70   34   35 am   BACKBONE|DICT|INTERRES
    71   34  159 1    
    72   35   36 2    
    73   35   37 1    
    74   37   38 1    
    75   37   39 1    
    76   37  160 1    
    77   38  161 1    
    78   38  162 1    
    79   38  163 1    
    80   39   40 am   BACKBONE|DICT|INTERRES
    81   39  164 1    
    82   40   41 2    
    83   40   42 1    
    84   42   43 1    
    85   42   44 1    
    86   42  165 1    
    87   43  166 1    
    88   43  167 1    
    89   43  168 1    
    90   44   45 am   BACKBONE|DICT|INTERRES
    91   44  169 1    
    92   45   46 2    
    93   45   47 1    
    94   47   48 1    
    95   47   49 1    
    96   47  170 1    
    97   48  171 1    
    98   48  172 1    
    99   48  173 1    
   100   49   50 am   BACKBONE|DICT|INTERRES
   101   49  174 1    
   102   50   51 2    
   103   50   52 1    
   104   52   53 1    
   105   52   54 1    
   106   52  175 1    
   107   53  176 1    
   108   53  177 1    
   109   53  178 1    
   110   54   55 am   BACKBONE|DICT|INTERRES
   111   54  179 1    
   112   55   56 2    
   113   55   57 1    
   114   57   58 1    
   115   57   59 1    
   116   57  180 1    
   117   58  181 1    
   118   58  182 1    
   119   58  183 1    
   120   59   60 am   BACKBONE|DICT|INTERRES
   121   59  184 1    
   122   60   61 2    
   123   60   62 1    
   124   62   63 1    
   125   62   64 1    
   126   62  185 1    
   127   63  186 1    
   128   63  187 1    
   129   63  188 1    
   130   64   65 am   BACKBONE|DICT|INTERRES
   131   64  189 1    
   132   65   66 2    
   133   67   68 2    
   134   67   69 am   BACKBONE|DICT|INTERRES
   135   69   70 1    
   136   69  190 1    
   137   70   71 1    
   138   70   72 1    
   139   70  191 1    
   140   71  192 1    
   141   71  193 1    
   142   71  194 1    
   143   72   73 2    
   144   72   74 am   BACKBONE|DICT|INTERRES
   145   74   75 1    
   146   74  195 1    
   147   75   76 1    
   148   75   77 1    
   149   75  196 1    
   150   76  197 1    
   151   76  198 1    
   152   76  199 1    
   153   77   78 2    
   154   77   79 am   BACKBONE|DICT|INTERRES
   155   79   80 1    
   156   79  200 1    
   157   80   81 1    
   158   80   82 1    
   159   80  201 1    
   160   81  202 1    
   161   81  203 1    
   162   81  204 1    
   163   82   83 2    
   164   82   84 am   BACKBONE|DICT|INTERRES
   165   84   85 1    
   166   84  205 1    
   167   85   86 1    
   168   85   87 1    
   169   85  206 1    
   170   86  207 1    
   171   86  208 1    
   172   86  209 1    
   173   87   88 2    
   174   87   89 am   BACKBONE|DICT|INTERRES
   175   89   90 1    
   176   89  210 1    
   177   90   91 1    
   178   90   92 1    
   179   90  211 1    
   180   91  212 1    
   181   91  213 1    
   182   91  214 1    
   183   92   93 2    
   184   92   94 am   BACKBONE|DICT|INTERRES
   185   94   95 1    
   186   94  215 1    
   187   95   96 1    
   188   95   97 1    
   189   95  216 1    
   190   96  217 1    
   191   96  218 1    
   192   96  219 1    
   193   97   98 2    
   194   97   99 am   BACKBONE|DICT|INTERRES
   195   99  100 1    
   196   99  220 1    
   197  100  101 1    
   198  100  102 1    
   199  100  221 1    
   200  101  222 1    
   201  101  223 1    
   202  101  224 1    
   203  102  103 2    
   204  102  104 am   BACKBONE|DICT|INTERRES
   205  104  105 1    
   206  104  225 1    
   207  105  106 1    
   208  105  107 1    
   209  105  226 1    
   210  106  227 1    
   211  106  228 1    
   212  106  229 1    
   213  107  108 2    
   214  107  109 am   BACKBONE|DICT|INTERRES
   215  109  110 1    
   216  109  230 1    
   217  110  111 1    
   218  110  112 1    
   219  110  231 1    
   220  111  232 1    
   221  111  233 1    
   222  111  234 1    
   223  112  113 2    
   224  112  114 am   BACKBONE|DICT|INTERRES
   225  114  115 1    
   226  114  235 1    
   227  115  116 1    
   228  115  117 1    
   229  115  236 1    
   230  116  237 1    
   231  116  238 1    
   232  116  239 1    
   233  117  118 2    
   234  117  119 am   BACKBONE|DICT|INTERRES
   235  119  120 1    
   236  119  240 1    
   237  120  121 1    
   238  120  124 1    
   239  120  241 1    
   240  121  122 am   BACKBONE|DICT|INTERRES
   241  121  123 2    
   242  122  242 1    
   243  122  243 1    
   244  124  125 1    
   245  124  244 1    
   246  124  245 1    
   247  125  126 1    
   248  126  246 1    
   249  126  247 1    
@<TRIPOS>SUBSTRUCTURE
     1 UNK         1 GROUP             0       ****    0 ROOT    
