@<TRIPOS>MOLECULE
3R540
247   249    1
SMALL
USER_CHARGES


@<TRIPOS>ATOM
      1 CA          4.1667  -16.4997  -48.1526 C.3       0 UNK        -0.1800 
      2 C           3.7413  -15.3957  -47.1968 C.2       0 UNK         0.5000 
      3 O           4.4227  -15.1437  -46.2040 O.2       0 UNK        -0.5000 
      4 N           2.6222  -14.7246  -47.4973 N.am      1 UNK        -0.5000 
      5 CA          1.9772  -13.7190  -46.6433 C.3       1 UNK         0.1400 
      6 C6          0.5607  -13.3617  -47.1544 C.3       23 UNK        -0.0398 
      7 S7          0.4759  -12.3930  -48.7079 S.3       23 UNK        -0.2404 
      8 C8          0.6267  -13.6309  -50.0470 C.3       23 UNK        -0.0205 
      9 C9         -0.2439  -14.8760  -49.8944 C.ar      23 UNK        -0.0193 
     10 C10        -1.5496  -14.8053  -49.3928 C.ar      23 UNK        -0.1150 
     11 C11        -2.3106  -15.9643  -49.2157 C.ar      23 UNK        -0.0193 
     12 C12        -1.7615  -17.2011  -49.5684 C.ar      23 UNK        -0.1150 
     13 C13        -0.4876  -17.2802  -50.1337 C.ar      23 UNK        -0.0193 
     14 C14         0.2693  -16.1165  -50.2848 C.ar      23 UNK        -0.1150 
     15 C15         0.0561  -18.6222  -50.6002 C.3       23 UNK        -0.0205 
     16 S16         1.4824  -19.1954  -49.6256 S.3       23 UNK        -0.2404 
     17 C17         0.8410  -19.1712  -47.9192 C.3       23 UNK        -0.0398 
     18 CA          0.2531  -20.5239  -47.4491 C.3       11 UNK         0.1400 
     19 N           0.3571  -20.6714  -45.9961 N.am      11 UNK        -0.5000 
     20 C           0.1097  -21.7954  -45.3116 C.2       10 UNK         0.5000 
     21 O          -0.2092  -22.8597  -45.8394 O.2       10 UNK        -0.5000 
     22 CA          0.1882  -21.7014  -43.7763 C.3       10 UNK         0.1400 
     23 CB          1.6454  -21.7638  -43.2956 C.3       10 UNK        -0.1800 
     24 N          -0.4527  -20.4930  -43.2542 N.am      10 UNK        -0.5000 
     25 C          -1.7625  -20.2283  -43.3645 C.2       9 UNK         0.5000 
     26 O          -2.5733  -21.0002  -43.8758 O.2       9 UNK        -0.5000 
     27 CA         -2.2419  -18.8535  -42.8653 C.3       9 UNK         0.1400 
     28 CB         -2.4086  -18.8487  -41.3385 C.3       9 UNK        -0.1800 
     29 N          -1.3526  -17.7635  -43.2651 N.am      9 UNK        -0.5000 
     30 C          -1.0989  -17.4105  -44.5335 C.2       8 UNK         0.5000 
     31 O          -1.6033  -17.9526  -45.5152 O.2       8 UNK        -0.5000 
     32 CA         -0.0653  -16.2909  -44.7376 C.3       8 UNK         0.1400 
     33 CB         -0.6928  -14.9275  -44.3949 C.3       8 UNK        -0.1800 
     34 N           1.1497  -16.5082  -43.9465 N.am      8 UNK        -0.5000 
     35 C           1.9417  -17.5885  -44.0405 C.2       7 UNK         0.5000 
     36 O           1.7710  -18.4897  -44.8574 O.2       7 UNK        -0.5000 
     37 CA          3.0693  -17.7329  -43.0051 C.3       7 UNK         0.1400 
     38 CB          4.3303  -16.9735  -43.4360 C.3       7 UNK        -0.1800 
     39 N           2.6456  -17.2908  -41.6790 N.am      7 UNK        -0.5000 
     40 C           1.7507  -17.9398  -40.9200 C.2       6 UNK         0.5000 
     41 O           1.2362  -19.0134  -41.2341 O.2       6 UNK        -0.5000 
     42 CA          1.3251  -17.2383  -39.6171 C.3       6 UNK         0.1400 
     43 CB          2.3295  -17.5268  -38.4916 C.3       6 UNK        -0.1800 
     44 N           1.1933  -15.7902  -39.7922 N.am      6 UNK        -0.5000 
     45 C           0.2584  -15.2061  -40.5560 C.2       5 UNK         0.5000 
     46 O          -0.6405  -15.8292  -41.1200 O.2       5 UNK        -0.5000 
     47 CA          0.3818  -13.6831  -40.7652 C.3       5 UNK         0.1400 
     48 CB         -0.3980  -12.9250  -39.6813 C.3       5 UNK        -0.1800 
     49 N           1.7749  -13.2230  -40.7756 N.am      5 UNK        -0.5000 
     50 C           2.6676  -13.5369  -41.7238 C.2       4 UNK         0.5000 
     51 O           2.3918  -14.1953  -42.7291 O.2       4 UNK        -0.5000 
     52 CA          4.1208  -13.1226  -41.4552 C.3       4 UNK         0.1400 
     53 CB          4.7291  -14.0539  -40.3829 C.3       4 UNK        -0.1800 
     54 N           4.8920  -13.2003  -42.6954 N.am      4 UNK        -0.5000 
     55 C           6.1565  -12.7877  -42.8536 C.2       3 UNK         0.5000 
     56 O           6.8092  -12.2257  -41.9729 O.2       3 UNK        -0.5000 
     57 CA          6.8088  -13.0386  -44.2240 C.3       3 UNK         0.1400 
     58 CB          7.2296  -14.5086  -44.3739 C.3       3 UNK        -0.1800 
     59 N           5.9397  -12.6566  -45.3359 N.am      3 UNK        -0.5000 
     60 C           5.7604  -11.3889  -45.7391 C.2       2 UNK         0.5000 
     61 O           6.3074  -10.4225  -45.2060 O.2       2 UNK        -0.5000 
     62 CA          4.8331  -11.1447  -46.9475 C.3       2 UNK         0.1400 
     63 CB          5.6575  -10.9773  -48.2332 C.3       2 UNK        -0.1800 
     64 N           3.8555  -12.2107  -47.1520 N.am      2 UNK        -0.5000 
     65 C           2.8237  -12.4645  -46.3372 C.2       1 UNK         0.5000 
     66 O           2.5415  -11.7686  -45.3611 O.2       1 UNK        -0.5000 
     67 C          -1.1954  -20.7310  -47.9437 C.2       11 UNK         0.5000 
     68 O          -1.4017  -21.4289  -48.9356 O.2       11 UNK        -0.5000 
     69 N          -2.1720  -20.1593  -47.2228 N.am      12 UNK        -0.5000 
     70 CA         -3.6052  -20.3256  -47.4706 C.3       12 UNK         0.1400 
     71 CB         -4.3991  -19.3708  -46.5675 C.3       12 UNK        -0.1800 
     72 C          -4.0843  -21.7758  -47.2770 C.2       12 UNK         0.5000 
     73 O          -4.8955  -22.2550  -48.0695 O.2       12 UNK        -0.5000 
     74 N          -3.5676  -22.4505  -46.2393 N.am      13 UNK        -0.5000 
     75 CA         -3.8327  -23.8613  -45.9528 C.3       13 UNK         0.1400 
     76 CB         -3.3080  -24.2113  -44.5523 C.3       13 UNK        -0.1800 
     77 C          -3.2360  -24.8054  -47.0132 C.2       13 UNK         0.5000 
     78 O          -3.8677  -25.8036  -47.3617 O.2       13 UNK        -0.5000 
     79 N          -2.0563  -24.4565  -47.5430 N.am      14 UNK        -0.5000 
     80 CA         -1.3472  -25.1561  -48.6175 C.3       14 UNK         0.1400 
     81 CB          0.1476  -24.7976  -48.5343 C.3       14 UNK        -0.1800 
     82 C          -1.9467  -24.8824  -50.0174 C.2       14 UNK         0.5000 
     83 O          -1.2108  -24.5975  -50.9647 O.2       14 UNK        -0.5000 
     84 N          -3.2762  -24.9793  -50.1288 N.am      15 UNK        -0.5000 
     85 CA         -4.0351  -24.8513  -51.3693 C.3       15 UNK         0.1400 
     86 CB         -5.5197  -24.6716  -51.0165 C.3       15 UNK        -0.1800 
     87 C          -3.8354  -26.0725  -52.2845 C.2       15 UNK         0.5000 
     88 O          -3.6107  -27.1857  -51.8012 O.2       15 UNK        -0.5000 
     89 N          -3.9774  -25.8533  -53.5944 N.am      16 UNK        -0.5000 
     90 CA         -3.8836  -26.8646  -54.6448 C.3       16 UNK         0.1400 
     91 CB         -3.4353  -26.1762  -55.9473 C.3       16 UNK        -0.1800 
     92 C          -5.2274  -27.6033  -54.7943 C.2       16 UNK         0.5000 
     93 O          -5.8928  -27.4720  -55.8218 O.2       16 UNK        -0.5000 
     94 N          -5.6136  -28.3332  -53.7374 N.am      17 UNK        -0.5000 
     95 CA         -6.8864  -29.0443  -53.5667 C.3       17 UNK         0.1400 
     96 CB         -7.0206  -30.1986  -54.5828 C.3       17 UNK        -0.1800 
     97 C          -8.0849  -28.0723  -53.5791 C.2       17 UNK         0.5000 
     98 O          -8.9963  -28.2112  -54.3969 O.2       17 UNK        -0.5000 
     99 N          -8.0312  -27.0903  -52.6656 N.am      18 UNK        -0.5000 
    100 CA        -8.9994  -26.0019  -52.4730 C.3       18 UNK         0.1400 
    101 CB       -10.3781  -26.5490  -52.0450 C.3       18 UNK        -0.1800 
    102 C         -9.0720  -25.0356  -53.6760 C.2       18 UNK         0.5000 
    103 O        -10.1514  -24.5562  -54.0284 O.2       18 UNK        -0.5000 
    104 N         -7.9089  -24.7541  -54.2709 N.am      19 UNK        -0.5000 
    105 CA        -7.7045  -23.8015  -55.3564 C.3       19 UNK         0.1400 
    106 CB        -7.8624  -24.5198  -56.7080 C.3       19 UNK        -0.1800 
    107 C         -6.3077  -23.1784  -55.2088 C.2       19 UNK         0.5000 
    108 O         -5.5040  -23.6587  -54.4039 O.2       19 UNK        -0.5000 
    109 N         -6.0397  -22.1288  -55.9959 N.am      20 UNK        -0.5000 
    110 CA        -4.8041  -21.3384  -55.9999 C.3       20 UNK         0.1400 
    111 CB        -3.6091  -22.1893  -56.4925 C.3       20 UNK        -0.1800 
    112 C         -4.5756  -20.6338  -54.6431 C.2       20 UNK         0.5000 
    113 O         -5.5180  -20.0354  -54.1202 O.2       20 UNK        -0.5000 
    114 N         -3.3468  -20.7066  -54.1111 N.am      21 UNK        -0.5000 
    115 CA        -2.8691  -20.0654  -52.8838 C.3       21 UNK         0.1400 
    116 CB        -3.5693  -20.6390  -51.6313 C.3       21 UNK        -0.1800 
    117 C         -2.9183  -18.5276  -52.9877 C.2       21 UNK         0.5000 
    118 O         -2.0755  -17.9549  -53.6800 O.2       21 UNK        -0.5000 
    119 N         -3.8656  -17.8953  -52.2858 N.am      22 UNK        -0.5000 
    120 CA        -4.0264  -16.4376  -52.1837 C.3       22 UNK         0.1400 
    121 C         -4.3392  -15.7477  -53.5413 C.2       22 UNK         0.5000 
    122 N         -3.7919  -14.5640  -53.7834 N.am      22 UNK        -0.7600 
    123 O         -5.1110  -16.2500  -54.3551 O.2       22 UNK        -0.5000 
    124 C124       -5.0911  -16.0420  -51.1237 C.3       23 UNK        -0.0398 
    125 S125       -4.9345  -16.9072  -49.5196 S.3       23 UNK        -0.2404 
    126 C126       -3.7181  -15.8702  -48.6371 C.3       23 UNK        -0.0205 
    127 H127        4.1854  -17.4564  -47.6305 H         1 UNK         0.0600 
    128 H128        5.1663  -16.2991  -48.5377 H         1 UNK         0.0600 
    129 H129        3.4851  -16.5891  -48.9990 H         1 UNK         0.0600 
    130 H130        2.1149  -14.9673  -48.3350 H         1 UNK         0.3000 
    131 H131        1.8575  -14.2077  -45.6759 H         1 UNK         0.0600 
    132 H132       -0.0306  -14.2704  -47.2502 H         1 UNK         0.0800 
    133 H133        0.0439  -12.7736  -46.3943 H         1 UNK         0.0800 
    134 H134        1.6776  -13.9101  -50.1329 H         1 UNK         0.0800 
    135 H135        0.3677  -13.1476  -50.9898 H         1 UNK         0.0800 
    136 H136       -1.9658  -13.8468  -49.1169 H         1 UNK         0.1150 
    137 H137       -2.3425  -18.1016  -49.4326 H         1 UNK         0.1150 
    138 H138        1.2613  -16.1834  -50.7096 H         1 UNK         0.1150 
    139 H139       -0.7220  -19.3850  -50.5767 H         1 UNK         0.0800 
    140 H140        0.3578  -18.5355  -51.6450 H         1 UNK         0.0800 
    141 H141        0.1450  -18.3474  -47.7577 H         1 UNK         0.0800 
    142 H142        1.7134  -18.9269  -47.3151 H         1 UNK         0.0800 
    143 H143        0.8592  -21.3244  -47.8789 H         1 UNK         0.0600 
    144 H144        0.6624  -19.8474  -45.4832 H         1 UNK         0.3000 
    145 H145       -0.3407  -22.5632  -43.3639 H         1 UNK         0.0600 
    146 H146        1.7021  -21.7547  -42.2070 H         1 UNK         0.0600 
    147 H147        2.1304  -22.6779  -43.6401 H         1 UNK         0.0600 
    148 H148        2.2299  -20.9223  -43.6673 H         1 UNK         0.0600 
    149 H149        0.1451  -19.8238  -42.7807 H         1 UNK         0.3000 
    150 H150       -3.2191  -18.6620  -43.3130 H         1 UNK         0.0600 
    151 H151       -3.0935  -19.6348  -41.0184 H         1 UNK         0.0600 
    152 H152       -2.8160  -17.8993  -40.9903 H         1 UNK         0.0600 
    153 H153       -1.4596  -19.0112  -40.8274 H         1 UNK         0.0600 
    154 H154       -0.9212  -17.2289  -42.5173 H         1 UNK         0.3000 
    155 H155        0.2298  -16.2863  -45.7887 H         1 UNK         0.0600 
    156 H156       -1.2280  -14.9466  -43.4469 H         1 UNK         0.0600 
    157 H157       -1.4173  -14.6385  -45.1569 H         1 UNK         0.0600 
    158 H158        0.0503  -14.1351  -44.3257 H         1 UNK         0.0600 
    159 H159        1.4096  -15.7765  -43.2928 H         1 UNK         0.3000 
    160 H160        3.3268  -18.7921  -42.9400 H         1 UNK         0.0600 
    161 H161        4.1422  -15.9077  -43.5519 H         1 UNK         0.0600 
    162 H162        4.6952  -17.3430  -44.3952 H         1 UNK         0.0600 
    163 H163        5.1359  -17.0963  -42.7121 H         1 UNK         0.0600 
    164 H164        2.9871  -16.3952  -41.3682 H         1 UNK         0.3000 
    165 H165        0.3530  -17.6395  -39.3222 H         1 UNK         0.0600 
    166 H166        2.0004  -17.0902  -37.5485 H         1 UNK         0.0600 
    167 H167        2.4370  -18.6005  -38.3315 H         1 UNK         0.0600 
    168 H168        3.3189  -17.1280  -38.7195 H         1 UNK         0.0600 
    169 H169        1.8847  -15.2087  -39.3435 H         1 UNK         0.3000 
    170 H170       -0.0616  -13.4444  -41.7340 H         1 UNK         0.0600 
    171 H171       -1.4445  -13.2328  -39.6668 H         1 UNK         0.0600 
    172 H172        0.0115  -13.1068  -38.6868 H         1 UNK         0.0600 
    173 H173       -0.3795  -11.8500  -39.8614 H         1 UNK         0.0600 
    174 H174        2.0740  -12.6781  -39.9794 H         1 UNK         0.3000 
    175 H175        4.1264  -12.0903  -41.1002 H         1 UNK         0.0600 
    176 H176        4.7998  -15.0823  -40.7388 H         1 UNK         0.0600 
    177 H177        5.7299  -13.7360  -40.0922 H         1 UNK         0.0600 
    178 H178        4.1298  -14.0611  -39.4719 H         1 UNK         0.0600 
    179 H179        4.3934  -13.6165  -43.4725 H         1 UNK         0.3000 
    180 H180        7.7180  -12.4349  -44.2724 H         1 UNK         0.0600 
    181 H181        6.3729  -15.1805  -44.3497 H         1 UNK         0.0600 
    182 H182        7.9017  -14.8062  -43.5681 H         1 UNK         0.0600 
    183 H183        7.7554  -14.6735  -45.3144 H         1 UNK         0.0600 
    184 H184        5.4344  -13.4058  -45.7980 H         1 UNK         0.3000 
    185 H185        4.2912  -10.2144  -46.7648 H         1 UNK         0.0600 
    186 H186        6.3809  -10.1673  -48.1308 H         1 UNK         0.0600 
    187 H187        6.2125  -11.8843  -48.4761 H         1 UNK         0.0600 
    188 H188        5.0189  -10.7353  -49.0830 H         1 UNK         0.0600 
    189 H189        4.0163  -12.8369  -47.9270 H         1 UNK         0.3000 
    190 H190       -1.9180  -19.5450  -46.4525 H         1 UNK         0.3000 
    191 H191       -3.8003  -20.0448  -48.5061 H         1 UNK         0.0600 
    192 H192       -4.2515  -19.5961  -45.5114 H         1 UNK         0.0600 
    193 H193       -5.4680  -19.4378  -46.7732 H         1 UNK         0.0600 
    194 H194       -4.1018  -18.3362  -46.7310 H         1 UNK         0.0600 
    195 H195       -2.9610  -21.9595  -45.5898 H         1 UNK         0.3000 
    196 H196       -4.9150  -24.0057  -45.9534 H         1 UNK         0.0600 
    197 H197       -3.5167  -25.2532  -44.3062 H         1 UNK         0.0600 
    198 H198       -3.7829  -23.5952  -43.7886 H         1 UNK         0.0600 
    199 H199       -2.2305  -24.0654  -44.4765 H         1 UNK         0.0600 
    200 H200       -1.5962  -23.6306  -47.1757 H         1 UNK         0.3000 
    201 H201       -1.4365  -26.2303  -48.4435 H         1 UNK         0.0600 
    202 H202        0.5573  -25.0398  -47.5535 H         1 UNK         0.0600 
    203 H203        0.3133  -23.7345  -48.7122 H         1 UNK         0.0600 
    204 H204        0.7285  -25.3515  -49.2726 H         1 UNK         0.0600 
    205 H205       -3.7932  -25.2617  -49.3040 H         1 UNK         0.3000 
    206 H206       -3.6896  -23.9624  -51.8997 H         1 UNK         0.0600 
    207 H207       -5.9142  -25.5349  -50.4791 H         1 UNK         0.0600 
    208 H208       -6.1236  -24.5331  -51.9125 H         1 UNK         0.0600 
    209 H209       -5.6690  -23.7913  -50.3907 H         1 UNK         0.0600 
    210 H210       -4.2912  -24.9337  -53.9002 H         1 UNK         0.3000 
    211 H211       -3.1240  -27.6018  -54.3761 H         1 UNK         0.0600 
    212 H212       -4.1526  -25.4221  -56.2741 H         1 UNK         0.0600 
    213 H213       -3.3282  -26.9007  -56.7553 H         1 UNK         0.0600 
    214 H214       -2.4702  -25.6853  -55.8211 H         1 UNK         0.0600 
    215 H215       -4.9939  -28.3359  -52.9341 H         1 UNK         0.3000 
    216 H216       -6.8608  -29.4907  -52.5715 H         1 UNK         0.0600 
    217 H217       -7.9156  -30.7887  -54.3825 H         1 UNK         0.0600 
    218 H218       -6.1672  -30.8742  -54.5258 H         1 UNK         0.0600 
    219 H219       -7.0935  -29.8369  -55.6087 H         1 UNK         0.0600 
    220 H220       -7.2359  -27.0772  -52.0438 H         1 UNK         0.3000 
    221 H221       -8.6204  -25.4073  -51.6405 H         1 UNK         0.0600 
    222 H222      -10.8669  -27.0984  -52.8500 H         1 UNK         0.0600 
    223 H223      -10.2889  -27.2169  -51.1883 H         1 UNK         0.0600 
    224 H224      -11.0461  -25.7377  -51.7537 H         1 UNK         0.0600 
    225 H225       -7.0544  -25.1520  -53.9073 H         1 UNK         0.3000 
    226 H226       -8.4390  -22.9969  -55.2808 H         1 UNK         0.0600 
    227 H227       -8.8418  -24.9910  -56.7927 H         1 UNK         0.0600 
    228 H228       -7.7659  -23.8225  -57.5406 H         1 UNK         0.0600 
    229 H229       -7.1073  -25.2950  -56.8399 H         1 UNK         0.0600 
    230 H230       -6.7705  -21.7872  -56.6039 H         1 UNK         0.3000 
    231 H231       -4.9573  -20.5408  -56.7280 H         1 UNK         0.0600 
    232 H232       -3.8431  -22.6767  -57.4390 H         1 UNK         0.0600 
    233 H233       -3.3346  -22.9692  -55.7816 H         1 UNK         0.0600 
    234 H234       -2.7281  -21.5702  -56.6651 H         1 UNK         0.0600 
    235 H235       -2.6433  -21.2070  -54.6351 H         1 UNK         0.3000 
    236 H236       -1.8123  -20.3235  -52.7992 H         1 UNK         0.0600 
    237 H237       -4.6522  -20.5181  -51.6564 H         1 UNK         0.0600 
    238 H238       -3.3571  -21.7011  -51.5196 H         1 UNK         0.0600 
    239 H239       -3.2018  -20.1509  -50.7294 H         1 UNK         0.0600 
    240 H240       -4.5409  -18.4472  -51.7788 H         1 UNK         0.3000 
    241 H241       -3.0630  -16.0514  -51.8498 H         1 UNK         0.0600 
    242 H242       -3.1612  -14.1273  -53.1290 H         1 UNK         0.3800 
    243 H243       -4.0005  -14.0977  -54.6529 H         1 UNK         0.3800 
    244 H244       -5.0657  -14.9657  -50.9455 H         1 UNK         0.0800 
    245 H245       -6.0916  -16.2583  -51.5029 H         1 UNK         0.0800 
    246 H246       -3.6785  -16.1814  -47.5931 H         1 UNK         0.0800 
    247 H247       -4.0702  -14.8376  -48.6355 H         1 UNK         0.0800 
@<TRIPOS>BOND
     1    1    2 1    
     2    1  127 1    
     3    1  128 1    
     4    1  129 1    
     5    2    3 2    
     6    2    4 am   BACKBONE|DICT|INTERRES
     7    4    5 1    
     8    4  130 1    
     9    5    6 1    
    10    5   65 1    
    11    5  131 1    
    12    6    7 1    
    13    6  132 1    
    14    6  133 1    
    15    7    8 1    
    16    8    9 1    
    17    8  134 1    
    18    8  135 1    
    19    9   10 ar   
    20    9   14 ar   
    21   10   11 ar   
    22   10  136 1    
    23   11   12 ar   
    24   11  126 1    
    25   12   13 ar   
    26   12  137 1    
    27   13   14 ar   
    28   13   15 1    
    29   14  138 1    
    30   15   16 1    
    31   15  139 1    
    32   15  140 1    
    33   16   17 1    
    34   17   18 1    
    35   17  141 1    
    36   17  142 1    
    37   18   19 1    
    38   18   67 1    
    39   18  143 1    
    40   19   20 am   BACKBONE|DICT|INTERRES
    41   19  144 1    
    42   20   21 2    
    43   20   22 1    
    44   22   23 1    
    45   22   24 1    
    46   22  145 1    
    47   23  146 1    
    48   23  147 1    
    49   23  148 1    
    50   24   25 am   BACKBONE|DICT|INTERRES
    51   24  149 1    
    52   25   26 2    
    53   25   27 1    
    54   27   28 1    
    55   27   29 1    
    56   27  150 1    
    57   28  151 1    
    58   28  152 1    
    59   28  153 1    
    60   29   30 am   BACKBONE|DICT|INTERRES
    61   29  154 1    
    62   30   31 2    
    63   30   32 1    
    64   32   33 1    
    65   32   34 1    
    66   32  155 1    
    67   33  156 1    
    68   33  157 1    
    69   33  158 1    
    70   34   35 am   BACKBONE|DICT|INTERRES
    71   34  159 1    
    72   35   36 2    
    73   35   37 1    
    74   37   38 1    
    75   37   39 1    
    76   37  160 1    
    77   38  161 1    
    78   38  162 1    
    79   38  163 1    
    80   39   40 am   BACKBONE|DICT|INTERRES
    81   39  164 1    
    82   40   41 2    
    83   40   42 1    
    84   42   43 1    
    85   42   44 1    
    86   42  165 1    
    87   43  166 1    
    88   43  167 1    
    89   43  168 1    
    90   44   45 am   BACKBONE|DICT|INTERRES
    91   44  169 1    
    92   45   46 2    
    93   45   47 1    
    94   47   48 1    
    95   47   49 1    
    96   47  170 1    
    97   48  171 1    
    98   48  172 1    
    99   48  173 1    
   100   49   50 am   BACKBONE|DICT|INTERRES
   101   49  174 1    
   102   50   51 2    
   103   50   52 1    
   104   52   53 1    
   105   52   54 1    
   106   52  175 1    
   107   53  176 1    
   108   53  177 1    
   109   53  178 1    
   110   54   55 am   BACKBONE|DICT|INTERRES
   111   54  179 1    
   112   55   56 2    
   113   55   57 1    
   114   57   58 1    
   115   57   59 1    
   116   57  180 1    
   117   58  181 1    
   118   58  182 1    
   119   58  183 1    
   120   59   60 am   BACKBONE|DICT|INTERRES
   121   59  184 1    
   122   60   61 2    
   123   60   62 1    
   124   62   63 1    
   125   62   64 1    
   126   62  185 1    
   127   63  186 1    
   128   63  187 1    
   129   63  188 1    
   130   64   65 am   BACKBONE|DICT|INTERRES
   131   64  189 1    
   132   65   66 2    
   133   67   68 2    
   134   67   69 am   BACKBONE|DICT|INTERRES
   135   69   70 1    
   136   69  190 1    
   137   70   71 1    
   138   70   72 1    
   139   70  191 1    
   140   71  192 1    
   141   71  193 1    
   142   71  194 1    
   143   72   73 2    
   144   72   74 am   BACKBONE|DICT|INTERRES
   145   74   75 1    
   146   74  195 1    
   147   75   76 1    
   148   75   77 1    
   149   75  196 1    
   150   76  197 1    
   151   76  198 1    
   152   76  199 1    
   153   77   78 2    
   154   77   79 am   BACKBONE|DICT|INTERRES
   155   79   80 1    
   156   79  200 1    
   157   80   81 1    
   158   80   82 1    
   159   80  201 1    
   160   81  202 1    
   161   81  203 1    
   162   81  204 1    
   163   82   83 2    
   164   82   84 am   BACKBONE|DICT|INTERRES
   165   84   85 1    
   166   84  205 1    
   167   85   86 1    
   168   85   87 1    
   169   85  206 1    
   170   86  207 1    
   171   86  208 1    
   172   86  209 1    
   173   87   88 2    
   174   87   89 am   BACKBONE|DICT|INTERRES
   175   89   90 1    
   176   89  210 1    
   177   90   91 1    
   178   90   92 1    
   179   90  211 1    
   180   91  212 1    
   181   91  213 1    
   182   91  214 1    
   183   92   93 2    
   184   92   94 am   BACKBONE|DICT|INTERRES
   185   94   95 1    
   186   94  215 1    
   187   95   96 1    
   188   95   97 1    
   189   95  216 1    
   190   96  217 1    
   191   96  218 1    
   192   96  219 1    
   193   97   98 2    
   194   97   99 am   BACKBONE|DICT|INTERRES
   195   99  100 1    
   196   99  220 1    
   197  100  101 1    
   198  100  102 1    
   199  100  221 1    
   200  101  222 1    
   201  101  223 1    
   202  101  224 1    
   203  102  103 2    
   204  102  104 am   BACKBONE|DICT|INTERRES
   205  104  105 1    
   206  104  225 1    
   207  105  106 1    
   208  105  107 1    
   209  105  226 1    
   210  106  227 1    
   211  106  228 1    
   212  106  229 1    
   213  107  108 2    
   214  107  109 am   BACKBONE|DICT|INTERRES
   215  109  110 1    
   216  109  230 1    
   217  110  111 1    
   218  110  112 1    
   219  110  231 1    
   220  111  232 1    
   221  111  233 1    
   222  111  234 1    
   223  112  113 2    
   224  112  114 am   BACKBONE|DICT|INTERRES
   225  114  115 1    
   226  114  235 1    
   227  115  116 1    
   228  115  117 1    
   229  115  236 1    
   230  116  237 1    
   231  116  238 1    
   232  116  239 1    
   233  117  118 2    
   234  117  119 am   BACKBONE|DICT|INTERRES
   235  119  120 1    
   236  119  240 1    
   237  120  121 1    
   238  120  124 1    
   239  120  241 1    
   240  121  122 am   BACKBONE|DICT|INTERRES
   241  121  123 2    
   242  122  242 1    
   243  122  243 1    
   244  124  125 1    
   245  124  244 1    
   246  124  245 1    
   247  125  126 1    
   248  126  246 1    
   249  126  247 1    
@<TRIPOS>SUBSTRUCTURE
     1 UNK         1 GROUP             0       ****    0 ROOT    
