@<TRIPOS>MOLECULE
3R540
247   249    1
SMALL
USER_CHARGES


@<TRIPOS>ATOM
      1 CA          1.0024  -11.1328  -47.5688 C.3       0 UNK        -0.1800 
      2 C          -0.0402  -12.2171  -47.8013 C.2       0 UNK         0.5000 
      3 O          -1.1176  -11.9261  -48.3180 O.2       0 UNK        -0.5000 
      4 N           0.2713  -13.4580  -47.3985 N.am      1 UNK        -0.5000 
      5 CA         -0.5298  -14.6827  -47.5934 C.3       1 UNK         0.1400 
      6 C6         -0.7513  -15.0416  -49.0886 C.3       23 UNK        -0.0398 
      7 S7          0.8163  -15.1920  -50.0154 S.3       23 UNK        -0.2404 
      8 C8          1.2781  -16.9243  -49.7015 C.3       23 UNK        -0.0205 
      9 C9          0.3978  -17.9002  -50.4626 C.ar      23 UNK        -0.0193 
     10 C10         0.6624  -18.1917  -51.8037 C.ar      23 UNK        -0.1150 
     11 C11        -0.1347  -19.1041  -52.5004 C.ar      23 UNK        -0.0193 
     12 C12        -1.2026  -19.7246  -51.8458 C.ar      23 UNK        -0.1150 
     13 C13        -1.4704  -19.4455  -50.5026 C.ar      23 UNK        -0.0193 
     14 C14        -0.6688  -18.5305  -49.8179 C.ar      23 UNK        -0.1150 
     15 C15        -2.6254  -20.1301  -49.7918 C.3       23 UNK        -0.0205 
     16 S16        -2.1336  -21.7407  -49.1132 S.3       23 UNK        -0.2404 
     17 C17        -1.2020  -21.2541  -47.6218 C.3       23 UNK        -0.0398 
     18 CA         -0.4809  -22.4578  -46.9756 C.3       11 UNK         0.1400 
     19 N           0.6005  -22.0375  -46.0836 N.am      11 UNK        -0.5000 
     20 C           1.5733  -22.8500  -45.6475 C.2       10 UNK         0.5000 
     21 O           1.6988  -24.0202  -46.0080 O.2       10 UNK        -0.5000 
     22 CA          2.5397  -22.2737  -44.5958 C.3       10 UNK         0.1400 
     23 CB          3.6726  -21.4858  -45.2696 C.3       10 UNK        -0.1800 
     24 N           1.8637  -21.4250  -43.6125 N.am      10 UNK        -0.5000 
     25 C           0.9137  -21.8564  -42.7705 C.2       9 UNK         0.5000 
     26 O           0.5529  -23.0300  -42.6955 O.2       9 UNK        -0.5000 
     27 CA          0.2127  -20.8007  -41.8997 C.3       9 UNK         0.1400 
     28 CB          1.0224  -20.5321  -40.6230 C.3       9 UNK        -0.1800 
     29 N          -0.0381  -19.5435  -42.6068 N.am      9 UNK        -0.5000 
     30 C          -0.8240  -19.4086  -43.6856 C.2       8 UNK         0.5000 
     31 O          -1.4350  -20.3420  -44.2067 O.2       8 UNK        -0.5000 
     32 CA         -0.8941  -18.0059  -44.3206 C.3       8 UNK         0.1400 
     33 CB         -1.7776  -17.0640  -43.4899 C.3       8 UNK        -0.1800 
     34 N           0.4330  -17.4131  -44.4802 N.am      8 UNK        -0.5000 
     35 C           1.3882  -17.9031  -45.2831 C.2       7 UNK         0.5000 
     36 O           1.2186  -18.8524  -46.0492 O.2       7 UNK        -0.5000 
     37 CA          2.7771  -17.2495  -45.1715 C.3       7 UNK         0.1400 
     38 CB          2.8770  -15.9988  -46.0567 C.3       7 UNK        -0.1800 
     39 N           3.0977  -16.8876  -43.7904 N.am      7 UNK        -0.5000 
     40 C           3.3912  -17.7718  -42.8270 C.2       6 UNK         0.5000 
     41 O           3.4400  -18.9879  -43.0085 O.2       6 UNK        -0.5000 
     42 CA          3.6330  -17.2019  -41.4169 C.3       6 UNK         0.1400 
     43 CB          5.0800  -16.7074  -41.2737 C.3       6 UNK        -0.1800 
     44 N           2.7125  -16.1140  -41.0804 N.am      6 UNK        -0.5000 
     45 C           1.3894  -16.2650  -40.9280 C.2       5 UNK         0.5000 
     46 O           0.8118  -17.3448  -41.0294 O.2       5 UNK        -0.5000 
     47 CA          0.5628  -14.9944  -40.6639 C.3       5 UNK         0.1400 
     48 CB          0.4655  -14.7182  -39.1566 C.3       5 UNK        -0.1800 
     49 N           1.0746  -13.8026  -41.3430 N.am      5 UNK        -0.5000 
     50 C           1.2033  -13.6700  -42.6685 C.2       4 UNK         0.5000 
     51 O           0.9523  -14.5649  -43.4805 O.2       4 UNK        -0.5000 
     52 CA          1.6431  -12.2854  -43.1687 C.3       4 UNK         0.1400 
     53 CB          2.6066  -12.3892  -44.3622 C.3       4 UNK        -0.1800 
     54 N           0.4543  -11.5421  -43.5695 N.am      4 UNK        -0.5000 
     55 C          -0.3755  -10.9123  -42.7266 C.2       3 UNK         0.5000 
     56 O          -0.1399  -10.7382  -41.5305 O.2       3 UNK        -0.5000 
     57 CA         -1.7151  -10.4426  -43.3236 C.3       3 UNK         0.1400 
     58 CB         -1.5458   -9.1035  -44.0576 C.3       3 UNK        -0.1800 
     59 N          -2.2828  -11.4339  -44.2431 N.am      3 UNK        -0.5000 
     60 C          -2.7716  -12.6269  -43.8665 C.2       2 UNK         0.5000 
     61 O          -2.8536  -13.0012  -42.6970 O.2       2 UNK        -0.5000 
     62 CA         -3.1793  -13.5766  -44.9981 C.3       2 UNK         0.1400 
     63 CB         -4.4036  -13.0518  -45.7718 C.3       2 UNK        -0.1800 
     64 N          -2.0310  -13.7483  -45.8811 N.am      2 UNK        -0.5000 
     65 C          -1.8532  -14.7126  -46.7886 C.2       1 UNK         0.5000 
     66 O          -2.6656  -15.6175  -46.9820 O.2       1 UNK        -0.5000 
     67 C          -1.4622  -23.4116  -46.2623 C.2       11 UNK         0.5000 
     68 O          -1.8366  -24.4336  -46.8367 O.2       11 UNK        -0.5000 
     69 N          -1.8285  -23.1002  -45.0104 N.am      12 UNK        -0.5000 
     70 CA         -2.6896  -23.9381  -44.1702 C.3       12 UNK         0.1400 
     71 CB         -3.0092  -23.2075  -42.8583 C.3       12 UNK        -0.1800 
     72 C          -2.0860  -25.3295  -43.8961 C.2       12 UNK         0.5000 
     73 O          -2.7994  -26.3288  -43.9859 O.2       12 UNK        -0.5000 
     74 N          -0.7707  -25.3782  -43.6417 N.am      13 UNK        -0.5000 
     75 CA          0.0159  -26.6057  -43.4902 C.3       13 UNK         0.1400 
     76 CB          1.4277  -26.2431  -43.0060 C.3       13 UNK        -0.1800 
     77 C           0.0866  -27.4555  -44.7762 C.2       13 UNK         0.5000 
     78 O           0.2178  -28.6765  -44.6879 O.2       13 UNK        -0.5000 
     79 N          -0.0379  -26.8053  -45.9408 N.am      14 UNK        -0.5000 
     80 CA         -0.1309  -27.4325  -47.2608 C.3       14 UNK         0.1400 
     81 CB          0.4912  -26.4874  -48.3037 C.3       14 UNK        -0.1800 
     82 C          -1.5780  -27.8200  -47.6432 C.2       14 UNK         0.5000 
     83 O          -1.7976  -28.2597  -48.7722 O.2       14 UNK        -0.5000 
     84 N          -2.5297  -27.6600  -46.7095 N.am      15 UNK        -0.5000 
     85 CA         -3.9654  -27.9381  -46.8264 C.3       15 UNK         0.1400 
     86 CB         -4.2330  -29.4223  -47.1576 C.3       15 UNK        -0.1800 
     87 C          -4.7126  -26.9562  -47.7541 C.2       15 UNK         0.5000 
     88 O          -5.7277  -27.3295  -48.3456 O.2       15 UNK        -0.5000 
     89 N          -4.2195  -25.7102  -47.8154 N.am      16 UNK        -0.5000 
     90 CA         -4.7291  -24.5566  -48.5633 C.3       16 UNK         0.1400 
     91 CB         -6.1861  -24.2315  -48.1718 C.3       16 UNK        -0.1800 
     92 C          -4.5521  -24.6676  -50.0917 C.2       16 UNK         0.5000 
     93 O          -4.2419  -25.7338  -50.6279 O.2       16 UNK        -0.5000 
     94 N          -4.7480  -23.5324  -50.7674 N.am      17 UNK        -0.5000 
     95 CA         -4.6381  -23.3451  -52.2087 C.3       17 UNK         0.1400 
     96 CB         -3.1564  -23.3309  -52.6324 C.3       17 UNK        -0.1800 
     97 C          -5.3345  -22.0262  -52.5762 C.2       17 UNK         0.5000 
     98 O          -5.6279  -21.2160  -51.6912 O.2       17 UNK        -0.5000 
     99 N          -5.5836  -21.8264  -53.8749 N.am      18 UNK        -0.5000 
    100 CA        -6.1790  -20.6141  -54.4335 C.3       18 UNK         0.1400 
    101 CB        -6.7651  -20.9402  -55.8192 C.3       18 UNK        -0.1800 
    102 C         -5.1387  -19.4812  -54.5023 C.2       18 UNK         0.5000 
    103 O         -4.5180  -19.2851  -55.5481 O.2       18 UNK        -0.5000 
    104 N         -4.9612  -18.7603  -53.3868 N.am      19 UNK        -0.5000 
    105 CA        -3.9792  -17.6821  -53.1971 C.3       19 UNK         0.1400 
    106 CB        -4.0875  -17.1603  -51.7556 C.3       19 UNK        -0.1800 
    107 C         -4.0942  -16.5051  -54.1884 C.2       19 UNK         0.5000 
    108 O         -3.1206  -15.7792  -54.3884 O.2       19 UNK        -0.5000 
    109 N         -5.2768  -16.3352  -54.7927 N.am      20 UNK        -0.5000 
    110 CA        -5.5481  -15.3464  -55.8346 C.3       20 UNK         0.1400 
    111 CB        -7.0702  -15.1734  -55.9585 C.3       20 UNK        -0.1800 
    112 C         -4.9365  -15.7082  -57.2048 C.2       20 UNK         0.5000 
    113 O         -4.8242  -14.8216  -58.0531 O.2       20 UNK        -0.5000 
    114 N         -4.5795  -16.9838  -57.4125 N.am      21 UNK        -0.5000 
    115 CA        -4.0704  -17.5101  -58.6787 C.3       21 UNK         0.1400 
    116 CB        -5.0903  -18.5081  -59.2527 C.3       21 UNK        -0.1800 
    117 C         -2.6963  -18.1757  -58.5111 C.2       21 UNK         0.5000 
    118 O         -1.7914  -17.8911  -59.2965 O.2       21 UNK        -0.5000 
    119 N         -2.5687  -19.0561  -57.5086 N.am      22 UNK        -0.5000 
    120 CA        -1.3798  -19.8762  -57.2077 C.3       22 UNK         0.1400 
    121 C         -0.9794  -20.8896  -58.3268 C.2       22 UNK         0.5000 
    122 N         -1.8785  -21.2640  -59.2291 N.am      22 UNK        -0.7600 
    123 O          0.1482  -21.3749  -58.3646 O.2       22 UNK        -0.5000 
    124 C124       -0.1799  -19.0351  -56.6878 C.3       23 UNK        -0.0398 
    125 S125       -0.5557  -18.2306  -55.0944 S.3       23 UNK        -0.2404 
    126 C126        0.1745  -19.4404  -53.9497 C.3       23 UNK        -0.0205 
    127 H127        1.9718  -11.5527  -47.3006 H         1 UNK         0.0600 
    128 H128        0.6824  -10.4651  -46.7692 H         1 UNK         0.0600 
    129 H129        1.1344  -10.5410  -48.4746 H         1 UNK         0.0600 
    130 H130        1.1834  -13.6147  -46.9957 H         1 UNK         0.3000 
    131 H131        0.0637  -15.4875  -47.1585 H         1 UNK         0.0600 
    132 H132       -1.3160  -15.9673  -49.1927 H         1 UNK         0.0800 
    133 H133       -1.3580  -14.2779  -49.5766 H         1 UNK         0.0800 
    134 H134        1.2321  -17.1326  -48.6323 H         1 UNK         0.0800 
    135 H135        2.3188  -17.0697  -49.9946 H         1 UNK         0.0800 
    136 H136        1.4896  -17.7088  -52.3050 H         1 UNK         0.1150 
    137 H137       -1.8236  -20.4271  -52.3820 H         1 UNK         0.1150 
    138 H138       -0.8721  -18.3127  -48.7786 H         1 UNK         0.1150 
    139 H139       -3.0226  -19.4969  -48.9969 H         1 UNK         0.0800 
    140 H140       -3.4432  -20.2855  -50.4954 H         1 UNK         0.0800 
    141 H141       -1.8686  -20.7564  -46.9154 H         1 UNK         0.0800 
    142 H142       -0.4592  -20.5130  -47.9161 H         1 UNK         0.0800 
    143 H143       -0.0118  -23.0276  -47.7813 H         1 UNK         0.0600 
    144 H144        0.5734  -21.0833  -45.7463 H         1 UNK         0.3000 
    145 H145        2.9836  -23.1148  -44.0592 H         1 UNK         0.0600 
    146 H146        4.4051  -21.1453  -44.5376 H         1 UNK         0.0600 
    147 H147        4.2017  -22.1056  -45.9945 H         1 UNK         0.0600 
    148 H148        3.2962  -20.6102  -45.7987 H         1 UNK         0.0600 
    149 H149        2.1595  -20.4555  -43.5637 H         1 UNK         0.3000 
    150 H150       -0.7556  -21.2069  -41.6028 H         1 UNK         0.0600 
    151 H151        1.2132  -21.4578  -40.0786 H         1 UNK         0.0600 
    152 H152        0.4851  -19.8650  -39.9489 H         1 UNK         0.0600 
    153 H153        1.9874  -20.0771  -40.8469 H         1 UNK         0.0600 
    154 H154        0.3902  -18.7130  -42.2045 H         1 UNK         0.3000 
    155 H155       -1.3388  -18.1030  -45.3135 H         1 UNK         0.0600 
    156 H156       -1.4476  -17.0025  -42.4533 H         1 UNK         0.0600 
    157 H157       -2.8127  -17.4068  -43.4846 H         1 UNK         0.0600 
    158 H158       -1.7667  -16.0547  -43.8986 H         1 UNK         0.0600 
    159 H159        0.6483  -16.6033  -43.9092 H         1 UNK         0.3000 
    160 H160        3.5179  -17.9729  -45.5187 H         1 UNK         0.0600 
    161 H161        3.8569  -15.5297  -45.9674 H         1 UNK         0.0600 
    162 H162        2.1261  -15.2571  -45.7891 H         1 UNK         0.0600 
    163 H163        2.7366  -16.2498  -47.1072 H         1 UNK         0.0600 
    164 H164        3.0160  -15.9116  -43.5459 H         1 UNK         0.3000 
    165 H165        3.4773  -18.0110  -40.7002 H         1 UNK         0.0600 
    166 H166        5.2843  -16.3759  -40.2555 H         1 UNK         0.0600 
    167 H167        5.7887  -17.5044  -41.5030 H         1 UNK         0.0600 
    168 H168        5.2919  -15.8758  -41.9470 H         1 UNK         0.0600 
    169 H169        3.1075  -15.1908  -40.9793 H         1 UNK         0.3000 
    170 H170       -0.4454  -15.1765  -41.0416 H         1 UNK         0.0600 
    171 H171        0.0645  -15.5830  -38.6261 H         1 UNK         0.0600 
    172 H172        1.4408  -14.4906  -38.7246 H         1 UNK         0.0600 
    173 H173       -0.1978  -13.8775  -38.9520 H         1 UNK         0.0600 
    174 H174        1.2567  -12.9986  -40.7588 H         1 UNK         0.3000 
    175 H175        2.1573  -11.7555  -42.3638 H         1 UNK         0.0600 
    176 H176        2.1499  -12.8945  -45.2115 H         1 UNK         0.0600 
    177 H177        2.9281  -11.4020  -44.6943 H         1 UNK         0.0600 
    178 H178        3.5026  -12.9491  -44.0915 H         1 UNK         0.0600 
    179 H179        0.1707  -11.6390  -44.5298 H         1 UNK         0.3000 
    180 H180       -2.4169  -10.2954  -42.4997 H         1 UNK         0.0600 
    181 H181       -0.8716   -9.1898  -44.9106 H         1 UNK         0.0600 
    182 H182       -1.1362   -8.3432  -43.3912 H         1 UNK         0.0600 
    183 H183       -2.5031   -8.7312  -44.4231 H         1 UNK         0.0600 
    184 H184       -2.3094  -11.1806  -45.2203 H         1 UNK         0.3000 
    185 H185       -3.4355  -14.5403  -44.5542 H         1 UNK         0.0600 
    186 H186       -4.1811  -12.1284  -46.3073 H         1 UNK         0.0600 
    187 H187       -4.7518  -13.7823  -46.5020 H         1 UNK         0.0600 
    188 H188       -5.2355  -12.8503  -45.0958 H         1 UNK         0.0600 
    189 H189       -1.2831  -13.0830  -45.7654 H         1 UNK         0.3000 
    190 H190       -1.5192  -22.2166  -44.6144 H         1 UNK         0.3000 
    191 H191       -3.6270  -24.0857  -44.7107 H         1 UNK         0.0600 
    192 H192       -2.1180  -23.0645  -42.2485 H         1 UNK         0.0600 
    193 H193       -3.7240  -23.7759  -42.2621 H         1 UNK         0.0600 
    194 H194       -3.4480  -22.2275  -43.0473 H         1 UNK         0.0600 
    195 H195       -0.2677  -24.5016  -43.5221 H         1 UNK         0.3000 
    196 H196       -0.4630  -27.2148  -42.7209 H         1 UNK         0.0600 
    197 H197        2.0336  -27.1378  -42.8579 H         1 UNK         0.0600 
    198 H198        1.3938  -25.7121  -42.0545 H         1 UNK         0.0600 
    199 H199        1.9474  -25.6084  -43.7244 H         1 UNK         0.0600 
    200 H200       -0.1432  -25.7991  -45.9222 H         1 UNK         0.3000 
    201 H201        0.4552  -28.3536  -47.2579 H         1 UNK         0.0600 
    202 H202        1.5080  -26.2084  -48.0266 H         1 UNK         0.0600 
    203 H203       -0.0869  -25.5709  -48.4178 H         1 UNK         0.0600 
    204 H204        0.5422  -26.9639  -49.2833 H         1 UNK         0.0600 
    205 H205       -2.2514  -27.2646  -45.8192 H         1 UNK         0.3000 
    206 H206       -4.3742  -27.7594  -45.8311 H         1 UNK         0.0600 
    207 H207       -3.6863  -30.0822  -46.4840 H         1 UNK         0.0600 
    208 H208       -5.2922  -29.6597  -47.0525 H         1 UNK         0.0600 
    209 H209       -3.9462  -29.6702  -48.1796 H         1 UNK         0.0600 
    210 H210       -3.3418  -25.5276  -47.3362 H         1 UNK         0.3000 
    211 H211       -4.1138  -23.7181  -48.2383 H         1 UNK         0.0600 
    212 H212       -6.8867  -24.9761  -48.5500 H         1 UNK         0.0600 
    213 H213       -6.4949  -23.2660  -48.5735 H         1 UNK         0.0600 
    214 H214       -6.3015  -24.1798  -47.0891 H         1 UNK         0.0600 
    215 H215       -5.0313  -22.6916  -50.2784 H         1 UNK         0.3000 
    216 H216       -5.1601  -24.1593  -52.7154 H         1 UNK         0.0600 
    217 H217       -3.0455  -23.1140  -53.6953 H         1 UNK         0.0600 
    218 H218       -2.6836  -24.2961  -52.4516 H         1 UNK         0.0600 
    219 H219       -2.5919  -22.5800  -52.0809 H         1 UNK         0.0600 
    220 H220       -5.2912  -22.5253  -54.5425 H         1 UNK         0.3000 
    221 H221       -7.0008  -20.2866  -53.7929 H         1 UNK         0.0600 
    222 H222       -6.0054  -21.3203  -56.5036 H         1 UNK         0.0600 
    223 H223       -7.5534  -21.6895  -55.7461 H         1 UNK         0.0600 
    224 H224       -7.2031  -20.0521  -56.2767 H         1 UNK         0.0600 
    225 H225       -5.4809  -19.0382  -52.5643 H         1 UNK         0.3000 
    226 H226       -2.9898  -18.1196  -53.3323 H         1 UNK         0.0600 
    227 H227       -3.9881  -17.9653  -51.0300 H         1 UNK         0.0600 
    228 H228       -3.2999  -16.4359  -51.5430 H         1 UNK         0.0600 
    229 H229       -5.0450  -16.6694  -51.5777 H         1 UNK         0.0600 
    230 H230       -6.0276  -16.9671  -54.5579 H         1 UNK         0.3000 
    231 H231       -5.1200  -14.3903  -55.5259 H         1 UNK         0.0600 
    232 H232       -7.5099  -14.8541  -55.0134 H         1 UNK         0.0600 
    233 H233       -7.5573  -16.1016  -56.2604 H         1 UNK         0.0600 
    234 H234       -7.3189  -14.4155  -56.7026 H         1 UNK         0.0600 
    235 H235       -4.6562  -17.6461  -56.6479 H         1 UNK         0.3000 
    236 H236       -3.9459  -16.7068  -59.4078 H         1 UNK         0.0600 
    237 H237       -4.7332  -18.9396  -60.1886 H         1 UNK         0.0600 
    238 H238       -5.2861  -19.3297  -58.5622 H         1 UNK         0.0600 
    239 H239       -6.0408  -18.0178  -59.4633 H         1 UNK         0.0600 
    240 H240       -3.3557  -19.2038  -56.8797 H         1 UNK         0.3000 
    241 H241       -1.6898  -20.5224  -56.3856 H         1 UNK         0.0600 
    242 H242       -2.8141  -20.8921  -59.2059 H         1 UNK         0.3800 
    243 H243       -1.6186  -21.9266  -59.9429 H         1 UNK         0.3800 
    244 H244        0.7101  -19.6519  -56.5552 H         1 UNK         0.0800 
    245 H245        0.0972  -18.2689  -57.4123 H         1 UNK         0.0800 
    246 H246        1.2551  -19.4733  -54.0977 H         1 UNK         0.0800 
    247 H247       -0.1997  -20.4373  -54.1884 H         1 UNK         0.0800 
@<TRIPOS>BOND
     1    1    2 1    
     2    1  127 1    
     3    1  128 1    
     4    1  129 1    
     5    2    3 2    
     6    2    4 am   BACKBONE|DICT|INTERRES
     7    4    5 1    
     8    4  130 1    
     9    5    6 1    
    10    5   65 1    
    11    5  131 1    
    12    6    7 1    
    13    6  132 1    
    14    6  133 1    
    15    7    8 1    
    16    8    9 1    
    17    8  134 1    
    18    8  135 1    
    19    9   10 ar   
    20    9   14 ar   
    21   10   11 ar   
    22   10  136 1    
    23   11   12 ar   
    24   11  126 1    
    25   12   13 ar   
    26   12  137 1    
    27   13   14 ar   
    28   13   15 1    
    29   14  138 1    
    30   15   16 1    
    31   15  139 1    
    32   15  140 1    
    33   16   17 1    
    34   17   18 1    
    35   17  141 1    
    36   17  142 1    
    37   18   19 1    
    38   18   67 1    
    39   18  143 1    
    40   19   20 am   BACKBONE|DICT|INTERRES
    41   19  144 1    
    42   20   21 2    
    43   20   22 1    
    44   22   23 1    
    45   22   24 1    
    46   22  145 1    
    47   23  146 1    
    48   23  147 1    
    49   23  148 1    
    50   24   25 am   BACKBONE|DICT|INTERRES
    51   24  149 1    
    52   25   26 2    
    53   25   27 1    
    54   27   28 1    
    55   27   29 1    
    56   27  150 1    
    57   28  151 1    
    58   28  152 1    
    59   28  153 1    
    60   29   30 am   BACKBONE|DICT|INTERRES
    61   29  154 1    
    62   30   31 2    
    63   30   32 1    
    64   32   33 1    
    65   32   34 1    
    66   32  155 1    
    67   33  156 1    
    68   33  157 1    
    69   33  158 1    
    70   34   35 am   BACKBONE|DICT|INTERRES
    71   34  159 1    
    72   35   36 2    
    73   35   37 1    
    74   37   38 1    
    75   37   39 1    
    76   37  160 1    
    77   38  161 1    
    78   38  162 1    
    79   38  163 1    
    80   39   40 am   BACKBONE|DICT|INTERRES
    81   39  164 1    
    82   40   41 2    
    83   40   42 1    
    84   42   43 1    
    85   42   44 1    
    86   42  165 1    
    87   43  166 1    
    88   43  167 1    
    89   43  168 1    
    90   44   45 am   BACKBONE|DICT|INTERRES
    91   44  169 1    
    92   45   46 2    
    93   45   47 1    
    94   47   48 1    
    95   47   49 1    
    96   47  170 1    
    97   48  171 1    
    98   48  172 1    
    99   48  173 1    
   100   49   50 am   BACKBONE|DICT|INTERRES
   101   49  174 1    
   102   50   51 2    
   103   50   52 1    
   104   52   53 1    
   105   52   54 1    
   106   52  175 1    
   107   53  176 1    
   108   53  177 1    
   109   53  178 1    
   110   54   55 am   BACKBONE|DICT|INTERRES
   111   54  179 1    
   112   55   56 2    
   113   55   57 1    
   114   57   58 1    
   115   57   59 1    
   116   57  180 1    
   117   58  181 1    
   118   58  182 1    
   119   58  183 1    
   120   59   60 am   BACKBONE|DICT|INTERRES
   121   59  184 1    
   122   60   61 2    
   123   60   62 1    
   124   62   63 1    
   125   62   64 1    
   126   62  185 1    
   127   63  186 1    
   128   63  187 1    
   129   63  188 1    
   130   64   65 am   BACKBONE|DICT|INTERRES
   131   64  189 1    
   132   65   66 2    
   133   67   68 2    
   134   67   69 am   BACKBONE|DICT|INTERRES
   135   69   70 1    
   136   69  190 1    
   137   70   71 1    
   138   70   72 1    
   139   70  191 1    
   140   71  192 1    
   141   71  193 1    
   142   71  194 1    
   143   72   73 2    
   144   72   74 am   BACKBONE|DICT|INTERRES
   145   74   75 1    
   146   74  195 1    
   147   75   76 1    
   148   75   77 1    
   149   75  196 1    
   150   76  197 1    
   151   76  198 1    
   152   76  199 1    
   153   77   78 2    
   154   77   79 am   BACKBONE|DICT|INTERRES
   155   79   80 1    
   156   79  200 1    
   157   80   81 1    
   158   80   82 1    
   159   80  201 1    
   160   81  202 1    
   161   81  203 1    
   162   81  204 1    
   163   82   83 2    
   164   82   84 am   BACKBONE|DICT|INTERRES
   165   84   85 1    
   166   84  205 1    
   167   85   86 1    
   168   85   87 1    
   169   85  206 1    
   170   86  207 1    
   171   86  208 1    
   172   86  209 1    
   173   87   88 2    
   174   87   89 am   BACKBONE|DICT|INTERRES
   175   89   90 1    
   176   89  210 1    
   177   90   91 1    
   178   90   92 1    
   179   90  211 1    
   180   91  212 1    
   181   91  213 1    
   182   91  214 1    
   183   92   93 2    
   184   92   94 am   BACKBONE|DICT|INTERRES
   185   94   95 1    
   186   94  215 1    
   187   95   96 1    
   188   95   97 1    
   189   95  216 1    
   190   96  217 1    
   191   96  218 1    
   192   96  219 1    
   193   97   98 2    
   194   97   99 am   BACKBONE|DICT|INTERRES
   195   99  100 1    
   196   99  220 1    
   197  100  101 1    
   198  100  102 1    
   199  100  221 1    
   200  101  222 1    
   201  101  223 1    
   202  101  224 1    
   203  102  103 2    
   204  102  104 am   BACKBONE|DICT|INTERRES
   205  104  105 1    
   206  104  225 1    
   207  105  106 1    
   208  105  107 1    
   209  105  226 1    
   210  106  227 1    
   211  106  228 1    
   212  106  229 1    
   213  107  108 2    
   214  107  109 am   BACKBONE|DICT|INTERRES
   215  109  110 1    
   216  109  230 1    
   217  110  111 1    
   218  110  112 1    
   219  110  231 1    
   220  111  232 1    
   221  111  233 1    
   222  111  234 1    
   223  112  113 2    
   224  112  114 am   BACKBONE|DICT|INTERRES
   225  114  115 1    
   226  114  235 1    
   227  115  116 1    
   228  115  117 1    
   229  115  236 1    
   230  116  237 1    
   231  116  238 1    
   232  116  239 1    
   233  117  118 2    
   234  117  119 am   BACKBONE|DICT|INTERRES
   235  119  120 1    
   236  119  240 1    
   237  120  121 1    
   238  120  124 1    
   239  120  241 1    
   240  121  122 am   BACKBONE|DICT|INTERRES
   241  121  123 2    
   242  122  242 1    
   243  122  243 1    
   244  124  125 1    
   245  124  244 1    
   246  124  245 1    
   247  125  126 1    
   248  126  246 1    
   249  126  247 1    
@<TRIPOS>SUBSTRUCTURE
     1 UNK         1 GROUP             0       ****    0 ROOT    
