@<TRIPOS>MOLECULE
3R540
247   249    1
SMALL
USER_CHARGES


@<TRIPOS>ATOM
      1 CA          1.6139  -13.0045  -47.0755 C.3       0 UNK        -0.1800 
      2 C           0.4203  -13.7784  -46.5384 C.2       0 UNK         0.5000 
      3 O           0.2862  -13.9511  -45.3268 O.2       0 UNK        -0.5000 
      4 N          -0.4587  -14.2367  -47.4368 N.am      1 UNK        -0.5000 
      5 CA         -1.6443  -15.0481  -47.1300 C.3       1 UNK         0.1400 
      6 C6         -2.2435  -15.6796  -48.4082 C.3       23 UNK        -0.0398 
      7 S7         -1.1964  -17.0277  -49.0473 S.3       23 UNK        -0.2404 
      8 C8         -0.2375  -16.2006  -50.3615 C.3       23 UNK        -0.0205 
      9 C9          0.7394  -17.1746  -51.0042 C.ar      23 UNK        -0.0193 
     10 C10         0.5566  -17.6163  -52.3195 C.ar      23 UNK        -0.1150 
     11 C11         1.3976  -18.5939  -52.8625 C.ar      23 UNK        -0.0193 
     12 C12         2.4353  -19.1167  -52.0859 C.ar      23 UNK        -0.1150 
     13 C13         2.6221  -18.6876  -50.7711 C.ar      23 UNK        -0.0193 
     14 C14         1.7980  -17.6868  -50.2499 C.ar      23 UNK        -0.1150 
     15 C15         3.6228  -19.3963  -49.8700 C.3       23 UNK        -0.0205 
     16 S16         2.9576  -20.9919  -49.2718 S.3       23 UNK        -0.2404 
     17 C17         1.3168  -20.4690  -48.6708 C.3       23 UNK        -0.0398 
     18 CA          0.4904  -21.5772  -47.9937 C.3       11 UNK         0.1400 
     19 N           1.1408  -22.1460  -46.8096 N.am      11 UNK        -0.5000 
     20 C           0.8522  -23.3704  -46.3458 C.2       10 UNK         0.5000 
     21 O           0.0607  -24.1372  -46.8946 O.2       10 UNK        -0.5000 
     22 CA          1.5318  -23.8090  -45.0382 C.3       10 UNK         0.1400 
     23 CB          2.9654  -24.2897  -45.3088 C.3       10 UNK        -0.1800 
     24 N           1.5629  -22.7695  -44.0118 N.am      10 UNK        -0.5000 
     25 C           0.5116  -22.1458  -43.4675 C.2       9 UNK         0.5000 
     26 O          -0.6499  -22.3538  -43.8150 O.2       9 UNK        -0.5000 
     27 CA          0.7925  -21.0951  -42.3696 C.3       9 UNK         0.1400 
     28 CB          0.7955  -21.7400  -40.9720 C.3       9 UNK        -0.1800 
     29 N           1.9975  -20.2835  -42.5899 N.am      9 UNK        -0.5000 
     30 C           3.2824  -20.6695  -42.6374 C.2       8 UNK         0.5000 
     31 O           3.6579  -21.8164  -42.3888 O.2       8 UNK        -0.5000 
     32 CA          4.3136  -19.6162  -43.0891 C.3       8 UNK         0.1400 
     33 CB          5.5222  -20.2479  -43.8106 C.3       8 UNK        -0.1800 
     34 N           3.7427  -18.5414  -43.9071 N.am      8 UNK        -0.5000 
     35 C           3.1132  -18.6387  -45.0905 C.2       7 UNK         0.5000 
     36 O           2.8782  -19.7103  -45.6539 O.2       7 UNK        -0.5000 
     37 CA          2.6440  -17.3188  -45.7447 C.3       7 UNK         0.1400 
     38 CB          1.1481  -17.3547  -46.1020 C.3       7 UNK        -0.1800 
     39 N           2.8805  -16.1468  -44.8989 N.am      7 UNK        -0.5000 
     40 C           4.0195  -15.4482  -44.8117 C.2       6 UNK         0.5000 
     41 O           4.9914  -15.6282  -45.5444 O.2       6 UNK        -0.5000 
     42 CA          4.0993  -14.4105  -43.6718 C.3       6 UNK         0.1400 
     43 CB          3.7768  -12.9990  -44.1800 C.3       6 UNK        -0.1800 
     44 N           3.2108  -14.7304  -42.5485 N.am      6 UNK        -0.5000 
     45 C           3.4107  -15.7382  -41.6865 C.2       5 UNK         0.5000 
     46 O           4.3899  -16.4819  -41.7269 O.2       5 UNK        -0.5000 
     47 CA          2.3044  -15.9949  -40.6471 C.3       5 UNK         0.1400 
     48 CB          2.4948  -15.0938  -39.4184 C.3       5 UNK        -0.1800 
     49 N           0.9628  -15.7888  -41.1933 N.am      5 UNK        -0.5000 
     50 C           0.3897  -16.5353  -42.1449 C.2       4 UNK         0.5000 
     51 O           0.9248  -17.5247  -42.6469 O.2       4 UNK        -0.5000 
     52 CA         -0.9839  -16.0749  -42.6670 C.3       4 UNK         0.1400 
     53 CB         -2.1327  -16.6270  -41.8046 C.3       4 UNK        -0.1800 
     54 N          -1.0873  -14.6248  -42.8702 N.am      4 UNK        -0.5000 
     55 C          -1.1383  -13.6336  -41.9686 C.2       3 UNK         0.5000 
     56 O          -1.0948  -13.8097  -40.7510 O.2       3 UNK        -0.5000 
     57 CA         -1.2026  -12.1991  -42.5225 C.3       3 UNK         0.1400 
     58 CB          0.2073  -11.5913  -42.5808 C.3       3 UNK        -0.1800 
     59 N          -1.7958  -12.1500  -43.8604 N.am      3 UNK        -0.5000 
     60 C          -3.1077  -12.0237  -44.1061 C.2       2 UNK         0.5000 
     61 O          -3.9586  -11.8842  -43.2269 O.2       2 UNK        -0.5000 
     62 CA         -3.5460  -12.0649  -45.5842 C.3       2 UNK         0.1400 
     63 CB         -3.5327  -10.6530  -46.1895 C.3       2 UNK        -0.1800 
     64 N          -2.7034  -12.9433  -46.3977 N.am      2 UNK        -0.5000 
     65 C          -2.7160  -14.2820  -46.3254 C.2       1 UNK         0.5000 
     66 O          -3.5075  -14.9176  -45.6296 O.2       1 UNK        -0.5000 
     67 C          -0.9145  -21.0389  -47.6570 C.2       11 UNK         0.5000 
     68 O          -1.8070  -21.1055  -48.5015 O.2       11 UNK        -0.5000 
     69 N          -1.1004  -20.5330  -46.4282 N.am      12 UNK        -0.5000 
     70 CA         -2.3757  -19.9995  -45.9432 C.3       12 UNK         0.1400 
     71 CB         -2.1606  -19.2821  -44.6039 C.3       12 UNK        -0.1800 
     72 C          -3.4618  -21.0856  -45.8228 C.2       12 UNK         0.5000 
     73 O          -4.6371  -20.8000  -46.0535 O.2       12 UNK        -0.5000 
     74 N          -3.0374  -22.3224  -45.5276 N.am      13 UNK        -0.5000 
     75 CA         -3.8633  -23.5291  -45.4841 C.3       13 UNK         0.1400 
     76 CB         -3.0136  -24.6984  -44.9651 C.3       13 UNK        -0.1800 
     77 C          -4.5262  -23.8953  -46.8288 C.2       13 UNK         0.5000 
     78 O          -5.5413  -24.5916  -46.8201 O.2       13 UNK        -0.5000 
     79 N          -4.0021  -23.3853  -47.9547 N.am      14 UNK        -0.5000 
     80 CA         -4.5833  -23.5087  -49.2970 C.3       14 UNK         0.1400 
     81 CB         -3.4595  -23.3713  -50.3426 C.3       14 UNK        -0.1800 
     82 C          -5.7314  -22.4973  -49.5290 C.2       14 UNK         0.5000 
     83 O          -5.8201  -21.8997  -50.6035 O.2       14 UNK        -0.5000 
     84 N          -6.5734  -22.2973  -48.5039 N.am      15 UNK        -0.5000 
     85 CA         -7.6956  -21.3564  -48.4309 C.3       15 UNK         0.1400 
     86 CB         -8.8425  -21.8284  -49.3491 C.3       15 UNK        -0.1800 
     87 C          -7.2611  -19.9006  -48.7012 C.2       15 UNK         0.5000 
     88 O          -7.8812  -19.2127  -49.5107 O.2       15 UNK        -0.5000 
     89 N          -6.1597  -19.4786  -48.0608 N.am      16 UNK        -0.5000 
     90 CA         -5.4616  -18.2021  -48.2668 C.3       16 UNK         0.1400 
     91 CB         -6.3116  -17.0185  -47.7601 C.3       16 UNK        -0.1800 
     92 C          -4.9703  -18.0244  -49.7213 C.2       16 UNK         0.5000 
     93 O          -5.0401  -16.9245  -50.2713 O.2       16 UNK        -0.5000 
     94 N          -4.5037  -19.1347  -50.3108 N.am      17 UNK        -0.5000 
     95 CA         -4.0624  -19.3006  -51.6982 C.3       17 UNK         0.1400 
     96 CB         -2.8030  -18.4633  -51.9890 C.3       17 UNK        -0.1800 
     97 C          -5.1819  -19.1089  -52.7441 C.2       17 UNK         0.5000 
     98 O          -4.8907  -18.7984  -53.9008 O.2       17 UNK        -0.5000 
     99 N          -6.4437  -19.3281  -52.3436 N.am      18 UNK        -0.5000 
    100 CA        -7.5776  -19.4296  -53.2639 C.3       18 UNK         0.1400 
    101 CB        -8.8949  -19.1938  -52.5121 C.3       18 UNK        -0.1800 
    102 C         -7.5998  -20.7889  -53.9872 C.2       18 UNK         0.5000 
    103 O         -8.0735  -20.8569  -55.1225 O.2       18 UNK        -0.5000 
    104 N         -7.0725  -21.8383  -53.3385 N.am      19 UNK        -0.5000 
    105 CA        -6.8090  -23.1313  -53.9643 C.3       19 UNK         0.1400 
    106 CB        -6.7503  -24.2217  -52.8842 C.3       19 UNK        -0.1800 
    107 C         -5.4944  -23.0702  -54.7637 C.2       19 UNK         0.5000 
    108 O         -4.5705  -22.3462  -54.3827 O.2       19 UNK        -0.5000 
    109 N         -5.4406  -23.8319  -55.8614 N.am      20 UNK        -0.5000 
    110 CA        -4.2987  -23.9043  -56.7725 C.3       20 UNK         0.1400 
    111 CB        -4.7431  -24.6354  -58.0503 C.3       20 UNK        -0.1800 
    112 C         -3.0710  -24.6017  -56.1533 C.2       20 UNK         0.5000 
    113 O         -3.2086  -25.3757  -55.2026 O.2       20 UNK        -0.5000 
    114 N         -1.9022  -24.3428  -56.7567 N.am      21 UNK        -0.5000 
    115 CA        -0.5939  -24.9305  -56.4460 C.3       21 UNK         0.1400 
    116 CB        -0.5886  -26.4480  -56.7321 C.3       21 UNK        -0.1800 
    117 C         -0.0740  -24.5730  -55.0374 C.2       21 UNK         0.5000 
    118 O          0.4847  -25.4284  -54.3470 O.2       21 UNK        -0.5000 
    119 N         -0.2491  -23.3047  -54.6440 N.am      22 UNK        -0.5000 
    120 CA         0.3727  -22.7121  -53.4498 C.3       22 UNK         0.1400 
    121 C          1.9249  -22.6315  -53.5457 C.2       22 UNK         0.5000 
    122 N          2.6261  -22.6830  -52.4216 N.am      22 UNK        -0.7600 
    123 O          2.5011  -22.5025  -54.6241 O.2       22 UNK        -0.5000 
    124 C124       -0.2592  -21.3438  -53.0779 C.3       23 UNK        -0.0398 
    125 S125       -0.3568  -20.1187  -54.4386 S.3       23 UNK        -0.2404 
    126 C126        1.1689  -19.1260  -54.2708 C.3       23 UNK        -0.0205 
    127 H127        1.7040  -12.0473  -46.5622 H         1 UNK         0.0600 
    128 H128        2.5294  -13.5725  -46.9134 H         1 UNK         0.0600 
    129 H129        1.5214  -12.8085  -48.1438 H         1 UNK         0.0600 
    130 H130       -0.3011  -14.0474  -48.4152 H         1 UNK         0.3000 
    131 H131       -1.3239  -15.8606  -46.4751 H         1 UNK         0.0600 
    132 H132       -2.4146  -14.9305  -49.1830 H         1 UNK         0.0800 
    133 H133       -3.2181  -16.1188  -48.1955 H         1 UNK         0.0800 
    134 H134        0.3193  -15.3612  -49.9454 H         1 UNK         0.0800 
    135 H135       -0.9220  -15.7915  -51.1061 H         1 UNK         0.0800 
    136 H136       -0.2635  -17.2324  -52.9095 H         1 UNK         0.1150 
    137 H137        3.0648  -19.8998  -52.4837 H         1 UNK         0.1150 
    138 H138        1.9218  -17.3685  -49.2244 H         1 UNK         0.1150 
    139 H139        4.5524  -19.5731  -50.4126 H         1 UNK         0.0800 
    140 H140        3.8776  -18.7707  -49.0131 H         1 UNK         0.0800 
    141 H141        1.4631  -19.6255  -48.0010 H         1 UNK         0.0800 
    142 H142        0.7525  -20.0944  -49.5266 H         1 UNK         0.0800 
    143 H143        0.3572  -22.3714  -48.7321 H         1 UNK         0.0600 
    144 H144        1.8163  -21.5630  -46.3276 H         1 UNK         0.3000 
    145 H145        0.9597  -24.6471  -44.6351 H         1 UNK         0.0600 
    146 H146        3.4226  -24.6937  -44.4053 H         1 UNK         0.0600 
    147 H147        2.9787  -25.0794  -46.0611 H         1 UNK         0.0600 
    148 H148        3.5993  -23.4788  -45.6705 H         1 UNK         0.0600 
    149 H149        2.4738  -22.5422  -43.6230 H         1 UNK         0.3000 
    150 H150       -0.0370  -20.3877  -42.3974 H         1 UNK         0.0600 
    151 H151       -0.1526  -22.2422  -40.7757 H         1 UNK         0.0600 
    152 H152        0.9336  -20.9901  -40.1931 H         1 UNK         0.0600 
    153 H153        1.5845  -22.4847  -40.8659 H         1 UNK         0.0600 
    154 H154        1.8042  -19.3078  -42.7993 H         1 UNK         0.3000 
    155 H155        4.6816  -19.1467  -42.1764 H         1 UNK         0.0600 
    156 H156        6.0504  -20.9444  -43.1584 H         1 UNK         0.0600 
    157 H157        6.2398  -19.4868  -44.1168 H         1 UNK         0.0600 
    158 H158        5.2180  -20.7998  -44.7007 H         1 UNK         0.0600 
    159 H159        3.8513  -17.6170  -43.5105 H         1 UNK         0.3000 
    160 H160        3.2105  -17.2209  -46.6729 H         1 UNK         0.0600 
    161 H161        0.5241  -17.0414  -45.2681 H         1 UNK         0.0600 
    162 H162        0.8013  -18.3427  -46.3936 H         1 UNK         0.0600 
    163 H163        0.9464  -16.6861  -46.9365 H         1 UNK         0.0600 
    164 H164        2.1417  -15.9211  -44.2492 H         1 UNK         0.3000 
    165 H165        5.1286  -14.4097  -43.3065 H         1 UNK         0.0600 
    166 H166        4.3936  -12.7390  -45.0412 H         1 UNK         0.0600 
    167 H167        2.7344  -12.9124  -44.4809 H         1 UNK         0.0600 
    168 H168        3.9635  -12.2516  -43.4088 H         1 UNK         0.0600 
    169 H169        2.3778  -14.1694  -42.4513 H         1 UNK         0.3000 
    170 H170        2.3831  -17.0360  -40.3267 H         1 UNK         0.0600 
    171 H171        3.4830  -15.2357  -38.9788 H         1 UNK         0.0600 
    172 H172        2.3957  -14.0378  -39.6730 H         1 UNK         0.0600 
    173 H173        1.7603  -15.3220  -38.6459 H         1 UNK         0.0600 
    174 H174        0.4237  -15.0102  -40.8261 H         1 UNK         0.3000 
    175 H175       -1.0987  -16.5016  -43.6624 H         1 UNK         0.0600 
    176 H176       -2.0836  -16.2693  -40.7760 H         1 UNK         0.0600 
    177 H177       -3.1020  -16.3426  -42.2145 H         1 UNK         0.0600 
    178 H178       -2.1011  -17.7167  -41.7707 H         1 UNK         0.0600 
    179 H179       -0.9957  -14.3374  -43.8385 H         1 UNK         0.3000 
    180 H180       -1.8011  -11.6014  -41.8316 H         1 UNK         0.0600 
    181 H181        0.8540  -12.1409  -43.2641 H         1 UNK         0.0600 
    182 H182        0.1747  -10.5537  -42.9135 H         1 UNK         0.0600 
    183 H183        0.6808  -11.6023  -41.5981 H         1 UNK         0.0600 
    184 H184       -1.1654  -12.2943  -44.6370 H         1 UNK         0.3000 
    185 H185       -4.5712  -12.4402  -45.6176 H         1 UNK         0.0600 
    186 H186       -3.9043  -10.6599  -47.2144 H         1 UNK         0.0600 
    187 H187       -4.1710   -9.9777  -45.6181 H         1 UNK         0.0600 
    188 H188       -2.5288  -10.2267  -46.1984 H         1 UNK         0.0600 
    189 H189       -2.0259  -12.4990  -46.9999 H         1 UNK         0.3000 
    190 H190       -0.3353  -20.5612  -45.7715 H         1 UNK         0.3000 
    191 H191       -2.7153  -19.2610  -46.6709 H         1 UNK         0.0600 
    192 H192       -3.0513  -18.7215  -44.3176 H         1 UNK         0.0600 
    193 H193       -1.3342  -18.5761  -44.6645 H         1 UNK         0.0600 
    194 H194       -1.9451  -19.9830  -43.7982 H         1 UNK         0.0600 
    195 H195       -2.0623  -22.4386  -45.2717 H         1 UNK         0.3000 
    196 H196       -4.6666  -23.3477  -44.7674 H         1 UNK         0.0600 
    197 H197       -3.6129  -25.6042  -44.8654 H         1 UNK         0.0600 
    198 H198       -2.5936  -24.4772  -43.9836 H         1 UNK         0.0600 
    199 H199       -2.1877  -24.9242  -45.6398 H         1 UNK         0.0600 
    200 H200       -3.1934  -22.7811  -47.8792 H         1 UNK         0.3000 
    201 H201       -5.0119  -24.5071  -49.4035 H         1 UNK         0.0600 
    202 H202       -3.0550  -22.3602  -50.3715 H         1 UNK         0.0600 
    203 H203       -3.8196  -23.5990  -51.3457 H         1 UNK         0.0600 
    204 H204       -2.6371  -24.0555  -50.1334 H         1 UNK         0.0600 
    205 H205       -6.4164  -22.8556  -47.6736 H         1 UNK         0.3000 
    206 H206       -8.0602  -21.3807  -47.4031 H         1 UNK         0.0600 
    207 H207       -9.1720  -22.8316  -49.0794 H         1 UNK         0.0600 
    208 H208       -9.7086  -21.1707  -49.2677 H         1 UNK         0.0600 
    209 H209       -8.5416  -21.8491  -50.3967 H         1 UNK         0.0600 
    210 H210       -5.7168  -20.1085  -47.3941 H         1 UNK         0.3000 
    211 H211       -4.5649  -18.2421  -47.6492 H         1 UNK         0.0600 
    212 H212       -7.2052  -16.8706  -48.3669 H         1 UNK         0.0600 
    213 H213       -5.7425  -16.0885  -47.7854 H         1 UNK         0.0600 
    214 H214       -6.6275  -17.1746  -46.7287 H         1 UNK         0.0600 
    215 H215       -4.5324  -19.9912  -49.7761 H         1 UNK         0.3000 
    216 H216       -3.7717  -20.3479  -51.7910 H         1 UNK         0.0600 
    217 H217       -2.9791  -17.3952  -51.8653 H         1 UNK         0.0600 
    218 H218       -2.4526  -18.6175  -53.0088 H         1 UNK         0.0600 
    219 H219       -1.9882  -18.7535  -51.3265 H         1 UNK         0.0600 
    220 H220       -6.6195  -19.5587  -51.3734 H         1 UNK         0.3000 
    221 H221       -7.4844  -18.6486  -54.0214 H         1 UNK         0.0600 
    222 H222       -9.0892  -19.9781  -51.7813 H         1 UNK         0.0600 
    223 H223       -8.8854  -18.2385  -51.9870 H         1 UNK         0.0600 
    224 H224       -9.7383  -19.1776  -53.2033 H         1 UNK         0.0600 
    225 H225       -6.6529  -21.6936  -52.4252 H         1 UNK         0.3000 
    226 H226       -7.6297  -23.3710  -54.6440 H         1 UNK         0.0600 
    227 H227       -7.6588  -24.2322  -52.2818 H         1 UNK         0.0600 
    228 H228       -6.6442  -25.2092  -53.3346 H         1 UNK         0.0600 
    229 H229       -5.9051  -24.0793  -52.2134 H         1 UNK         0.0600 
    230 H230       -6.2250  -24.4272  -56.0830 H         1 UNK         0.3000 
    231 H231       -4.0143  -22.8833  -57.0366 H         1 UNK         0.0600 
    232 H232       -5.0475  -25.6617  -57.8403 H         1 UNK         0.0600 
    233 H233       -5.5820  -24.1265  -58.5255 H         1 UNK         0.0600 
    234 H234       -3.9362  -24.6775  -58.7830 H         1 UNK         0.0600 
    235 H235       -1.9036  -23.6911  -57.5293 H         1 UNK         0.3000 
    236 H236        0.1114  -24.4732  -57.1416 H         1 UNK         0.0600 
    237 H237       -0.9368  -26.6600  -57.7430 H         1 UNK         0.0600 
    238 H238        0.4182  -26.8581  -56.6449 H         1 UNK         0.0600 
    239 H239       -1.2244  -26.9959  -56.0363 H         1 UNK         0.0600 
    240 H240       -0.7064  -22.6567  -55.2682 H         1 UNK         0.3000 
    241 H241        0.1528  -23.3918  -52.6237 H         1 UNK         0.0600 
    242 H242        3.6309  -22.6320  -52.4750 H         1 UNK         0.3800 
    243 H243        2.1882  -22.7767  -51.5192 H         1 UNK         0.3800 
    244 H244        0.2331  -20.9117  -52.2066 H         1 UNK         0.0800 
    245 H245       -1.2857  -21.5189  -52.7521 H         1 UNK         0.0800 
    246 H246        2.0181  -19.7280  -54.5967 H         1 UNK         0.0800 
    247 H247        1.1152  -18.2846  -54.9627 H         1 UNK         0.0800 
@<TRIPOS>BOND
     1    1    2 1    
     2    1  127 1    
     3    1  128 1    
     4    1  129 1    
     5    2    3 2    
     6    2    4 am   BACKBONE|DICT|INTERRES
     7    4    5 1    
     8    4  130 1    
     9    5    6 1    
    10    5   65 1    
    11    5  131 1    
    12    6    7 1    
    13    6  132 1    
    14    6  133 1    
    15    7    8 1    
    16    8    9 1    
    17    8  134 1    
    18    8  135 1    
    19    9   10 ar   
    20    9   14 ar   
    21   10   11 ar   
    22   10  136 1    
    23   11   12 ar   
    24   11  126 1    
    25   12   13 ar   
    26   12  137 1    
    27   13   14 ar   
    28   13   15 1    
    29   14  138 1    
    30   15   16 1    
    31   15  139 1    
    32   15  140 1    
    33   16   17 1    
    34   17   18 1    
    35   17  141 1    
    36   17  142 1    
    37   18   19 1    
    38   18   67 1    
    39   18  143 1    
    40   19   20 am   BACKBONE|DICT|INTERRES
    41   19  144 1    
    42   20   21 2    
    43   20   22 1    
    44   22   23 1    
    45   22   24 1    
    46   22  145 1    
    47   23  146 1    
    48   23  147 1    
    49   23  148 1    
    50   24   25 am   BACKBONE|DICT|INTERRES
    51   24  149 1    
    52   25   26 2    
    53   25   27 1    
    54   27   28 1    
    55   27   29 1    
    56   27  150 1    
    57   28  151 1    
    58   28  152 1    
    59   28  153 1    
    60   29   30 am   BACKBONE|DICT|INTERRES
    61   29  154 1    
    62   30   31 2    
    63   30   32 1    
    64   32   33 1    
    65   32   34 1    
    66   32  155 1    
    67   33  156 1    
    68   33  157 1    
    69   33  158 1    
    70   34   35 am   BACKBONE|DICT|INTERRES
    71   34  159 1    
    72   35   36 2    
    73   35   37 1    
    74   37   38 1    
    75   37   39 1    
    76   37  160 1    
    77   38  161 1    
    78   38  162 1    
    79   38  163 1    
    80   39   40 am   BACKBONE|DICT|INTERRES
    81   39  164 1    
    82   40   41 2    
    83   40   42 1    
    84   42   43 1    
    85   42   44 1    
    86   42  165 1    
    87   43  166 1    
    88   43  167 1    
    89   43  168 1    
    90   44   45 am   BACKBONE|DICT|INTERRES
    91   44  169 1    
    92   45   46 2    
    93   45   47 1    
    94   47   48 1    
    95   47   49 1    
    96   47  170 1    
    97   48  171 1    
    98   48  172 1    
    99   48  173 1    
   100   49   50 am   BACKBONE|DICT|INTERRES
   101   49  174 1    
   102   50   51 2    
   103   50   52 1    
   104   52   53 1    
   105   52   54 1    
   106   52  175 1    
   107   53  176 1    
   108   53  177 1    
   109   53  178 1    
   110   54   55 am   BACKBONE|DICT|INTERRES
   111   54  179 1    
   112   55   56 2    
   113   55   57 1    
   114   57   58 1    
   115   57   59 1    
   116   57  180 1    
   117   58  181 1    
   118   58  182 1    
   119   58  183 1    
   120   59   60 am   BACKBONE|DICT|INTERRES
   121   59  184 1    
   122   60   61 2    
   123   60   62 1    
   124   62   63 1    
   125   62   64 1    
   126   62  185 1    
   127   63  186 1    
   128   63  187 1    
   129   63  188 1    
   130   64   65 am   BACKBONE|DICT|INTERRES
   131   64  189 1    
   132   65   66 2    
   133   67   68 2    
   134   67   69 am   BACKBONE|DICT|INTERRES
   135   69   70 1    
   136   69  190 1    
   137   70   71 1    
   138   70   72 1    
   139   70  191 1    
   140   71  192 1    
   141   71  193 1    
   142   71  194 1    
   143   72   73 2    
   144   72   74 am   BACKBONE|DICT|INTERRES
   145   74   75 1    
   146   74  195 1    
   147   75   76 1    
   148   75   77 1    
   149   75  196 1    
   150   76  197 1    
   151   76  198 1    
   152   76  199 1    
   153   77   78 2    
   154   77   79 am   BACKBONE|DICT|INTERRES
   155   79   80 1    
   156   79  200 1    
   157   80   81 1    
   158   80   82 1    
   159   80  201 1    
   160   81  202 1    
   161   81  203 1    
   162   81  204 1    
   163   82   83 2    
   164   82   84 am   BACKBONE|DICT|INTERRES
   165   84   85 1    
   166   84  205 1    
   167   85   86 1    
   168   85   87 1    
   169   85  206 1    
   170   86  207 1    
   171   86  208 1    
   172   86  209 1    
   173   87   88 2    
   174   87   89 am   BACKBONE|DICT|INTERRES
   175   89   90 1    
   176   89  210 1    
   177   90   91 1    
   178   90   92 1    
   179   90  211 1    
   180   91  212 1    
   181   91  213 1    
   182   91  214 1    
   183   92   93 2    
   184   92   94 am   BACKBONE|DICT|INTERRES
   185   94   95 1    
   186   94  215 1    
   187   95   96 1    
   188   95   97 1    
   189   95  216 1    
   190   96  217 1    
   191   96  218 1    
   192   96  219 1    
   193   97   98 2    
   194   97   99 am   BACKBONE|DICT|INTERRES
   195   99  100 1    
   196   99  220 1    
   197  100  101 1    
   198  100  102 1    
   199  100  221 1    
   200  101  222 1    
   201  101  223 1    
   202  101  224 1    
   203  102  103 2    
   204  102  104 am   BACKBONE|DICT|INTERRES
   205  104  105 1    
   206  104  225 1    
   207  105  106 1    
   208  105  107 1    
   209  105  226 1    
   210  106  227 1    
   211  106  228 1    
   212  106  229 1    
   213  107  108 2    
   214  107  109 am   BACKBONE|DICT|INTERRES
   215  109  110 1    
   216  109  230 1    
   217  110  111 1    
   218  110  112 1    
   219  110  231 1    
   220  111  232 1    
   221  111  233 1    
   222  111  234 1    
   223  112  113 2    
   224  112  114 am   BACKBONE|DICT|INTERRES
   225  114  115 1    
   226  114  235 1    
   227  115  116 1    
   228  115  117 1    
   229  115  236 1    
   230  116  237 1    
   231  116  238 1    
   232  116  239 1    
   233  117  118 2    
   234  117  119 am   BACKBONE|DICT|INTERRES
   235  119  120 1    
   236  119  240 1    
   237  120  121 1    
   238  120  124 1    
   239  120  241 1    
   240  121  122 am   BACKBONE|DICT|INTERRES
   241  121  123 2    
   242  122  242 1    
   243  122  243 1    
   244  124  125 1    
   245  124  244 1    
   246  124  245 1    
   247  125  126 1    
   248  126  246 1    
   249  126  247 1    
@<TRIPOS>SUBSTRUCTURE
     1 UNK         1 GROUP             0       ****    0 ROOT    
