@<TRIPOS>MOLECULE
3R540
247   249    1
SMALL
USER_CHARGES


@<TRIPOS>ATOM
      1 CA         -4.3583  -17.9119  -46.8833 C.3       0 UNK        -0.1800 
      2 C          -3.7393  -16.7224  -47.6027 C.2       0 UNK         0.5000 
      3 O          -4.4121  -16.0549  -48.3864 O.2       0 UNK        -0.5000 
      4 N          -2.4588  -16.4495  -47.3327 N.am      1 UNK        -0.5000 
      5 CA         -1.6062  -15.4325  -47.9679 C.3       1 UNK         0.1400 
      6 C6         -0.1056  -15.7529  -47.7426 C.3       23 UNK        -0.0398 
      7 S7          0.3453  -17.4352  -48.2781 S.3       23 UNK        -0.2404 
      8 C8          1.4470  -17.0888  -49.6821 C.3       23 UNK        -0.0205 
      9 C9          1.8225  -18.3620  -50.4266 C.ar      23 UNK        -0.0193 
     10 C10         1.5144  -18.5044  -51.7823 C.ar      23 UNK        -0.1150 
     11 C11         1.8808  -19.6607  -52.4750 C.ar      23 UNK        -0.0193 
     12 C12         2.5401  -20.6884  -51.7946 C.ar      23 UNK        -0.1150 
     13 C13         2.8493  -20.5702  -50.4360 C.ar      23 UNK        -0.0193 
     14 C14         2.5003  -19.3905  -49.7649 C.ar      23 UNK        -0.1150 
     15 C15         3.5903  -21.7240  -49.7560 C.3       23 UNK        -0.0205 
     16 S16         3.5466  -21.7324  -47.9301 S.3       23 UNK        -0.2404 
     17 C17         1.7801  -22.0606  -47.5986 C.3       23 UNK        -0.0398 
     18 CA          1.5829  -23.0092  -46.3876 C.3       11 UNK         0.1400 
     19 N           2.1581  -22.4521  -45.1641 N.am      11 UNK        -0.5000 
     20 C           2.7496  -23.1493  -44.1894 C.2       10 UNK         0.5000 
     21 O           2.8628  -24.3758  -44.1996 O.2       10 UNK        -0.5000 
     22 CA          3.2600  -22.3398  -42.9850 C.3       10 UNK         0.1400 
     23 CB          4.5076  -21.5243  -43.3592 C.3       10 UNK        -0.1800 
     24 N           2.2314  -21.4494  -42.4460 N.am      10 UNK        -0.5000 
     25 C           1.1248  -21.8681  -41.8150 C.2       9 UNK         0.5000 
     26 O           0.8806  -23.0508  -41.5760 O.2       9 UNK        -0.5000 
     27 CA          0.1205  -20.7896  -41.3719 C.3       9 UNK         0.1400 
     28 CB          0.5436  -20.1747  -40.0292 C.3       9 UNK        -0.1800 
     29 N          -0.0428  -19.7289  -42.3645 N.am      9 UNK        -0.5000 
     30 C          -0.6589  -19.8788  -43.5456 C.2       8 UNK         0.5000 
     31 O          -1.2146  -20.9175  -43.9010 O.2       8 UNK        -0.5000 
     32 CA         -0.6389  -18.6637  -44.4945 C.3       8 UNK         0.1400 
     33 CB         -1.7567  -17.6757  -44.1248 C.3       8 UNK        -0.1800 
     34 N           0.6455  -17.9613  -44.4928 N.am      8 UNK        -0.5000 
     35 C           1.8123  -18.5056  -44.8679 C.2       7 UNK         0.5000 
     36 O           1.9302  -19.6547  -45.2868 O.2       7 UNK        -0.5000 
     37 CA          3.0705  -17.6437  -44.6818 C.3       7 UNK         0.1400 
     38 CB          3.2619  -16.6796  -45.8619 C.3       7 UNK        -0.1800 
     39 N           3.0318  -16.8999  -43.4224 N.am      7 UNK        -0.5000 
     40 C           3.1497  -17.4674  -42.2130 C.2       6 UNK         0.5000 
     41 O           3.3445  -18.6703  -42.0388 O.2       6 UNK        -0.5000 
     42 CA          2.9750  -16.5427  -40.9941 C.3       6 UNK         0.1400 
     43 CB          4.2747  -15.7790  -40.7000 C.3       6 UNK        -0.1800 
     44 N           1.8780  -15.5892  -41.1660 N.am      6 UNK        -0.5000 
     45 C           0.5849  -15.9323  -41.2524 C.2       5 UNK         0.5000 
     46 O           0.1793  -17.0884  -41.1466 O.2       5 UNK        -0.5000 
     47 CA         -0.4196  -14.8038  -41.5534 C.3       5 UNK         0.1400 
     48 CB         -0.9289  -14.1723  -40.2499 C.3       5 UNK        -0.1800 
     49 N           0.1130  -13.7518  -42.4227 N.am      5 UNK        -0.5000 
     50 C           0.5906  -13.9334  -43.6601 C.2       4 UNK         0.5000 
     51 O           0.6581  -15.0350  -44.2082 O.2       4 UNK        -0.5000 
     52 CA          1.0580  -12.6625  -44.3920 C.3       4 UNK         0.1400 
     53 CB          1.9079  -12.9670  -45.6378 C.3       4 UNK        -0.1800 
     54 N          -0.0891  -11.8361  -44.7681 N.am      4 UNK        -0.5000 
     55 C          -0.7189  -10.9911  -43.9378 C.2       3 UNK         0.5000 
     56 O          -0.3758  -10.8201  -42.7663 O.2       3 UNK        -0.5000 
     57 CA         -1.9239  -10.1992  -44.4832 C.3       3 UNK         0.1400 
     58 CB         -1.5124   -8.7538  -44.8037 C.3       3 UNK        -0.1800 
     59 N          -2.5311  -10.7894  -45.6756 N.am      3 UNK        -0.5000 
     60 C          -3.2895  -11.8929  -45.6879 C.2       2 UNK         0.5000 
     61 O          -3.5711  -12.5389  -44.6772 O.2       2 UNK        -0.5000 
     62 CA         -3.8199  -12.3680  -47.0583 C.3       2 UNK         0.1400 
     63 CB         -3.6401  -11.3410  -48.1993 C.3       2 UNK        -0.1800 
     64 N          -3.2446  -13.6573  -47.4470 N.am      2 UNK        -0.5000 
     65 C          -1.9478  -13.9786  -47.5467 C.2       1 UNK         0.5000 
     66 O          -1.0412  -13.1738  -47.3234 O.2       1 UNK        -0.5000 
     67 C           0.1004  -23.3490  -46.1377 C.2       11 UNK         0.5000 
     68 O          -0.7783  -22.8408  -46.8308 O.2       11 UNK        -0.5000 
     69 N          -0.1621  -24.2021  -45.1382 N.am      12 UNK        -0.5000 
     70 CA         -1.5083  -24.5878  -44.7037 C.3       12 UNK         0.1400 
     71 CB         -1.4002  -25.3904  -43.3989 C.3       12 UNK        -0.1800 
     72 C          -2.3109  -25.3821  -45.7547 C.2       12 UNK         0.5000 
     73 O          -3.5416  -25.3833  -45.6920 O.2       12 UNK        -0.5000 
     74 N          -1.6018  -26.0343  -46.6894 N.am      13 UNK        -0.5000 
     75 CA         -2.1141  -26.8528  -47.7903 C.3       13 UNK         0.1400 
     76 CB         -0.9298  -27.3061  -48.6597 C.3       13 UNK        -0.1800 
     77 C          -3.1764  -26.1242  -48.6355 C.2       13 UNK         0.5000 
     78 O          -2.8348  -25.2537  -49.4407 O.2       13 UNK        -0.5000 
     79 N          -4.4479  -26.4707  -48.3872 N.am      14 UNK        -0.5000 
     80 CA         -5.6588  -25.8932  -48.9799 C.3       14 UNK         0.1400 
     81 CB         -5.7966  -26.3371  -50.4508 C.3       14 UNK        -0.1800 
     82 C          -5.7596  -24.3627  -48.7966 C.2       14 UNK         0.5000 
     83 O          -6.2446  -23.6737  -49.6949 O.2       14 UNK        -0.5000 
     84 N          -5.2723  -23.8630  -47.6480 N.am      15 UNK        -0.5000 
     85 CA         -5.1506  -22.4467  -47.2837 C.3       15 UNK         0.1400 
     86 CB         -6.5409  -21.8236  -47.0400 C.3       15 UNK        -0.1800 
     87 C          -4.3171  -21.6679  -48.3203 C.2       15 UNK         0.5000 
     88 O          -4.8257  -20.7475  -48.9620 O.2       15 UNK        -0.5000 
     89 N          -3.0625  -22.1033  -48.4956 N.am      16 UNK        -0.5000 
     90 CA         -2.0832  -21.6204  -49.4713 C.3       16 UNK         0.1400 
     91 CB         -1.6264  -20.1903  -49.1204 C.3       16 UNK        -0.1800 
     92 C          -2.5884  -21.7578  -50.9177 C.2       16 UNK         0.5000 
     93 O          -2.5284  -20.7939  -51.6783 O.2       16 UNK        -0.5000 
     94 N          -3.1117  -22.9476  -51.2513 N.am      17 UNK        -0.5000 
     95 CA         -3.7110  -23.3071  -52.5407 C.3       17 UNK         0.1400 
     96 CB         -2.6182  -23.4478  -53.6193 C.3       17 UNK        -0.1800 
     97 C          -4.8395  -22.3395  -52.9563 C.2       17 UNK         0.5000 
     98 O          -4.7671  -21.7243  -54.0199 O.2       17 UNK        -0.5000 
     99 N          -5.8497  -22.2113  -52.0853 N.am      18 UNK        -0.5000 
    100 CA        -7.0152  -21.3346  -52.2110 C.3       18 UNK         0.1400 
    101 CB        -7.9068  -21.7642  -53.3957 C.3       18 UNK        -0.1800 
    102 C         -6.6281  -19.8421  -52.2443 C.2       18 UNK         0.5000 
    103 O         -6.9783  -19.1273  -53.1845 O.2       18 UNK        -0.5000 
    104 N         -5.9238  -19.4063  -51.1919 N.am      19 UNK        -0.5000 
    105 CA        -5.5207  -18.0308  -50.8986 C.3       19 UNK         0.1400 
    106 CB        -6.7533  -17.1330  -50.6583 C.3       19 UNK        -0.1800 
    107 C         -4.5315  -17.4542  -51.9283 C.2       19 UNK         0.5000 
    108 O         -4.7987  -16.4184  -52.5404 O.2       19 UNK        -0.5000 
    109 N         -3.3973  -18.1493  -52.0873 N.am      20 UNK        -0.5000 
    110 CA        -2.2441  -17.8136  -52.9279 C.3       20 UNK         0.1400 
    111 CB        -1.6384  -16.4480  -52.5375 C.3       20 UNK        -0.1800 
    112 C         -2.5062  -17.9486  -54.4406 C.2       20 UNK         0.5000 
    113 O         -1.7018  -17.4673  -55.2406 O.2       20 UNK        -0.5000 
    114 N         -3.5840  -18.6446  -54.8272 N.am      21 UNK        -0.5000 
    115 CA        -3.9445  -18.9531  -56.2129 C.3       21 UNK         0.1400 
    116 CB        -5.4731  -19.1021  -56.3102 C.3       21 UNK        -0.1800 
    117 C         -3.1815  -20.1921  -56.7318 C.2       21 UNK         0.5000 
    118 O         -3.7863  -21.1185  -57.2748 O.2       21 UNK        -0.5000 
    119 N         -1.8566  -20.1850  -56.5442 N.am      22 UNK        -0.5000 
    120 CA        -0.9359  -21.2892  -56.8564 C.3       22 UNK         0.1400 
    121 C         -0.7036  -21.5487  -58.3751 C.2       22 UNK         0.5000 
    122 N         -1.1086  -20.6619  -59.2762 N.am      22 UNK        -0.7600 
    123 O         -0.1452  -22.5786  -58.7431 O.2       22 UNK        -0.5000 
    124 C124        0.4215  -21.1222  -56.1251 C.3       23 UNK        -0.0398 
    125 S125        0.2612  -20.9566  -54.3127 S.3       23 UNK        -0.2404 
    126 C126        1.6083  -19.7872  -53.9663 C.3       23 UNK        -0.0205 
    127 H127       -4.8164  -17.5904  -45.9482 H         1 UNK         0.0600 
    128 H128       -3.6109  -18.6745  -46.6621 H         1 UNK         0.0600 
    129 H129       -5.1305  -18.3712  -47.5004 H         1 UNK         0.0600 
    130 H130       -1.9718  -17.0392  -46.6755 H         1 UNK         0.3000 
    131 H131       -1.7905  -15.4815  -49.0430 H         1 UNK         0.0600 
    132 H132        0.1389  -15.6686  -46.6839 H         1 UNK         0.0800 
    133 H133        0.5288  -15.0323  -48.2614 H         1 UNK         0.0800 
    134 H134        0.9578  -16.3816  -50.3536 H         1 UNK         0.0800 
    135 H135        2.3540  -16.6036  -49.3191 H         1 UNK         0.0800 
    136 H136        1.0087  -17.7065  -52.3051 H         1 UNK         0.1150 
    137 H137        2.8223  -21.5827  -52.3327 H         1 UNK         0.1150 
    138 H138        2.7437  -19.2596  -48.7206 H         1 UNK         0.1150 
    139 H139        3.1976  -22.6764  -50.1158 H         1 UNK         0.0800 
    140 H140        4.6344  -21.6856  -50.0688 H         1 UNK         0.0800 
    141 H141        1.3278  -22.4933  -48.4925 H         1 UNK         0.0800 
    142 H142        1.2751  -21.1068  -47.4345 H         1 UNK         0.0800 
    143 H143        2.0841  -23.9493  -46.6277 H         1 UNK         0.0600 
    144 H144        2.0875  -21.4391  -45.0779 H         1 UNK         0.3000 
    145 H145        3.5423  -23.0465  -42.2018 H         1 UNK         0.0600 
    146 H146        5.2911  -22.1698  -43.7578 H         1 UNK         0.0600 
    147 H147        4.2865  -20.7708  -44.1158 H         1 UNK         0.0600 
    148 H148        4.9185  -21.0124  -42.4889 H         1 UNK         0.0600 
    149 H149        2.3876  -20.4535  -42.5553 H         1 UNK         0.3000 
    150 H150       -0.8476  -21.2749  -41.2312 H         1 UNK         0.0600 
    151 H151        0.6682  -20.9453  -39.2675 H         1 UNK         0.0600 
    152 H152       -0.2075  -19.4745  -39.6633 H         1 UNK         0.0600 
    153 H153        1.4888  -19.6371  -40.1122 H         1 UNK         0.0600 
    154 H154        0.3143  -18.8127  -42.1125 H         1 UNK         0.3000 
    155 H155       -0.8142  -19.0243  -45.5105 H         1 UNK         0.0600 
    156 H156       -1.6965  -16.7583  -44.7090 H         1 UNK         0.0600 
    157 H157       -1.7108  -17.3949  -43.0731 H         1 UNK         0.0600 
    158 H158       -2.7381  -18.1184  -44.2960 H         1 UNK         0.0600 
    159 H159        0.6415  -16.9901  -44.1953 H         1 UNK         0.3000 
    160 H160        3.9324  -18.3137  -44.6553 H         1 UNK         0.0600 
    161 H161        2.4329  -15.9794  -45.9532 H         1 UNK         0.0600 
    162 H162        3.3283  -17.2281  -46.8025 H         1 UNK         0.0600 
    163 H163        4.1798  -16.1017  -45.7559 H         1 UNK         0.0600 
    164 H164        2.7991  -15.9196  -43.4818 H         1 UNK         0.3000 
    165 H165        2.7457  -17.1710  -40.1307 H         1 UNK         0.0600 
    166 H166        4.1842  -15.1823  -39.7922 H         1 UNK         0.0600 
    167 H167        5.1069  -16.4687  -40.5527 H         1 UNK         0.0600 
    168 H168        4.5443  -15.1088  -41.5172 H         1 UNK         0.0600 
    169 H169        2.1249  -14.6153  -41.2611 H         1 UNK         0.3000 
    170 H170       -1.2710  -15.2508  -42.0694 H         1 UNK         0.0600 
    171 H171       -1.3561  -14.9287  -39.5901 H         1 UNK         0.0600 
    172 H172       -0.1270  -13.6740  -39.7037 H         1 UNK         0.0600 
    173 H173       -1.7088  -13.4364  -40.4469 H         1 UNK         0.0600 
    174 H174        0.0473  -12.7998  -42.0812 H         1 UNK         0.3000 
    175 H175        1.6932  -12.1017  -43.7030 H         1 UNK         0.0600 
    176 H176        2.2409  -12.0485  -46.1208 H         1 UNK         0.0600 
    177 H177        2.7998  -13.5341  -45.3697 H         1 UNK         0.0600 
    178 H178        1.3600  -13.5504  -46.3754 H         1 UNK         0.0600 
    179 H179       -0.4679  -11.9938  -45.6962 H         1 UNK         0.3000 
    180 H180       -2.6778  -10.1701  -43.6936 H         1 UNK         0.0600 
    181 H181       -0.7663   -8.7149  -45.5985 H         1 UNK         0.0600 
    182 H182       -1.0842   -8.2652  -43.9275 H         1 UNK         0.0600 
    183 H183       -2.3704   -8.1592  -45.1179 H         1 UNK         0.0600 
    184 H184       -2.3291  -10.3378  -46.5558 H         1 UNK         0.3000 
    185 H185       -4.8906  -12.5328  -46.9295 H         1 UNK         0.0600 
    186 H186       -4.1087  -10.3879  -47.9506 H         1 UNK         0.0600 
    187 H187       -2.5902  -11.1508  -48.4252 H         1 UNK         0.0600 
    188 H188       -4.1111  -11.6966  -49.1159 H         1 UNK         0.0600 
    189 H189       -3.9094  -14.3937  -47.6694 H         1 UNK         0.3000 
    190 H190        0.6154  -24.5600  -44.5978 H         1 UNK         0.3000 
    191 H191       -2.0648  -23.6713  -44.4957 H         1 UNK         0.0600 
    192 H192       -0.8171  -26.3021  -43.5342 H         1 UNK         0.0600 
    193 H193       -0.9271  -24.8023  -42.6128 H         1 UNK         0.0600 
    194 H194       -2.3864  -25.6811  -43.0343 H         1 UNK         0.0600 
    195 H195       -0.5984  -25.9431  -46.6433 H         1 UNK         0.3000 
    196 H196       -2.5680  -27.7441  -47.3530 H         1 UNK         0.0600 
    197 H197       -1.2712  -27.9167  -49.4966 H         1 UNK         0.0600 
    198 H198       -0.2254  -27.9083  -48.0857 H         1 UNK         0.0600 
    199 H199       -0.3853  -26.4565  -49.0743 H         1 UNK         0.0600 
    200 H200       -4.6130  -27.1581  -47.6648 H         1 UNK         0.3000 
    201 H201       -6.5024  -26.3128  -48.4303 H         1 UNK         0.0600 
    202 H202       -5.8084  -27.4239  -50.5314 H         1 UNK         0.0600 
    203 H203       -4.9738  -25.9692  -51.0619 H         1 UNK         0.0600 
    204 H204       -6.7252  -25.9721  -50.8913 H         1 UNK         0.0600 
    205 H205       -4.8528  -24.5155  -46.9922 H         1 UNK         0.3000 
    206 H206       -4.5993  -22.4090  -46.3427 H         1 UNK         0.0600 
    207 H207       -7.0897  -22.3730  -46.2752 H         1 UNK         0.0600 
    208 H208       -6.4489  -20.7923  -46.6974 H         1 UNK         0.0600 
    209 H209       -7.1485  -21.8126  -47.9455 H         1 UNK         0.0600 
    210 H210       -2.7208  -22.8535  -47.9085 H         1 UNK         0.3000 
    211 H211       -1.2133  -22.2734  -49.3935 H         1 UNK         0.0600 
    212 H212       -2.4367  -19.4659  -49.2063 H         1 UNK         0.0600 
    213 H213       -0.8257  -19.8658  -49.7864 H         1 UNK         0.0600 
    214 H214       -1.2391  -20.1425  -48.1026 H         1 UNK         0.0600 
    215 H215       -3.1088  -23.6825  -50.5478 H         1 UNK         0.3000 
    216 H216       -4.1711  -24.2860  -52.4107 H         1 UNK         0.0600 
    217 H217       -3.0369  -23.8285  -54.5515 H         1 UNK         0.0600 
    218 H218       -1.8354  -24.1380  -53.3051 H         1 UNK         0.0600 
    219 H219       -2.1525  -22.4886  -53.8418 H         1 UNK         0.0600 
    220 H220       -5.8170  -22.7461  -51.2186 H         1 UNK         0.3000 
    221 H221       -7.5977  -21.4784  -51.2996 H         1 UNK         0.0600 
    222 H222       -7.4100  -21.6213  -54.3556 H         1 UNK         0.0600 
    223 H223       -8.1876  -22.8143  -53.3162 H         1 UNK         0.0600 
    224 H224       -8.8288  -21.1823  -53.4177 H         1 UNK         0.0600 
    225 H225       -5.6361  -20.0809  -50.4842 H         1 UNK         0.3000 
    226 H226       -4.9732  -18.0885  -49.9592 H         1 UNK         0.0600 
    227 H227       -7.3915  -17.5435  -49.8760 H         1 UNK         0.0600 
    228 H228       -6.4489  -16.1363  -50.3370 H         1 UNK         0.0600 
    229 H229       -7.3561  -17.0145  -51.5588 H         1 UNK         0.0600 
    230 H230       -3.3055  -19.0498  -51.6228 H         1 UNK         0.3000 
    231 H231       -1.4896  -18.5682  -52.7019 H         1 UNK         0.0600 
    232 H232       -2.3088  -15.6212  -52.7713 H         1 UNK         0.0600 
    233 H233       -0.7064  -16.2638  -53.0722 H         1 UNK         0.0600 
    234 H234       -1.4134  -16.4096  -51.4717 H         1 UNK         0.0600 
    235 H235       -4.1606  -19.0698  -54.1136 H         1 UNK         0.3000 
    236 H236       -3.6591  -18.1130  -56.8493 H         1 UNK         0.0600 
    237 H237       -5.9800  -18.2050  -55.9541 H         1 UNK         0.0600 
    238 H238       -5.7870  -19.2653  -57.3418 H         1 UNK         0.0600 
    239 H239       -5.8345  -19.9438  -55.7190 H         1 UNK         0.0600 
    240 H240       -1.4481  -19.3724  -56.0989 H         1 UNK         0.3000 
    241 H241       -1.3997  -22.1996  -56.4717 H         1 UNK         0.0600 
    242 H242       -0.9561  -20.8428  -60.2562 H         1 UNK         0.3800 
    243 H243       -1.5728  -19.8154  -58.9887 H         1 UNK         0.3800 
    244 H244        1.0671  -21.9811  -56.3167 H         1 UNK         0.0800 
    245 H245        0.9481  -20.2519  -56.5207 H         1 UNK         0.0800 
    246 H246        1.3581  -18.8163  -54.3971 H         1 UNK         0.0800 
    247 H247        2.5183  -20.1234  -54.4657 H         1 UNK         0.0800 
@<TRIPOS>BOND
     1    1    2 1    
     2    1  127 1    
     3    1  128 1    
     4    1  129 1    
     5    2    3 2    
     6    2    4 am   BACKBONE|DICT|INTERRES
     7    4    5 1    
     8    4  130 1    
     9    5    6 1    
    10    5   65 1    
    11    5  131 1    
    12    6    7 1    
    13    6  132 1    
    14    6  133 1    
    15    7    8 1    
    16    8    9 1    
    17    8  134 1    
    18    8  135 1    
    19    9   10 ar   
    20    9   14 ar   
    21   10   11 ar   
    22   10  136 1    
    23   11   12 ar   
    24   11  126 1    
    25   12   13 ar   
    26   12  137 1    
    27   13   14 ar   
    28   13   15 1    
    29   14  138 1    
    30   15   16 1    
    31   15  139 1    
    32   15  140 1    
    33   16   17 1    
    34   17   18 1    
    35   17  141 1    
    36   17  142 1    
    37   18   19 1    
    38   18   67 1    
    39   18  143 1    
    40   19   20 am   BACKBONE|DICT|INTERRES
    41   19  144 1    
    42   20   21 2    
    43   20   22 1    
    44   22   23 1    
    45   22   24 1    
    46   22  145 1    
    47   23  146 1    
    48   23  147 1    
    49   23  148 1    
    50   24   25 am   BACKBONE|DICT|INTERRES
    51   24  149 1    
    52   25   26 2    
    53   25   27 1    
    54   27   28 1    
    55   27   29 1    
    56   27  150 1    
    57   28  151 1    
    58   28  152 1    
    59   28  153 1    
    60   29   30 am   BACKBONE|DICT|INTERRES
    61   29  154 1    
    62   30   31 2    
    63   30   32 1    
    64   32   33 1    
    65   32   34 1    
    66   32  155 1    
    67   33  156 1    
    68   33  157 1    
    69   33  158 1    
    70   34   35 am   BACKBONE|DICT|INTERRES
    71   34  159 1    
    72   35   36 2    
    73   35   37 1    
    74   37   38 1    
    75   37   39 1    
    76   37  160 1    
    77   38  161 1    
    78   38  162 1    
    79   38  163 1    
    80   39   40 am   BACKBONE|DICT|INTERRES
    81   39  164 1    
    82   40   41 2    
    83   40   42 1    
    84   42   43 1    
    85   42   44 1    
    86   42  165 1    
    87   43  166 1    
    88   43  167 1    
    89   43  168 1    
    90   44   45 am   BACKBONE|DICT|INTERRES
    91   44  169 1    
    92   45   46 2    
    93   45   47 1    
    94   47   48 1    
    95   47   49 1    
    96   47  170 1    
    97   48  171 1    
    98   48  172 1    
    99   48  173 1    
   100   49   50 am   BACKBONE|DICT|INTERRES
   101   49  174 1    
   102   50   51 2    
   103   50   52 1    
   104   52   53 1    
   105   52   54 1    
   106   52  175 1    
   107   53  176 1    
   108   53  177 1    
   109   53  178 1    
   110   54   55 am   BACKBONE|DICT|INTERRES
   111   54  179 1    
   112   55   56 2    
   113   55   57 1    
   114   57   58 1    
   115   57   59 1    
   116   57  180 1    
   117   58  181 1    
   118   58  182 1    
   119   58  183 1    
   120   59   60 am   BACKBONE|DICT|INTERRES
   121   59  184 1    
   122   60   61 2    
   123   60   62 1    
   124   62   63 1    
   125   62   64 1    
   126   62  185 1    
   127   63  186 1    
   128   63  187 1    
   129   63  188 1    
   130   64   65 am   BACKBONE|DICT|INTERRES
   131   64  189 1    
   132   65   66 2    
   133   67   68 2    
   134   67   69 am   BACKBONE|DICT|INTERRES
   135   69   70 1    
   136   69  190 1    
   137   70   71 1    
   138   70   72 1    
   139   70  191 1    
   140   71  192 1    
   141   71  193 1    
   142   71  194 1    
   143   72   73 2    
   144   72   74 am   BACKBONE|DICT|INTERRES
   145   74   75 1    
   146   74  195 1    
   147   75   76 1    
   148   75   77 1    
   149   75  196 1    
   150   76  197 1    
   151   76  198 1    
   152   76  199 1    
   153   77   78 2    
   154   77   79 am   BACKBONE|DICT|INTERRES
   155   79   80 1    
   156   79  200 1    
   157   80   81 1    
   158   80   82 1    
   159   80  201 1    
   160   81  202 1    
   161   81  203 1    
   162   81  204 1    
   163   82   83 2    
   164   82   84 am   BACKBONE|DICT|INTERRES
   165   84   85 1    
   166   84  205 1    
   167   85   86 1    
   168   85   87 1    
   169   85  206 1    
   170   86  207 1    
   171   86  208 1    
   172   86  209 1    
   173   87   88 2    
   174   87   89 am   BACKBONE|DICT|INTERRES
   175   89   90 1    
   176   89  210 1    
   177   90   91 1    
   178   90   92 1    
   179   90  211 1    
   180   91  212 1    
   181   91  213 1    
   182   91  214 1    
   183   92   93 2    
   184   92   94 am   BACKBONE|DICT|INTERRES
   185   94   95 1    
   186   94  215 1    
   187   95   96 1    
   188   95   97 1    
   189   95  216 1    
   190   96  217 1    
   191   96  218 1    
   192   96  219 1    
   193   97   98 2    
   194   97   99 am   BACKBONE|DICT|INTERRES
   195   99  100 1    
   196   99  220 1    
   197  100  101 1    
   198  100  102 1    
   199  100  221 1    
   200  101  222 1    
   201  101  223 1    
   202  101  224 1    
   203  102  103 2    
   204  102  104 am   BACKBONE|DICT|INTERRES
   205  104  105 1    
   206  104  225 1    
   207  105  106 1    
   208  105  107 1    
   209  105  226 1    
   210  106  227 1    
   211  106  228 1    
   212  106  229 1    
   213  107  108 2    
   214  107  109 am   BACKBONE|DICT|INTERRES
   215  109  110 1    
   216  109  230 1    
   217  110  111 1    
   218  110  112 1    
   219  110  231 1    
   220  111  232 1    
   221  111  233 1    
   222  111  234 1    
   223  112  113 2    
   224  112  114 am   BACKBONE|DICT|INTERRES
   225  114  115 1    
   226  114  235 1    
   227  115  116 1    
   228  115  117 1    
   229  115  236 1    
   230  116  237 1    
   231  116  238 1    
   232  116  239 1    
   233  117  118 2    
   234  117  119 am   BACKBONE|DICT|INTERRES
   235  119  120 1    
   236  119  240 1    
   237  120  121 1    
   238  120  124 1    
   239  120  241 1    
   240  121  122 am   BACKBONE|DICT|INTERRES
   241  121  123 2    
   242  122  242 1    
   243  122  243 1    
   244  124  125 1    
   245  124  244 1    
   246  124  245 1    
   247  125  126 1    
   248  126  246 1    
   249  126  247 1    
@<TRIPOS>SUBSTRUCTURE
     1 UNK         1 GROUP             0       ****    0 ROOT    
