@<TRIPOS>MOLECULE
3R540
247   249    1
SMALL
USER_CHARGES


@<TRIPOS>ATOM
      1 CA          5.2257  -10.2738  -46.8139 C.3       0 UNK        -0.1800 
      2 C           4.1379  -11.3366  -46.7824 C.2       0 UNK         0.5000 
      3 O           3.8090  -11.8416  -45.7093 O.2       0 UNK        -0.5000 
      4 N           3.5658  -11.6660  -47.9494 N.am      1 UNK        -0.5000 
      5 CA          2.5191  -12.6810  -48.1413 C.3       1 UNK         0.1400 
      6 C6          2.2082  -12.8694  -49.6498 C.3       23 UNK        -0.0398 
      7 S7          0.8803  -14.0452  -50.0962 S.3       23 UNK        -0.2404 
      8 C8          1.3827  -15.5813  -49.2550 C.3       23 UNK        -0.0205 
      9 C9          0.4284  -16.7145  -49.5971 C.ar      23 UNK        -0.0193 
     10 C10         0.8403  -17.7658  -50.4215 C.ar      23 UNK        -0.1150 
     11 C11        -0.0483  -18.7909  -50.7589 C.ar      23 UNK        -0.0193 
     12 C12        -1.3603  -18.7460  -50.2810 C.ar      23 UNK        -0.1150 
     13 C13        -1.7768  -17.7211  -49.4277 C.ar      23 UNK        -0.0193 
     14 C14        -0.8754  -16.7074  -49.0915 C.ar      23 UNK        -0.1150 
     15 C15        -3.2007  -17.6921  -48.8854 C.3       23 UNK        -0.0205 
     16 S16        -3.2636  -18.0335  -47.0946 S.3       23 UNK        -0.2404 
     17 C17        -3.4403  -19.8497  -47.0167 C.3       23 UNK        -0.0398 
     18 CA         -2.1578  -20.6233  -47.3985 C.3       11 UNK         0.1400 
     19 N          -0.9650  -20.1567  -46.6893 N.am      11 UNK        -0.5000 
     20 C           0.2952  -20.4313  -47.0522 C.2       10 UNK         0.5000 
     21 O           0.5860  -21.1249  -48.0271 O.2       10 UNK        -0.5000 
     22 CA          1.4154  -19.9021  -46.1372 C.3       10 UNK         0.1400 
     23 CB          1.9563  -18.5682  -46.6740 C.3       10 UNK        -0.1800 
     24 N           1.0384  -19.7484  -44.7253 N.am      10 UNK        -0.5000 
     25 C           0.5416  -20.7192  -43.9394 C.2       9 UNK         0.5000 
     26 O           0.2337  -21.8377  -44.3540 O.2       9 UNK        -0.5000 
     27 CA          0.3734  -20.3792  -42.4435 C.3       9 UNK         0.1400 
     28 CB          0.1247  -21.6209  -41.5624 C.3       9 UNK        -0.1800 
     29 N           1.4924  -19.5875  -41.9279 N.am      9 UNK        -0.5000 
     30 C           2.7935  -19.9194  -41.9072 C.2       8 UNK         0.5000 
     31 O           3.2285  -21.0253  -42.2301 O.2       8 UNK        -0.5000 
     32 CA          3.7843  -18.8215  -41.4769 C.3       8 UNK         0.1400 
     33 CB          4.7140  -18.4453  -42.6436 C.3       8 UNK        -0.1800 
     34 N           3.0893  -17.6137  -41.0241 N.am      8 UNK        -0.5000 
     35 C           3.0246  -17.2042  -39.7516 C.2       7 UNK         0.5000 
     36 O           3.5815  -17.7776  -38.8146 O.2       7 UNK        -0.5000 
     37 CA          2.1924  -15.9414  -39.4723 C.3       7 UNK         0.1400 
     38 CB          3.0511  -14.6810  -39.6612 C.3       7 UNK        -0.1800 
     39 N           0.9833  -15.8321  -40.2929 N.am      7 UNK        -0.5000 
     40 C          -0.1023  -16.6078  -40.1564 C.2       6 UNK         0.5000 
     41 O          -0.1470  -17.5925  -39.4196 O.2       6 UNK        -0.5000 
     42 CA         -1.3503  -16.2186  -40.9654 C.3       6 UNK         0.1400 
     43 CB         -2.0565  -15.0185  -40.3151 C.3       6 UNK        -0.1800 
     44 N          -1.0087  -15.8782  -42.3434 N.am      6 UNK        -0.5000 
     45 C          -1.2968  -16.6312  -43.4138 C.2       5 UNK         0.5000 
     46 O          -1.9106  -17.6973  -43.3649 O.2       5 UNK        -0.5000 
     47 CA         -0.7790  -16.1230  -44.7745 C.3       5 UNK         0.1400 
     48 CB         -1.7904  -15.1367  -45.3790 C.3       5 UNK        -0.1800 
     49 N           0.5295  -15.4681  -44.7085 N.am      5 UNK        -0.5000 
     50 C           1.6316  -15.9546  -44.1216 C.2       4 UNK         0.5000 
     51 O           1.7095  -17.0832  -43.6351 O.2       4 UNK        -0.5000 
     52 CA          2.8329  -15.0034  -43.9903 C.3       4 UNK         0.1400 
     53 CB          3.8014  -15.2101  -45.1617 C.3       4 UNK        -0.1800 
     54 N           2.4736  -13.5846  -43.8846 N.am      4 UNK        -0.5000 
     55 C           1.6810  -13.0422  -42.9455 C.2       3 UNK         0.5000 
     56 O           1.0766  -13.6972  -42.0952 O.2       3 UNK        -0.5000 
     57 CA          1.5126  -11.5164  -42.9802 C.3       3 UNK         0.1400 
     58 CB          2.7887  -10.8098  -42.4967 C.3       3 UNK        -0.1800 
     59 N           1.1794  -11.0701  -44.3297 N.am      3 UNK        -0.5000 
     60 C          -0.0697  -10.9979  -44.8105 C.2       2 UNK         0.5000 
     61 O          -1.0773  -11.1923  -44.1299 O.2       2 UNK        -0.5000 
     62 CA         -0.2272  -10.6709  -46.3100 C.3       2 UNK         0.1400 
     63 CB         -0.4166   -9.1602  -46.5140 C.3       2 UNK        -0.1800 
     64 N           0.8918  -11.1277  -47.1380 N.am      2 UNK        -0.5000 
     65 C           1.2594  -12.4089  -47.2861 C.2       1 UNK         0.5000 
     66 O           0.6921  -13.3470  -46.7263 O.2       1 UNK        -0.5000 
     67 C          -2.3740  -22.1478  -47.3223 C.2       11 UNK         0.5000 
     68 O          -3.1631  -22.6670  -48.1126 O.2       11 UNK        -0.5000 
     69 N          -1.6482  -22.8597  -46.4453 N.am      12 UNK        -0.5000 
     70 CA         -1.5958  -24.3241  -46.4154 C.3       12 UNK         0.1400 
     71 CB         -0.7831  -24.7885  -45.1989 C.3       12 UNK        -0.1800 
     72 C          -1.0212  -24.9295  -47.7127 C.2       12 UNK         0.5000 
     73 O          -1.4712  -25.9973  -48.1282 O.2       12 UNK        -0.5000 
     74 N          -0.0985  -24.2097  -48.3726 N.am      13 UNK        -0.5000 
     75 CA          0.4478  -24.5648  -49.6882 C.3       13 UNK         0.1400 
     76 CB          1.6842  -23.6992  -49.9752 C.3       13 UNK        -0.1800 
     77 C          -0.5824  -24.4227  -50.8278 C.2       13 UNK         0.5000 
     78 O          -0.4159  -25.0390  -51.8793 O.2       13 UNK        -0.5000 
     79 N          -1.6359  -23.6344  -50.5849 N.am      14 UNK        -0.5000 
     80 CA         -2.7874  -23.4447  -51.4604 C.3       14 UNK         0.1400 
     81 CB         -3.0899  -21.9395  -51.5352 C.3       14 UNK        -0.1800 
     82 C          -4.0124  -24.2402  -50.9693 C.2       14 UNK         0.5000 
     83 O          -5.1282  -23.9315  -51.3846 O.2       14 UNK        -0.5000 
     84 N          -3.8089  -25.2236  -50.0776 N.am      15 UNK        -0.5000 
     85 CA         -4.8318  -26.0939  -49.4847 C.3       15 UNK         0.1400 
     86 CB         -5.4112  -27.0449  -50.5537 C.3       15 UNK        -0.1800 
     87 C          -5.9201  -25.3039  -48.7253 C.2       15 UNK         0.5000 
     88 O          -7.1119  -25.5391  -48.9253 O.2       15 UNK        -0.5000 
     89 N          -5.4756  -24.3475  -47.8969 N.am      16 UNK        -0.5000 
     90 CA         -6.2797  -23.3648  -47.1603 C.3       16 UNK         0.1400 
     91 CB         -7.2378  -24.0440  -46.1590 C.3       16 UNK        -0.1800 
     92 C          -6.9776  -22.3692  -48.1099 C.2       16 UNK         0.5000 
     93 O          -8.1424  -22.0236  -47.9082 O.2       16 UNK        -0.5000 
     94 N          -6.2302  -21.9411  -49.1386 N.am      17 UNK        -0.5000 
     95 CA         -6.6164  -21.0187  -50.2143 C.3       17 UNK         0.1400 
     96 CB         -6.9723  -19.6263  -49.6528 C.3       17 UNK        -0.1800 
     97 C          -7.6955  -21.5646  -51.1771 C.2       17 UNK         0.5000 
     98 O          -8.2711  -20.7879  -51.9407 O.2       17 UNK        -0.5000 
     99 N          -7.9352  -22.8833  -51.1614 N.am      18 UNK        -0.5000 
    100 CA        -8.8281  -23.5756  -52.0932 C.3       18 UNK         0.1400 
    101 CB        -9.1795  -24.9586  -51.5263 C.3       18 UNK        -0.1800 
    102 C         -8.2109  -23.7102  -53.4984 C.2       18 UNK         0.5000 
    103 O         -8.9337  -23.6392  -54.4927 O.2       18 UNK        -0.5000 
    104 N         -6.8850  -23.8759  -53.5499 N.am      19 UNK        -0.5000 
    105 CA        -6.0619  -23.9193  -54.7511 C.3       19 UNK         0.1400 
    106 CB        -5.2712  -25.2401  -54.7651 C.3       19 UNK        -0.1800 
    107 C         -5.1514  -22.6827  -54.7264 C.2       19 UNK         0.5000 
    108 O         -3.9350  -22.8041  -54.5742 O.2       19 UNK        -0.5000 
    109 N         -5.7751  -21.5012  -54.8394 N.am      20 UNK        -0.5000 
    110 CA        -5.1891  -20.1626  -54.6734 C.3       20 UNK         0.1400 
    111 CB        -6.3048  -19.1209  -54.8505 C.3       20 UNK        -0.1800 
    112 C         -3.9794  -19.8205  -55.5727 C.2       20 UNK         0.5000 
    113 O         -3.3006  -18.8270  -55.3129 O.2       20 UNK        -0.5000 
    114 N         -3.7148  -20.6449  -56.5942 N.am      21 UNK        -0.5000 
    115 CA        -2.5040  -20.6119  -57.4158 C.3       21 UNK         0.1400 
    116 CB        -2.7395  -21.4749  -58.6656 C.3       21 UNK        -0.1800 
    117 C         -1.2330  -21.0784  -56.6687 C.2       21 UNK         0.5000 
    118 O         -0.1330  -20.8374  -57.1678 O.2       21 UNK        -0.5000 
    119 N         -1.3975  -21.7365  -55.5100 N.am      22 UNK        -0.5000 
    120 CA        -0.3297  -22.2686  -54.6407 C.3       22 UNK         0.1400 
    121 C          0.3837  -23.5314  -55.2155 C.2       22 UNK         0.5000 
    122 N         -0.2092  -24.2477  -56.1636 N.am      22 UNK        -0.7600 
    123 O          1.4824  -23.8817  -54.7927 O.2       22 UNK        -0.5000 
    124 C124        0.6805  -21.1910  -54.1435 C.3       23 UNK        -0.0398 
    125 S125       -0.1063  -19.7436  -53.3527 S.3       23 UNK        -0.2404 
    126 C126        0.4098  -19.9559  -51.6223 C.3       23 UNK        -0.0205 
    127 H127        4.9408   -9.4286  -46.1874 H         1 UNK         0.0600 
    128 H128        6.1596  -10.6842  -46.4301 H         1 UNK         0.0600 
    129 H129        5.4045   -9.9051  -47.8241 H         1 UNK         0.0600 
    130 H130        3.8836  -11.2035  -48.7895 H         1 UNK         0.3000 
    131 H131        2.9427  -13.6183  -47.7834 H         1 UNK         0.0600 
    132 H132        3.1138  -13.1865  -50.1688 H         1 UNK         0.0800 
    133 H133        1.9383  -11.9080  -50.0898 H         1 UNK         0.0800 
    134 H134        1.3844  -15.4396  -48.1741 H         1 UNK         0.0800 
    135 H135        2.4047  -15.8352  -49.5407 H         1 UNK         0.0800 
    136 H136        1.8510  -17.7856  -50.8040 H         1 UNK         0.1150 
    137 H137       -2.0539  -19.5219  -50.5628 H         1 UNK         0.1150 
    138 H138       -1.1938  -15.8998  -48.4486 H         1 UNK         0.1150 
    139 H139       -3.8404  -18.3940  -49.4222 H         1 UNK         0.0800 
    140 H140       -3.6215  -16.7016  -49.0638 H         1 UNK         0.0800 
    141 H141       -3.7422  -20.1044  -45.9993 H         1 UNK         0.0800 
    142 H142       -4.2717  -20.1415  -47.6603 H         1 UNK         0.0800 
    143 H143       -1.9810  -20.4434  -48.4545 H         1 UNK         0.0600 
    144 H144       -1.1207  -19.5906  -45.8684 H         1 UNK         0.3000 
    145 H145        2.2256  -20.6330  -46.1708 H         1 UNK         0.0600 
    146 H146        2.8086  -18.2229  -46.0892 H         1 UNK         0.0600 
    147 H147        2.2922  -18.6710  -47.7067 H         1 UNK         0.0600 
    148 H148        1.1954  -17.7881  -46.6576 H         1 UNK         0.0600 
    149 H149        1.2704  -18.8576  -44.2946 H         1 UNK         0.3000 
    150 H150       -0.5104  -19.7454  -42.3707 H         1 UNK         0.0600 
    151 H151       -0.7856  -22.1387  -41.8666 H         1 UNK         0.0600 
    152 H152        0.0045  -21.3424  -40.5154 H         1 UNK         0.0600 
    153 H153        0.9441  -22.3371  -41.6280 H         1 UNK         0.0600 
    154 H154        1.2599  -18.6474  -41.6446 H         1 UNK         0.3000 
    155 H155        4.3987  -19.2379  -40.6763 H         1 UNK         0.0600 
    156 H156        5.3160  -19.3004  -42.9532 H         1 UNK         0.0600 
    157 H157        5.4029  -17.6498  -42.3597 H         1 UNK         0.0600 
    158 H158        4.1544  -18.1100  -43.5165 H         1 UNK         0.0600 
    159 H159        2.5824  -17.1032  -41.7366 H         1 UNK         0.3000 
    160 H160        1.8807  -15.9795  -38.4263 H         1 UNK         0.0600 
    161 H161        3.4022  -14.5810  -40.6884 H         1 UNK         0.0600 
    162 H162        2.4907  -13.7801  -39.4103 H         1 UNK         0.0600 
    163 H163        3.9301  -14.7071  -39.0159 H         1 UNK         0.0600 
    164 H164        0.9472  -15.0353  -40.9259 H         1 UNK         0.3000 
    165 H165       -2.0386  -17.0661  -40.9389 H         1 UNK         0.0600 
    166 H166       -2.9808  -14.7767  -40.8401 H         1 UNK         0.0600 
    167 H167       -2.3180  -15.2328  -39.2781 H         1 UNK         0.0600 
    168 H168       -1.4275  -14.1272  -40.3196 H         1 UNK         0.0600 
    169 H169       -0.4555  -15.0392  -42.4774 H         1 UNK         0.3000 
    170 H170       -0.6913  -16.9835  -45.4394 H         1 UNK         0.0600 
    171 H171       -2.7925  -15.5655  -45.4093 H         1 UNK         0.0600 
    172 H172       -1.8461  -14.2141  -44.7994 H         1 UNK         0.0600 
    173 H173       -1.5216  -14.8704  -46.4002 H         1 UNK         0.0600 
    174 H174        0.5887  -14.5539  -45.1474 H         1 UNK         0.3000 
    175 H175        3.3578  -15.2675  -43.0709 H         1 UNK         0.0600 
    176 H176        3.3080  -15.0492  -46.1184 H         1 UNK         0.0600 
    177 H177        4.6538  -14.5333  -45.1000 H         1 UNK         0.0600 
    178 H178        4.1942  -16.2273  -45.1676 H         1 UNK         0.0600 
    179 H179        2.9266  -12.9611  -44.5495 H         1 UNK         0.3000 
    180 H180        0.7064  -11.2507  -42.2930 H         1 UNK         0.0600 
    181 H181        3.0487  -11.1267  -41.4858 H         1 UNK         0.0600 
    182 H182        3.6446  -11.0243  -43.1371 H         1 UNK         0.0600 
    183 H183        2.6528   -9.7285  -42.4733 H         1 UNK         0.0600 
    184 H184        1.9548  -10.9543  -44.9696 H         1 UNK         0.3000 
    185 H185       -1.1273  -11.1798  -46.6612 H         1 UNK         0.0600 
    186 H186       -1.2605   -8.7899  -45.9303 H         1 UNK         0.0600 
    187 H187        0.4667   -8.5990  -46.2065 H         1 UNK         0.0600 
    188 H188       -0.6185   -8.9248  -47.5591 H         1 UNK         0.0600 
    189 H189        1.4299  -10.4146  -47.6082 H         1 UNK         0.3000 
    190 H190       -1.0151  -22.3759  -45.8145 H         1 UNK         0.3000 
    191 H191       -2.6175  -24.6923  -46.3018 H         1 UNK         0.0600 
    192 H192       -0.7744  -25.8768  -45.1267 H         1 UNK         0.0600 
    193 H193       -1.2067  -24.4037  -44.2709 H         1 UNK         0.0600 
    194 H194        0.2536  -24.4545  -45.2571 H         1 UNK         0.0600 
    195 H195        0.1959  -23.3180  -47.9912 H         1 UNK         0.3000 
    196 H196        0.7621  -25.6101  -49.6559 H         1 UNK         0.0600 
    197 H197        2.1531  -23.9895  -50.9164 H         1 UNK         0.0600 
    198 H198        2.4339  -23.8069  -49.1913 H         1 UNK         0.0600 
    199 H199        1.4280  -22.6424  -50.0520 H         1 UNK         0.0600 
    200 H200       -1.7118  -23.2068  -49.6717 H         1 UNK         0.3000 
    201 H201       -2.5657  -23.8019  -52.4673 H         1 UNK         0.0600 
    202 H202       -2.2590  -21.3991  -51.9846 H         1 UNK         0.0600 
    203 H203       -3.2827  -21.5165  -50.5500 H         1 UNK         0.0600 
    204 H204       -3.9630  -21.7385  -52.1525 H         1 UNK         0.0600 
    205 H205       -2.8628  -25.3934  -49.7608 H         1 UNK         0.3000 
    206 H206       -4.3227  -26.7062  -48.7390 H         1 UNK         0.0600 
    207 H207       -4.6211  -27.6168  -51.0401 H         1 UNK         0.0600 
    208 H208       -6.1017  -27.7613  -50.1075 H         1 UNK         0.0600 
    209 H209       -5.9562  -26.5044  -51.3282 H         1 UNK         0.0600 
    210 H210       -4.4780  -24.1657  -47.8838 H         1 UNK         0.3000 
    211 H211       -5.5721  -22.7745  -46.5765 H         1 UNK         0.0600 
    212 H212       -8.0368  -24.5896  -46.6612 H         1 UNK         0.0600 
    213 H213       -7.7095  -23.3041  -45.5115 H         1 UNK         0.0600 
    214 H214       -6.7046  -24.7442  -45.5162 H         1 UNK         0.0600 
    215 H215       -5.2977  -22.3254  -49.2133 H         1 UNK         0.3000 
    216 H216       -5.7248  -20.8927  -50.8270 H         1 UNK         0.0600 
    217 H217       -6.1971  -19.2577  -48.9818 H         1 UNK         0.0600 
    218 H218       -7.0765  -18.8957  -50.4558 H         1 UNK         0.0600 
    219 H219       -7.9133  -19.6395  -49.1027 H         1 UNK         0.0600 
    220 H220       -7.3922  -23.4629  -50.5352 H         1 UNK         0.3000 
    221 H221       -9.7514  -22.9996  -52.1833 H         1 UNK         0.0600 
    222 H222       -8.2961  -25.5914  -51.4344 H         1 UNK         0.0600 
    223 H223       -9.6357  -24.8769  -50.5395 H         1 UNK         0.0600 
    224 H224       -9.8887  -25.4768  -52.1727 H         1 UNK         0.0600 
    225 H225       -6.3620  -23.8834  -52.6743 H         1 UNK         0.3000 
    226 H226       -6.6736  -23.8712  -55.6540 H         1 UNK         0.0600 
    227 H227       -5.9429  -26.0981  -54.7930 H         1 UNK         0.0600 
    228 H228       -4.6270  -25.3009  -55.6430 H         1 UNK         0.0600 
    229 H229       -4.6377  -25.3432  -53.8831 H         1 UNK         0.0600 
    230 H230       -6.7782  -21.5194  -54.9568 H         1 UNK         0.3000 
    231 H231       -4.8334  -20.0968  -53.6440 H         1 UNK         0.0600 
    232 H232       -6.7333  -19.1599  -55.8526 H         1 UNK         0.0600 
    233 H233       -7.1103  -19.2790  -54.1329 H         1 UNK         0.0600 
    234 H234       -5.9288  -18.1091  -54.6929 H         1 UNK         0.0600 
    235 H235       -4.3258  -21.4369  -56.7256 H         1 UNK         0.3000 
    236 H236       -2.3345  -19.5820  -57.7365 H         1 UNK         0.0600 
    237 H237       -2.9274  -22.5172  -58.4051 H         1 UNK         0.0600 
    238 H238       -3.5919  -21.1126  -59.2406 H         1 UNK         0.0600 
    239 H239       -1.8716  -21.4529  -59.3262 H         1 UNK         0.0600 
    240 H240       -2.3436  -21.9384  -55.1983 H         1 UNK         0.3000 
    241 H241       -0.8475  -22.6374  -53.7558 H         1 UNK         0.0600 
    242 H242        0.2517  -25.0660  -56.5291 H         1 UNK         0.3800 
    243 H243       -1.1159  -23.9824  -56.5124 H         1 UNK         0.3800 
    244 H244        1.2932  -20.8315  -54.9707 H         1 UNK         0.0800 
    245 H245        1.3809  -21.6355  -53.4347 H         1 UNK         0.0800 
    246 H246        0.0020  -20.8880  -51.2284 H         1 UNK         0.0800 
    247 H247        1.4957  -20.0512  -51.5747 H         1 UNK         0.0800 
@<TRIPOS>BOND
     1    1    2 1    
     2    1  127 1    
     3    1  128 1    
     4    1  129 1    
     5    2    3 2    
     6    2    4 am   BACKBONE|DICT|INTERRES
     7    4    5 1    
     8    4  130 1    
     9    5    6 1    
    10    5   65 1    
    11    5  131 1    
    12    6    7 1    
    13    6  132 1    
    14    6  133 1    
    15    7    8 1    
    16    8    9 1    
    17    8  134 1    
    18    8  135 1    
    19    9   10 ar   
    20    9   14 ar   
    21   10   11 ar   
    22   10  136 1    
    23   11   12 ar   
    24   11  126 1    
    25   12   13 ar   
    26   12  137 1    
    27   13   14 ar   
    28   13   15 1    
    29   14  138 1    
    30   15   16 1    
    31   15  139 1    
    32   15  140 1    
    33   16   17 1    
    34   17   18 1    
    35   17  141 1    
    36   17  142 1    
    37   18   19 1    
    38   18   67 1    
    39   18  143 1    
    40   19   20 am   BACKBONE|DICT|INTERRES
    41   19  144 1    
    42   20   21 2    
    43   20   22 1    
    44   22   23 1    
    45   22   24 1    
    46   22  145 1    
    47   23  146 1    
    48   23  147 1    
    49   23  148 1    
    50   24   25 am   BACKBONE|DICT|INTERRES
    51   24  149 1    
    52   25   26 2    
    53   25   27 1    
    54   27   28 1    
    55   27   29 1    
    56   27  150 1    
    57   28  151 1    
    58   28  152 1    
    59   28  153 1    
    60   29   30 am   BACKBONE|DICT|INTERRES
    61   29  154 1    
    62   30   31 2    
    63   30   32 1    
    64   32   33 1    
    65   32   34 1    
    66   32  155 1    
    67   33  156 1    
    68   33  157 1    
    69   33  158 1    
    70   34   35 am   BACKBONE|DICT|INTERRES
    71   34  159 1    
    72   35   36 2    
    73   35   37 1    
    74   37   38 1    
    75   37   39 1    
    76   37  160 1    
    77   38  161 1    
    78   38  162 1    
    79   38  163 1    
    80   39   40 am   BACKBONE|DICT|INTERRES
    81   39  164 1    
    82   40   41 2    
    83   40   42 1    
    84   42   43 1    
    85   42   44 1    
    86   42  165 1    
    87   43  166 1    
    88   43  167 1    
    89   43  168 1    
    90   44   45 am   BACKBONE|DICT|INTERRES
    91   44  169 1    
    92   45   46 2    
    93   45   47 1    
    94   47   48 1    
    95   47   49 1    
    96   47  170 1    
    97   48  171 1    
    98   48  172 1    
    99   48  173 1    
   100   49   50 am   BACKBONE|DICT|INTERRES
   101   49  174 1    
   102   50   51 2    
   103   50   52 1    
   104   52   53 1    
   105   52   54 1    
   106   52  175 1    
   107   53  176 1    
   108   53  177 1    
   109   53  178 1    
   110   54   55 am   BACKBONE|DICT|INTERRES
   111   54  179 1    
   112   55   56 2    
   113   55   57 1    
   114   57   58 1    
   115   57   59 1    
   116   57  180 1    
   117   58  181 1    
   118   58  182 1    
   119   58  183 1    
   120   59   60 am   BACKBONE|DICT|INTERRES
   121   59  184 1    
   122   60   61 2    
   123   60   62 1    
   124   62   63 1    
   125   62   64 1    
   126   62  185 1    
   127   63  186 1    
   128   63  187 1    
   129   63  188 1    
   130   64   65 am   BACKBONE|DICT|INTERRES
   131   64  189 1    
   132   65   66 2    
   133   67   68 2    
   134   67   69 am   BACKBONE|DICT|INTERRES
   135   69   70 1    
   136   69  190 1    
   137   70   71 1    
   138   70   72 1    
   139   70  191 1    
   140   71  192 1    
   141   71  193 1    
   142   71  194 1    
   143   72   73 2    
   144   72   74 am   BACKBONE|DICT|INTERRES
   145   74   75 1    
   146   74  195 1    
   147   75   76 1    
   148   75   77 1    
   149   75  196 1    
   150   76  197 1    
   151   76  198 1    
   152   76  199 1    
   153   77   78 2    
   154   77   79 am   BACKBONE|DICT|INTERRES
   155   79   80 1    
   156   79  200 1    
   157   80   81 1    
   158   80   82 1    
   159   80  201 1    
   160   81  202 1    
   161   81  203 1    
   162   81  204 1    
   163   82   83 2    
   164   82   84 am   BACKBONE|DICT|INTERRES
   165   84   85 1    
   166   84  205 1    
   167   85   86 1    
   168   85   87 1    
   169   85  206 1    
   170   86  207 1    
   171   86  208 1    
   172   86  209 1    
   173   87   88 2    
   174   87   89 am   BACKBONE|DICT|INTERRES
   175   89   90 1    
   176   89  210 1    
   177   90   91 1    
   178   90   92 1    
   179   90  211 1    
   180   91  212 1    
   181   91  213 1    
   182   91  214 1    
   183   92   93 2    
   184   92   94 am   BACKBONE|DICT|INTERRES
   185   94   95 1    
   186   94  215 1    
   187   95   96 1    
   188   95   97 1    
   189   95  216 1    
   190   96  217 1    
   191   96  218 1    
   192   96  219 1    
   193   97   98 2    
   194   97   99 am   BACKBONE|DICT|INTERRES
   195   99  100 1    
   196   99  220 1    
   197  100  101 1    
   198  100  102 1    
   199  100  221 1    
   200  101  222 1    
   201  101  223 1    
   202  101  224 1    
   203  102  103 2    
   204  102  104 am   BACKBONE|DICT|INTERRES
   205  104  105 1    
   206  104  225 1    
   207  105  106 1    
   208  105  107 1    
   209  105  226 1    
   210  106  227 1    
   211  106  228 1    
   212  106  229 1    
   213  107  108 2    
   214  107  109 am   BACKBONE|DICT|INTERRES
   215  109  110 1    
   216  109  230 1    
   217  110  111 1    
   218  110  112 1    
   219  110  231 1    
   220  111  232 1    
   221  111  233 1    
   222  111  234 1    
   223  112  113 2    
   224  112  114 am   BACKBONE|DICT|INTERRES
   225  114  115 1    
   226  114  235 1    
   227  115  116 1    
   228  115  117 1    
   229  115  236 1    
   230  116  237 1    
   231  116  238 1    
   232  116  239 1    
   233  117  118 2    
   234  117  119 am   BACKBONE|DICT|INTERRES
   235  119  120 1    
   236  119  240 1    
   237  120  121 1    
   238  120  124 1    
   239  120  241 1    
   240  121  122 am   BACKBONE|DICT|INTERRES
   241  121  123 2    
   242  122  242 1    
   243  122  243 1    
   244  124  125 1    
   245  124  244 1    
   246  124  245 1    
   247  125  126 1    
   248  126  246 1    
   249  126  247 1    
@<TRIPOS>SUBSTRUCTURE
     1 UNK         1 GROUP             0       ****    0 ROOT    
