@<TRIPOS>MOLECULE
3R540
247   249    1
SMALL
USER_CHARGES


@<TRIPOS>ATOM
      1 CA         -5.3011  -16.2182  -49.4659 C.3       0 UNK        -0.1800 
      2 C          -4.2769  -15.4550  -48.6393 C.2       0 UNK         0.5000 
      3 O          -4.6304  -14.4947  -47.9545 O.2       0 UNK        -0.5000 
      4 N          -3.0075  -15.8788  -48.6982 N.am      1 UNK        -0.5000 
      5 CA         -1.8904  -15.2562  -47.9737 C.3       1 UNK         0.1400 
      6 C6         -0.5016  -15.6667  -48.5251 C.3       23 UNK        -0.0398 
      7 S7         -0.2363  -17.4716  -48.5926 S.3       23 UNK        -0.2404 
      8 C8          1.2153  -17.5815  -49.6765 C.3       23 UNK        -0.0205 
      9 C9          1.3399  -18.9763  -50.2654 C.ar      23 UNK        -0.0193 
     10 C10         0.7574  -19.2698  -51.5031 C.ar      23 UNK        -0.1150 
     11 C11         0.8790  -20.5466  -52.0572 C.ar      23 UNK        -0.0193 
     12 C12         1.5869  -21.5316  -51.3644 C.ar      23 UNK        -0.1150 
     13 C13         2.1680  -21.2525  -50.1250 C.ar      23 UNK        -0.0193 
     14 C14         2.0398  -19.9726  -49.5774 C.ar      23 UNK        -0.1150 
     15 C15         2.9494  -22.3351  -49.3976 C.3       23 UNK        -0.0205 
     16 S16         1.8467  -23.5165  -48.5635 S.3       23 UNK        -0.2404 
     17 C17         1.3792  -22.5689  -47.0781 C.3       23 UNK        -0.0398 
     18 CA          0.6649  -23.4464  -46.0191 C.3       11 UNK         0.1400 
     19 N           0.9442  -22.9848  -44.6571 N.am      11 UNK        -0.5000 
     20 C           0.6841  -23.6729  -43.5337 C.2       10 UNK         0.5000 
     21 O           0.2347  -24.8196  -43.5323 O.2       10 UNK        -0.5000 
     22 CA          0.9029  -22.9435  -42.1905 C.3       10 UNK         0.1400 
     23 CB          2.2096  -23.4115  -41.5342 C.3       10 UNK        -0.1800 
     24 N           0.9239  -21.4824  -42.3117 N.am      10 UNK        -0.5000 
     25 C          -0.0955  -20.7292  -42.7559 C.2       9 UNK         0.5000 
     26 O          -1.2041  -21.1874  -43.0292 O.2       9 UNK        -0.5000 
     27 CA          0.1829  -19.2348  -43.0120 C.3       9 UNK         0.1400 
     28 CB         -0.4113  -18.3788  -41.8852 C.3       9 UNK        -0.1800 
     29 N           1.6067  -18.9241  -43.1815 N.am      9 UNK        -0.5000 
     30 C           2.3611  -19.3841  -44.1946 C.2       8 UNK         0.5000 
     31 O           1.9036  -20.0658  -45.1118 O.2       8 UNK        -0.5000 
     32 CA          3.8784  -19.1043  -44.1655 C.3       8 UNK         0.1400 
     33 CB          4.2814  -18.0977  -45.2542 C.3       8 UNK        -0.1800 
     34 N           4.3809  -18.6500  -42.8667 N.am      8 UNK        -0.5000 
     35 C           4.4295  -19.4044  -41.7590 C.2       7 UNK         0.5000 
     36 O           4.0681  -20.5809  -41.7219 O.2       7 UNK        -0.5000 
     37 CA          4.9147  -18.7163  -40.4668 C.3       7 UNK         0.1400 
     38 CB          6.4262  -18.9202  -40.2858 C.3       7 UNK        -0.1800 
     39 N           4.6111  -17.2811  -40.3963 N.am      7 UNK        -0.5000 
     40 C           3.3808  -16.7489  -40.4379 C.2       6 UNK         0.5000 
     41 O           2.3658  -17.4267  -40.5951 O.2       6 UNK        -0.5000 
     42 CA          3.2533  -15.2162  -40.3193 C.3       6 UNK         0.1400 
     43 CB          4.5712  -14.5014  -39.9581 C.3       6 UNK        -0.1800 
     44 N           2.7564  -14.6773  -41.5830 N.am      6 UNK        -0.5000 
     45 C           1.4663  -14.5426  -41.9151 C.2       5 UNK         0.5000 
     46 O           0.5244  -14.7611  -41.1496 O.2       5 UNK        -0.5000 
     47 CA          1.2065  -14.1339  -43.3777 C.3       5 UNK         0.1400 
     48 CB          1.2915  -15.3674  -44.2913 C.3       5 UNK        -0.1800 
     49 N          -0.0851  -13.4824  -43.5919 N.am      5 UNK        -0.5000 
     50 C          -0.4539  -12.2981  -43.0865 C.2       4 UNK         0.5000 
     51 O           0.2676  -11.6145  -42.3583 O.2       4 UNK        -0.5000 
     52 CA         -1.8437  -11.7621  -43.4747 C.3       4 UNK         0.1400 
     53 CB         -1.7375  -10.8690  -44.7215 C.3       4 UNK        -0.1800 
     54 N          -2.8147  -12.8268  -43.7443 N.am      4 UNK        -0.5000 
     55 C          -3.9913  -12.9658  -43.1153 C.2       3 UNK         0.5000 
     56 O          -4.3619  -12.2381  -42.1929 O.2       3 UNK        -0.5000 
     57 CA         -4.9372  -14.0861  -43.5996 C.3       3 UNK         0.1400 
     58 CB         -6.0165  -13.5092  -44.5287 C.3       3 UNK        -0.1800 
     59 N          -4.2487  -15.1673  -44.3015 N.am      3 UNK        -0.5000 
     60 C          -3.4707  -16.0848  -43.7128 C.2       2 UNK         0.5000 
     61 O          -3.3368  -16.1801  -42.4932 O.2       2 UNK        -0.5000 
     62 CA         -2.6866  -17.0416  -44.6348 C.3       2 UNK         0.1400 
     63 CB         -3.2875  -18.4547  -44.6047 C.3       2 UNK        -0.1800 
     64 N          -2.5686  -16.6071  -46.0300 N.am      2 UNK        -0.5000 
     65 C          -1.9746  -15.4814  -46.4519 C.2       1 UNK         0.5000 
     66 O          -1.5333  -14.6213  -45.6906 O.2       1 UNK        -0.5000 
     67 C          -0.8472  -23.5905  -46.3158 C.2       11 UNK         0.5000 
     68 O          -1.1999  -24.2088  -47.3188 O.2       11 UNK        -0.5000 
     69 N          -1.7289  -23.0762  -45.4404 N.am      12 UNK        -0.5000 
     70 CA         -3.1851  -23.2488  -45.5151 C.3       12 UNK         0.1400 
     71 CB         -3.8545  -22.4194  -44.4109 C.3       12 UNK        -0.1800 
     72 C          -3.6465  -24.7186  -45.4404 C.2       12 UNK         0.5000 
     73 O          -4.7361  -25.0351  -45.9175 O.2       12 UNK        -0.5000 
     74 N          -2.7992  -25.5953  -44.8811 N.am      13 UNK        -0.5000 
     75 CA         -2.9692  -27.0479  -44.9034 C.3       13 UNK         0.1400 
     76 CB         -1.9567  -27.6799  -43.9364 C.3       13 UNK        -0.1800 
     77 C          -2.8182  -27.6538  -46.3154 C.2       13 UNK         0.5000 
     78 O          -3.3897  -28.7134  -46.5756 O.2       13 UNK        -0.5000 
     79 N          -2.0638  -26.9795  -47.1952 N.am      14 UNK        -0.5000 
     80 CA         -1.8910  -27.3417  -48.5988 C.3       14 UNK         0.1400 
     81 CB         -0.4340  -27.0927  -49.0250 C.3       14 UNK        -0.1800 
     82 C          -2.8738  -26.5515  -49.4772 C.2       14 UNK         0.5000 
     83 O          -3.6443  -27.1658  -50.2162 O.2       14 UNK        -0.5000 
     84 N          -2.8487  -25.2154  -49.3684 N.am      15 UNK        -0.5000 
     85 CA         -3.7188  -24.3021  -50.1052 C.3       15 UNK         0.1400 
     86 CB         -3.3773  -24.2943  -51.6112 C.3       15 UNK        -0.1800 
     87 C          -3.6637  -22.8896  -49.5044 C.2       15 UNK         0.5000 
     88 O          -4.6501  -22.4487  -48.9161 O.2       15 UNK        -0.5000 
     89 N          -2.5298  -22.1963  -49.7028 N.am      16 UNK        -0.5000 
     90 CA         -2.2771  -20.7766  -49.3906 C.3       16 UNK         0.1400 
     91 CB         -2.3401  -20.5027  -47.8739 C.3       16 UNK        -0.1800 
     92 C          -3.1557  -19.7803  -50.1821 C.2       16 UNK         0.5000 
     93 O          -3.2058  -18.5975  -49.8367 O.2       16 UNK        -0.5000 
     94 N          -3.8182  -20.2513  -51.2469 N.am      17 UNK        -0.5000 
     95 CA         -4.7191  -19.4931  -52.1145 C.3       17 UNK         0.1400 
     96 CB         -5.6676  -20.4760  -52.8223 C.3       17 UNK        -0.1800 
     97 C          -3.9463  -18.5936  -53.0991 C.2       17 UNK         0.5000 
     98 O          -4.0811  -18.7330  -54.3167 O.2       17 UNK        -0.5000 
     99 N          -3.1409  -17.6821  -52.5415 N.am      18 UNK        -0.5000 
    100 CA        -2.2440  -16.7543  -53.2336 C.3       18 UNK         0.1400 
    101 CB        -1.5220  -15.8993  -52.1849 C.3       18 UNK        -0.1800 
    102 C         -2.9339  -15.8521  -54.2726 C.2       18 UNK         0.5000 
    103 O         -2.3185  -15.5218  -55.2856 O.2       18 UNK        -0.5000 
    104 N         -4.2120  -15.5229  -54.0384 N.am      19 UNK        -0.5000 
    105 CA        -5.0741  -14.7709  -54.9554 C.3       19 UNK         0.1400 
    106 CB        -6.4002  -14.4606  -54.2445 C.3       19 UNK        -0.1800 
    107 C         -5.3368  -15.4919  -56.2953 C.2       19 UNK         0.5000 
    108 O         -5.6013  -14.8263  -57.2970 O.2       19 UNK        -0.5000 
    109 N         -5.2390  -16.8274  -56.2912 N.am      20 UNK        -0.5000 
    110 CA        -5.3356  -17.6965  -57.4641 C.3       20 UNK         0.1400 
    111 CB        -6.3975  -18.7722  -57.1748 C.3       20 UNK        -0.1800 
    112 C         -3.9759  -18.3454  -57.7969 C.2       20 UNK         0.5000 
    113 O         -3.9329  -19.2651  -58.6159 O.2       20 UNK        -0.5000 
    114 N         -2.8993  -17.9059  -57.1225 N.am      21 UNK        -0.5000 
    115 CA        -1.5360  -18.4538  -57.1500 C.3       21 UNK         0.1400 
    116 CB        -0.8605  -18.1343  -58.4990 C.3       21 UNK        -0.1800 
    117 C         -1.4676  -19.9566  -56.7897 C.2       21 UNK         0.5000 
    118 O         -0.5802  -20.6642  -57.2690 O.2       21 UNK        -0.5000 
    119 N         -2.4269  -20.4169  -55.9742 N.am      22 UNK        -0.5000 
    120 CA        -2.7045  -21.8263  -55.6521 C.3       22 UNK         0.1400 
    121 C         -3.1461  -22.6990  -56.8702 C.2       22 UNK         0.5000 
    122 N         -3.5802  -22.1223  -57.9855 N.am      22 UNK        -0.7600 
    123 O         -3.1314  -23.9249  -56.7981 O.2       22 UNK        -0.5000 
    124 C124       -1.5879  -22.4919  -54.8025 C.3       23 UNK        -0.0398 
    125 S125       -1.3567  -21.6774  -53.1856 S.3       23 UNK        -0.2404 
    126 C126        0.2561  -20.8724  -53.4040 C.3       23 UNK        -0.0205 
    127 H127       -4.9004  -16.4635  -50.4488 H         1 UNK         0.0600 
    128 H128       -6.2022  -15.6218  -49.6096 H         1 UNK         0.0600 
    129 H129       -5.5784  -17.1445  -48.9627 H         1 UNK         0.0600 
    130 H130       -2.7939  -16.7325  -49.2054 H         1 UNK         0.3000 
    131 H131       -1.9778  -14.1774  -48.1212 H         1 UNK         0.0600 
    132 H132        0.2994  -15.2158  -47.9360 H         1 UNK         0.0800 
    133 H133       -0.3882  -15.2587  -49.5293 H         1 UNK         0.0800 
    134 H134        2.1103  -17.3291  -49.1059 H         1 UNK         0.0800 
    135 H135        1.1464  -16.8471  -50.4796 H         1 UNK         0.0800 
    136 H136        0.2096  -18.5064  -52.0358 H         1 UNK         0.1150 
    137 H137        1.6820  -22.5214  -51.7889 H         1 UNK         0.1150 
    138 H138        2.4848  -19.7498  -48.6174 H         1 UNK         0.1150 
    139 H139        3.5630  -22.8788  -50.1174 H         1 UNK         0.0800 
    140 H140        3.6439  -21.8984  -48.6783 H         1 UNK         0.0800 
    141 H141        0.7819  -21.7000  -47.3608 H         1 UNK         0.0800 
    142 H142        2.3059  -22.1714  -46.6626 H         1 UNK         0.0800 
    143 H143        1.0816  -24.4543  -46.0800 H         1 UNK         0.0600 
    144 H144        1.2913  -22.0358  -44.5774 H         1 UNK         0.3000 
    145 H145        0.0721  -23.2111  -41.5346 H         1 UNK         0.0600 
    146 H146        2.3527  -22.9439  -40.5599 H         1 UNK         0.0600 
    147 H147        3.0765  -23.1718  -42.1514 H         1 UNK         0.0600 
    148 H148        2.2051  -24.4912  -41.3793 H         1 UNK         0.0600 
    149 H149        1.8089  -21.0309  -42.1173 H         1 UNK         0.3000 
    150 H150       -0.3195  -18.9733  -43.9444 H         1 UNK         0.0600 
    151 H151       -1.4895  -18.5252  -41.8107 H         1 UNK         0.0600 
    152 H152       -0.2410  -17.3165  -42.0578 H         1 UNK         0.0600 
    153 H153        0.0190  -18.6349  -40.9167 H         1 UNK         0.0600 
    154 H154        2.0428  -18.3983  -42.4318 H         1 UNK         0.3000 
    155 H155        4.3699  -20.0519  -44.3962 H         1 UNK         0.0600 
    156 H156        3.9016  -18.4015  -46.2309 H         1 UNK         0.0600 
    157 H157        5.3660  -18.0272  -45.3388 H         1 UNK         0.0600 
    158 H158        3.8993  -17.0992  -45.0503 H         1 UNK         0.0600 
    159 H159        4.6913  -17.6917  -42.8063 H         1 UNK         0.3000 
    160 H160        4.4033  -19.2008  -39.6325 H         1 UNK         0.0600 
    161 H161        6.9962  -18.4268  -41.0741 H         1 UNK         0.0600 
    162 H162        6.6833  -19.9802  -40.3089 H         1 UNK         0.0600 
    163 H163        6.7661  -18.5265  -39.3277 H         1 UNK         0.0600 
    164 H164        5.3987  -16.6613  -40.2738 H         1 UNK         0.3000 
    165 H165        2.5347  -15.0143  -39.5223 H         1 UNK         0.0600 
    166 H166        4.4072  -13.4307  -39.8338 H         1 UNK         0.0600 
    167 H167        4.9761  -14.8710  -39.0150 H         1 UNK         0.0600 
    168 H168        5.3344  -14.6277  -40.7271 H         1 UNK         0.0600 
    169 H169        3.4566  -14.4873  -42.2852 H         1 UNK         0.3000 
    170 H170        1.9843  -13.4278  -43.6759 H         1 UNK         0.0600 
    171 H171        0.4824  -16.0702  -44.0939 H         1 UNK         0.0600 
    172 H172        1.2433  -15.0868  -45.3435 H         1 UNK         0.0600 
    173 H173        2.2273  -15.9023  -44.1399 H         1 UNK         0.0600 
    174 H174       -0.7127  -13.9564  -44.2348 H         1 UNK         0.3000 
    175 H175       -2.1797  -11.1387  -42.6437 H         1 UNK         0.0600 
    176 H176       -1.4081  -11.4355  -45.5937 H         1 UNK         0.0600 
    177 H177       -2.6983  -10.4134  -44.9615 H         1 UNK         0.0600 
    178 H178       -1.0238  -10.0591  -44.5650 H         1 UNK         0.0600 
    179 H179       -2.5715  -13.4826  -44.4791 H         1 UNK         0.3000 
    180 H180       -5.4317  -14.5039  -42.7200 H         1 UNK         0.0600 
    181 H181       -6.7348  -14.2748  -44.8226 H         1 UNK         0.0600 
    182 H182       -5.5819  -13.0907  -45.4377 H         1 UNK         0.0600 
    183 H183       -6.5749  -12.7133  -44.0343 H         1 UNK         0.0600 
    184 H184       -4.3010  -15.1577  -45.3107 H         1 UNK         0.3000 
    185 H185       -1.6756  -17.0925  -44.2315 H         1 UNK         0.0600 
    186 H186       -4.2825  -18.4787  -45.0504 H         1 UNK         0.0600 
    187 H187       -2.6577  -19.1604  -45.1465 H         1 UNK         0.0600 
    188 H188       -3.3753  -18.8246  -43.5822 H         1 UNK         0.0600 
    189 H189       -2.9206  -17.2410  -46.7326 H         1 UNK         0.3000 
    190 H190       -1.3844  -22.5604  -44.6383 H         1 UNK         0.3000 
    191 H191       -3.5156  -22.8618  -46.4786 H         1 UNK         0.0600 
    192 H192       -3.6112  -21.3626  -44.5116 H         1 UNK         0.0600 
    193 H193       -3.5393  -22.7436  -43.4183 H         1 UNK         0.0600 
    194 H194       -4.9407  -22.5068  -44.4576 H         1 UNK         0.0600 
    195 H195       -1.9306  -25.2488  -44.4947 H         1 UNK         0.3000 
    196 H196       -3.9753  -27.2801  -44.5481 H         1 UNK         0.0600 
    197 H197       -2.0953  -27.3079  -42.9210 H         1 UNK         0.0600 
    198 H198       -0.9293  -27.4654  -44.2339 H         1 UNK         0.0600 
    199 H199       -2.0706  -28.7642  -43.9038 H         1 UNK         0.0600 
    200 H200       -1.6806  -26.0812  -46.9243 H         1 UNK         0.3000 
    201 H201       -2.0954  -28.4055  -48.7378 H         1 UNK         0.0600 
    202 H202        0.2560  -27.6890  -48.4281 H         1 UNK         0.0600 
    203 H203       -0.1453  -26.0468  -48.9197 H         1 UNK         0.0600 
    204 H204       -0.2828  -27.3687  -50.0692 H         1 UNK         0.0600 
    205 H205       -2.2125  -24.7858  -48.6970 H         1 UNK         0.3000 
    206 H206       -4.7475  -24.6517  -49.9935 H         1 UNK         0.0600 
    207 H207       -2.3099  -24.1547  -51.7822 H         1 UNK         0.0600 
    208 H208       -3.6646  -25.2308  -52.0885 H         1 UNK         0.0600 
    209 H209       -3.9071  -23.4979  -52.1355 H         1 UNK         0.0600 
    210 H210       -1.7791  -22.6599  -50.1962 H         1 UNK         0.3000 
    211 H211       -1.2538  -20.5782  -49.7114 H         1 UNK         0.0600 
    212 H212       -3.3253  -20.7078  -47.4573 H         1 UNK         0.0600 
    213 H213       -2.1124  -19.4625  -47.6459 H         1 UNK         0.0600 
    214 H214       -1.6070  -21.0996  -47.3401 H         1 UNK         0.0600 
    215 H215       -3.6636  -21.2149  -51.4997 H         1 UNK         0.3000 
    216 H216       -5.3306  -18.8361  -51.4927 H         1 UNK         0.0600 
    217 H217       -6.3604  -19.9502  -53.4808 H         1 UNK         0.0600 
    218 H218       -6.2666  -21.0306  -52.0998 H         1 UNK         0.0600 
    219 H219       -5.1228  -21.1998  -53.4267 H         1 UNK         0.0600 
    220 H220       -3.0753  -17.7051  -51.5287 H         1 UNK         0.3000 
    221 H221       -1.5015  -17.3562  -53.7611 H         1 UNK         0.0600 
    222 H222       -2.2180  -15.2698  -51.6288 H         1 UNK         0.0600 
    223 H223       -0.9978  -16.5283  -51.4686 H         1 UNK         0.0600 
    224 H224       -0.7828  -15.2458  -52.6499 H         1 UNK         0.0600 
    225 H225       -4.6370  -15.8468  -53.1826 H         1 UNK         0.3000 
    226 H226       -4.5763  -13.8262  -55.1838 H         1 UNK         0.0600 
    227 H227       -6.2354  -13.8815  -53.3357 H         1 UNK         0.0600 
    228 H228       -7.0599  -13.8748  -54.8861 H         1 UNK         0.0600 
    229 H229       -6.9329  -15.3723  -53.9712 H         1 UNK         0.0600 
    230 H230       -4.9932  -17.2983  -55.4265 H         1 UNK         0.3000 
    231 H231       -5.6469  -17.1298  -58.3435 H         1 UNK         0.0600 
    232 H232       -6.5506  -19.4195  -58.0391 H         1 UNK         0.0600 
    233 H233       -7.3602  -18.3203  -56.9360 H         1 UNK         0.0600 
    234 H234       -6.1076  -19.4062  -56.3355 H         1 UNK         0.0600 
    235 H235       -3.0305  -17.1266  -56.4897 H         1 UNK         0.3000 
    236 H236       -0.9813  -17.9316  -56.3694 H         1 UNK         0.0600 
    237 H237       -1.3311  -18.6712  -59.3232 H         1 UNK         0.0600 
    238 H238       -0.9103  -17.0683  -58.7210 H         1 UNK         0.0600 
    239 H239        0.1940  -18.4120  -58.4864 H         1 UNK         0.0600 
    240 H240       -3.0883  -19.7500  -55.5866 H         1 UNK         0.3000 
    241 H241       -3.5960  -21.7975  -55.0278 H         1 UNK         0.0600 
    242 H242       -3.6159  -21.1121  -58.0842 H         1 UNK         0.3800 
    243 H243       -3.8714  -22.7028  -58.7556 H         1 UNK         0.3800 
    244 H244       -0.6489  -22.5263  -55.3552 H         1 UNK         0.0800 
    245 H245       -1.8417  -23.5307  -54.5859 H         1 UNK         0.0800 
    246 H246        0.9289  -21.5257  -53.9612 H         1 UNK         0.0800 
    247 H247        0.1317  -19.9694  -54.0033 H         1 UNK         0.0800 
@<TRIPOS>BOND
     1    1    2 1    
     2    1  127 1    
     3    1  128 1    
     4    1  129 1    
     5    2    3 2    
     6    2    4 am   BACKBONE|DICT|INTERRES
     7    4    5 1    
     8    4  130 1    
     9    5    6 1    
    10    5   65 1    
    11    5  131 1    
    12    6    7 1    
    13    6  132 1    
    14    6  133 1    
    15    7    8 1    
    16    8    9 1    
    17    8  134 1    
    18    8  135 1    
    19    9   10 ar   
    20    9   14 ar   
    21   10   11 ar   
    22   10  136 1    
    23   11   12 ar   
    24   11  126 1    
    25   12   13 ar   
    26   12  137 1    
    27   13   14 ar   
    28   13   15 1    
    29   14  138 1    
    30   15   16 1    
    31   15  139 1    
    32   15  140 1    
    33   16   17 1    
    34   17   18 1    
    35   17  141 1    
    36   17  142 1    
    37   18   19 1    
    38   18   67 1    
    39   18  143 1    
    40   19   20 am   BACKBONE|DICT|INTERRES
    41   19  144 1    
    42   20   21 2    
    43   20   22 1    
    44   22   23 1    
    45   22   24 1    
    46   22  145 1    
    47   23  146 1    
    48   23  147 1    
    49   23  148 1    
    50   24   25 am   BACKBONE|DICT|INTERRES
    51   24  149 1    
    52   25   26 2    
    53   25   27 1    
    54   27   28 1    
    55   27   29 1    
    56   27  150 1    
    57   28  151 1    
    58   28  152 1    
    59   28  153 1    
    60   29   30 am   BACKBONE|DICT|INTERRES
    61   29  154 1    
    62   30   31 2    
    63   30   32 1    
    64   32   33 1    
    65   32   34 1    
    66   32  155 1    
    67   33  156 1    
    68   33  157 1    
    69   33  158 1    
    70   34   35 am   BACKBONE|DICT|INTERRES
    71   34  159 1    
    72   35   36 2    
    73   35   37 1    
    74   37   38 1    
    75   37   39 1    
    76   37  160 1    
    77   38  161 1    
    78   38  162 1    
    79   38  163 1    
    80   39   40 am   BACKBONE|DICT|INTERRES
    81   39  164 1    
    82   40   41 2    
    83   40   42 1    
    84   42   43 1    
    85   42   44 1    
    86   42  165 1    
    87   43  166 1    
    88   43  167 1    
    89   43  168 1    
    90   44   45 am   BACKBONE|DICT|INTERRES
    91   44  169 1    
    92   45   46 2    
    93   45   47 1    
    94   47   48 1    
    95   47   49 1    
    96   47  170 1    
    97   48  171 1    
    98   48  172 1    
    99   48  173 1    
   100   49   50 am   BACKBONE|DICT|INTERRES
   101   49  174 1    
   102   50   51 2    
   103   50   52 1    
   104   52   53 1    
   105   52   54 1    
   106   52  175 1    
   107   53  176 1    
   108   53  177 1    
   109   53  178 1    
   110   54   55 am   BACKBONE|DICT|INTERRES
   111   54  179 1    
   112   55   56 2    
   113   55   57 1    
   114   57   58 1    
   115   57   59 1    
   116   57  180 1    
   117   58  181 1    
   118   58  182 1    
   119   58  183 1    
   120   59   60 am   BACKBONE|DICT|INTERRES
   121   59  184 1    
   122   60   61 2    
   123   60   62 1    
   124   62   63 1    
   125   62   64 1    
   126   62  185 1    
   127   63  186 1    
   128   63  187 1    
   129   63  188 1    
   130   64   65 am   BACKBONE|DICT|INTERRES
   131   64  189 1    
   132   65   66 2    
   133   67   68 2    
   134   67   69 am   BACKBONE|DICT|INTERRES
   135   69   70 1    
   136   69  190 1    
   137   70   71 1    
   138   70   72 1    
   139   70  191 1    
   140   71  192 1    
   141   71  193 1    
   142   71  194 1    
   143   72   73 2    
   144   72   74 am   BACKBONE|DICT|INTERRES
   145   74   75 1    
   146   74  195 1    
   147   75   76 1    
   148   75   77 1    
   149   75  196 1    
   150   76  197 1    
   151   76  198 1    
   152   76  199 1    
   153   77   78 2    
   154   77   79 am   BACKBONE|DICT|INTERRES
   155   79   80 1    
   156   79  200 1    
   157   80   81 1    
   158   80   82 1    
   159   80  201 1    
   160   81  202 1    
   161   81  203 1    
   162   81  204 1    
   163   82   83 2    
   164   82   84 am   BACKBONE|DICT|INTERRES
   165   84   85 1    
   166   84  205 1    
   167   85   86 1    
   168   85   87 1    
   169   85  206 1    
   170   86  207 1    
   171   86  208 1    
   172   86  209 1    
   173   87   88 2    
   174   87   89 am   BACKBONE|DICT|INTERRES
   175   89   90 1    
   176   89  210 1    
   177   90   91 1    
   178   90   92 1    
   179   90  211 1    
   180   91  212 1    
   181   91  213 1    
   182   91  214 1    
   183   92   93 2    
   184   92   94 am   BACKBONE|DICT|INTERRES
   185   94   95 1    
   186   94  215 1    
   187   95   96 1    
   188   95   97 1    
   189   95  216 1    
   190   96  217 1    
   191   96  218 1    
   192   96  219 1    
   193   97   98 2    
   194   97   99 am   BACKBONE|DICT|INTERRES
   195   99  100 1    
   196   99  220 1    
   197  100  101 1    
   198  100  102 1    
   199  100  221 1    
   200  101  222 1    
   201  101  223 1    
   202  101  224 1    
   203  102  103 2    
   204  102  104 am   BACKBONE|DICT|INTERRES
   205  104  105 1    
   206  104  225 1    
   207  105  106 1    
   208  105  107 1    
   209  105  226 1    
   210  106  227 1    
   211  106  228 1    
   212  106  229 1    
   213  107  108 2    
   214  107  109 am   BACKBONE|DICT|INTERRES
   215  109  110 1    
   216  109  230 1    
   217  110  111 1    
   218  110  112 1    
   219  110  231 1    
   220  111  232 1    
   221  111  233 1    
   222  111  234 1    
   223  112  113 2    
   224  112  114 am   BACKBONE|DICT|INTERRES
   225  114  115 1    
   226  114  235 1    
   227  115  116 1    
   228  115  117 1    
   229  115  236 1    
   230  116  237 1    
   231  116  238 1    
   232  116  239 1    
   233  117  118 2    
   234  117  119 am   BACKBONE|DICT|INTERRES
   235  119  120 1    
   236  119  240 1    
   237  120  121 1    
   238  120  124 1    
   239  120  241 1    
   240  121  122 am   BACKBONE|DICT|INTERRES
   241  121  123 2    
   242  122  242 1    
   243  122  243 1    
   244  124  125 1    
   245  124  244 1    
   246  124  245 1    
   247  125  126 1    
   248  126  246 1    
   249  126  247 1    
@<TRIPOS>SUBSTRUCTURE
     1 UNK         1 GROUP             0       ****    0 ROOT    
