@<TRIPOS>MOLECULE
3R540
247   249    1
SMALL
USER_CHARGES


@<TRIPOS>ATOM
      1 CA         -2.7115  -10.0917  -44.8068 C.3       0 UNK        -0.1800 
      2 C          -2.6777  -11.5863  -44.4919 C.2       0 UNK         0.5000 
      3 O          -3.0932  -11.9796  -43.4043 O.2       0 UNK        -0.5000 
      4 N          -2.2085  -12.4609  -45.3949 N.am      1 UNK        -0.5000 
      5 CA         -1.6450  -12.1716  -46.7220 C.3       1 UNK         0.1400 
      6 C6         -1.4757  -13.4740  -47.5515 C.3       23 UNK        -0.0398 
      7 S7         -1.4803  -13.1738  -49.3516 S.3       23 UNK        -0.2404 
      8 C8          0.2990  -13.2074  -49.7415 C.3       23 UNK        -0.0205 
      9 C9          0.7622  -14.5859  -50.1844 C.ar      23 UNK        -0.0193 
     10 C10         0.6564  -14.9492  -51.5289 C.ar      23 UNK        -0.1150 
     11 C11         1.1143  -16.1934  -51.9667 C.ar      23 UNK        -0.0193 
     12 C12         1.6868  -17.0770  -51.0492 C.ar      23 UNK        -0.1150 
     13 C13         1.7867  -16.7349  -49.6954 C.ar      23 UNK        -0.0193 
     14 C14         1.3241  -15.4837  -49.2708 C.ar      23 UNK        -0.1150 
     15 C15         2.4281  -17.6865  -48.6889 C.3       23 UNK        -0.0205 
     16 S16         1.9521  -19.4355  -48.9074 S.3       23 UNK        -0.2404 
     17 C17         0.1485  -19.3654  -48.6466 C.3       23 UNK        -0.0398 
     18 CA         -0.3973  -20.6855  -48.0519 C.3       11 UNK         0.1400 
     19 N           0.0491  -20.9061  -46.6725 N.am      11 UNK        -0.5000 
     20 C          -0.0195  -22.0814  -46.0330 C.2       10 UNK         0.5000 
     21 O          -0.3963  -23.1258  -46.5636 O.2       10 UNK        -0.5000 
     22 CA          0.3682  -22.0936  -44.5411 C.3       10 UNK         0.1400 
     23 CB          1.8779  -22.3175  -44.3685 C.3       10 UNK        -0.1800 
     24 N          -0.0412  -20.8822  -43.8251 N.am      10 UNK        -0.5000 
     25 C          -1.3168  -20.5102  -43.6440 C.2       9 UNK         0.5000 
     26 O          -2.2777  -21.1614  -44.0466 O.2       9 UNK        -0.5000 
     27 CA         -1.5726  -19.1677  -42.9393 C.3       9 UNK         0.1400 
     28 CB         -1.4473  -19.3205  -41.4164 C.3       9 UNK        -0.1800 
     29 N          -0.6867  -18.1048  -43.4105 N.am      9 UNK        -0.5000 
     30 C          -0.6552  -17.6396  -44.6676 C.2       8 UNK         0.5000 
     31 O          -1.4126  -18.0216  -45.5602 O.2       8 UNK        -0.5000 
     32 CA          0.4542  -16.6239  -44.9994 C.3       8 UNK         0.1400 
     33 CB          0.0866  -15.2187  -44.5042 C.3       8 UNK        -0.1800 
     34 N           1.7555  -17.0113  -44.4530 N.am      8 UNK        -0.5000 
     35 C           2.3923  -18.1551  -44.7431 C.2       7 UNK         0.5000 
     36 O           1.9677  -18.9918  -45.5374 O.2       7 UNK        -0.5000 
     37 CA          3.6896  -18.4372  -43.9718 C.3       7 UNK         0.1400 
     38 CB          4.8656  -17.6413  -44.5580 C.3       7 UNK        -0.1800 
     39 N           3.5361  -18.1365  -42.5489 N.am      7 UNK        -0.5000 
     40 C           2.7959  -18.8685  -41.7036 C.2       6 UNK         0.5000 
     41 O           2.2021  -19.8962  -42.0297 O.2       6 UNK        -0.5000 
     42 CA          2.6674  -18.3439  -40.2616 C.3       6 UNK         0.1400 
     43 CB          3.8739  -18.7788  -39.4166 C.3       6 UNK        -0.1800 
     44 N           2.5301  -16.8881  -40.1994 N.am      6 UNK        -0.5000 
     45 C           1.4738  -16.2085  -40.6672 C.2       5 UNK         0.5000 
     46 O           0.4889  -16.7414  -41.1747 O.2       5 UNK        -0.5000 
     47 CA          1.5482  -14.6733  -40.5998 C.3       5 UNK         0.1400 
     48 CB          1.0352  -14.1654  -39.2446 C.3       5 UNK        -0.1800 
     49 N           2.8857  -14.1303  -40.8438 N.am      5 UNK        -0.5000 
     50 C           3.6132  -14.3221  -41.9515 C.2       4 UNK         0.5000 
     51 O           3.2687  -15.0597  -42.8771 O.2       4 UNK        -0.5000 
     52 CA          4.9151  -13.5040  -42.0502 C.3       4 UNK         0.1400 
     53 CB          5.8714  -14.0502  -43.1250 C.3       4 UNK        -0.1800 
     54 N           4.5908  -12.1162  -42.3679 N.am      4 UNK        -0.5000 
     55 C           4.0920  -11.2163  -41.5082 C.2       3 UNK         0.5000 
     56 O           4.0237  -11.3995  -40.2917 O.2       3 UNK        -0.5000 
     57 CA          3.5277   -9.9179  -42.1195 C.3       3 UNK         0.1400 
     58 CB          4.5846   -8.8036  -42.0910 C.3       3 UNK        -0.1800 
     59 N           3.0490  -10.0947  -43.4956 N.am      3 UNK        -0.5000 
     60 C           2.0085  -10.8613  -43.8517 C.2       2 UNK         0.5000 
     61 O           1.2835  -11.4589  -43.0516 O.2       2 UNK        -0.5000 
     62 CA          1.7737  -11.0159  -45.3594 C.3       2 UNK         0.1400 
     63 CB          2.8488  -11.9193  -45.9934 C.3       2 UNK        -0.1800 
     64 N           0.4615  -11.6096  -45.5844 N.am      2 UNK        -0.5000 
     65 C          -0.3137  -11.3888  -46.6509 C.2       1 UNK         0.5000 
     66 O          -0.0210  -10.6021  -47.5517 O.2       1 UNK        -0.5000 
     67 C          -1.9343  -20.7505  -48.1816 C.2       11 UNK         0.5000 
     68 O          -2.4295  -21.2613  -49.1861 O.2       11 UNK        -0.5000 
     69 N          -2.6615  -20.2358  -47.1796 N.am      12 UNK        -0.5000 
     70 CA         -4.1252  -20.2544  -47.1285 C.3       12 UNK         0.1400 
     71 CB         -4.6061  -19.2189  -46.1009 C.3       12 UNK        -0.1800 
     72 C          -4.7040  -21.6459  -46.8050 C.2       12 UNK         0.5000 
     73 O          -5.7743  -21.9900  -47.3125 O.2       12 UNK        -0.5000 
     74 N          -3.9957  -22.4102  -45.9627 N.am      13 UNK        -0.5000 
     75 CA         -4.3507  -23.7546  -45.5071 C.3       13 UNK         0.1400 
     76 CB         -3.2954  -24.2395  -44.4997 C.3       13 UNK        -0.1800 
     77 C          -4.5095  -24.7797  -46.6451 C.2       13 UNK         0.5000 
     78 O          -3.9765  -24.5917  -47.7417 O.2       13 UNK        -0.5000 
     79 N          -5.2511  -25.8555  -46.3429 N.am      14 UNK        -0.5000 
     80 CA         -5.5988  -26.9631  -47.2408 C.3       14 UNK         0.1400 
     81 CB         -4.3472  -27.7968  -47.5903 C.3       14 UNK        -0.1800 
     82 C          -6.3729  -26.4900  -48.4883 C.2       14 UNK         0.5000 
     83 O          -6.1335  -26.9947  -49.5845 O.2       14 UNK        -0.5000 
     84 N          -7.2661  -25.5071  -48.2926 N.am      15 UNK        -0.5000 
     85 CA         -8.0660  -24.8238  -49.3136 C.3       15 UNK         0.1400 
     86 CB         -9.1170  -25.7821  -49.9135 C.3       15 UNK        -0.1800 
     87 C          -7.1781  -24.1593  -50.3841 C.2       15 UNK         0.5000 
     88 O          -7.2361  -24.5348  -51.5556 O.2       15 UNK        -0.5000 
     89 N          -6.3429  -23.2067  -49.9447 N.am      16 UNK        -0.5000 
     90 CA         -5.3793  -22.4514  -50.7523 C.3       16 UNK         0.1400 
     91 CB         -6.1089  -21.5380  -51.7594 C.3       16 UNK        -0.1800 
     92 C          -4.3227  -23.3622  -51.4116 C.2       16 UNK         0.5000 
     93 O          -4.0727  -23.2534  -52.6163 O.2       16 UNK        -0.5000 
     94 N          -3.7482  -24.2597  -50.5961 N.am      17 UNK        -0.5000 
     95 CA         -2.7351  -25.2582  -50.9398 C.3       17 UNK         0.1400 
     96 CB         -1.3958  -24.5708  -51.2775 C.3       17 UNK        -0.1800 
     97 C          -3.2191  -26.2321  -52.0325 C.2       17 UNK         0.5000 
     98 O          -2.5855  -26.3514  -53.0812 O.2       17 UNK        -0.5000 
     99 N          -4.3546  -26.8941  -51.7669 N.am      18 UNK        -0.5000 
    100 CA        -5.0597  -27.8358  -52.6425 C.3       18 UNK         0.1400 
    101 CB        -4.2163  -29.1052  -52.8863 C.3       18 UNK        -0.1800 
    102 C         -5.5557  -27.1676  -53.9399 C.2       18 UNK         0.5000 
    103 O         -5.3970  -27.7243  -55.0281 O.2       18 UNK        -0.5000 
    104 N         -6.1410  -25.9707  -53.7865 N.am      19 UNK        -0.5000 
    105 CA        -6.6797  -25.0969  -54.8313 C.3       19 UNK         0.1400 
    106 CB        -7.9068  -25.7439  -55.5070 C.3       19 UNK        -0.1800 
    107 C         -5.6232  -24.6038  -55.8424 C.2       19 UNK         0.5000 
    108 O         -5.9708  -24.2911  -56.9829 O.2       19 UNK        -0.5000 
    109 N         -4.3558  -24.5200  -55.4117 N.am      20 UNK        -0.5000 
    110 CA        -3.2611  -23.9463  -56.1931 C.3       20 UNK         0.1400 
    111 CB        -1.9122  -24.3275  -55.5677 C.3       20 UNK        -0.1800 
    112 C         -3.3952  -22.4199  -56.3068 C.2       20 UNK         0.5000 
    113 O         -3.1899  -21.8768  -57.3930 O.2       20 UNK        -0.5000 
    114 N         -3.7564  -21.7705  -55.1869 N.am      21 UNK        -0.5000 
    115 CA        -4.1104  -20.3508  -55.0559 C.3       21 UNK         0.1400 
    116 CB        -5.5441  -20.1303  -55.5784 C.3       21 UNK        -0.1800 
    117 C         -3.0853  -19.3779  -55.6807 C.2       21 UNK         0.5000 
    118 O         -3.4700  -18.4118  -56.3423 O.2       21 UNK        -0.5000 
    119 N         -1.7964  -19.6777  -55.4717 N.am      22 UNK        -0.5000 
    120 CA        -0.6278  -18.9606  -56.0169 C.3       22 UNK         0.1400 
    121 C         -0.4005  -19.1484  -57.5499 C.2       22 UNK         0.5000 
    122 N         -1.1085  -20.0378  -58.2358 N.am      22 UNK        -0.7600 
    123 O          0.4642  -18.4974  -58.1307 O.2       22 UNK        -0.5000 
    124 C124       -0.5637  -17.4619  -55.6006 C.3       23 UNK        -0.0398 
    125 S125       -0.6714  -17.2101  -53.7953 S.3       23 UNK        -0.2404 
    126 C126        0.9919  -16.5755  -53.4314 C.3       23 UNK        -0.0205 
    127 H127       -1.7226   -9.6519  -44.6789 H         1 UNK         0.0600 
    128 H128       -3.3934   -9.5787  -44.1283 H         1 UNK         0.0600 
    129 H129       -3.0565   -9.8967  -45.8214 H         1 UNK         0.0600 
    130 H130       -2.2355  -13.4383  -45.1465 H         1 UNK         0.3000 
    131 H131       -2.3681  -11.5402  -47.2414 H         1 UNK         0.0600 
    132 H132       -0.5829  -14.0295  -47.2600 H         1 UNK         0.0800 
    133 H133       -2.3132  -14.1460  -47.3579 H         1 UNK         0.0800 
    134 H134        0.4898  -12.4875  -50.5388 H         1 UNK         0.0800 
    135 H135        0.8888  -12.8662  -48.8904 H         1 UNK         0.0800 
    136 H136        0.2173  -14.2611  -52.2379 H         1 UNK         0.1150 
    137 H137        2.0511  -18.0354  -51.3913 H         1 UNK         0.1150 
    138 H138        1.4153  -15.2009  -48.2316 H         1 UNK         0.1150 
    139 H139        3.5118  -17.6080  -48.7812 H         1 UNK         0.0800 
    140 H140        2.1857  -17.3833  -47.6711 H         1 UNK         0.0800 
    141 H141       -0.3086  -19.1540  -49.6153 H         1 UNK         0.0800 
    142 H142       -0.0986  -18.5227  -47.9985 H         1 UNK         0.0800 
    143 H143       -0.0060  -21.5063  -48.6575 H         1 UNK         0.0600 
    144 H144        0.4622  -20.1125  -46.1915 H         1 UNK         0.3000 
    145 H145       -0.1488  -22.9366  -44.0779 H         1 UNK         0.0600 
    146 H146        2.1457  -22.4057  -43.3156 H         1 UNK         0.0600 
    147 H147        2.1942  -23.2369  -44.8625 H         1 UNK         0.0600 
    148 H148        2.4595  -21.5006  -44.7949 H         1 UNK         0.0600 
    149 H149        0.7007  -20.3090  -43.4389 H         1 UNK         0.3000 
    150 H150       -2.5977  -18.8665  -43.1644 H         1 UNK         0.0600 
    151 H151       -2.1020  -20.1109  -41.0473 H         1 UNK         0.0600 
    152 H152       -1.7293  -18.4005  -40.9043 H         1 UNK         0.0600 
    153 H153       -0.4287  -19.5706  -41.1185 H         1 UNK         0.0600 
    154 H154       -0.0637  -17.6975  -42.7179 H         1 UNK         0.3000 
    155 H155        0.5479  -16.5850  -46.0860 H         1 UNK         0.0600 
    156 H156       -0.8790  -14.9109  -44.9025 H         1 UNK         0.0600 
    157 H157        0.8273  -14.4835  -44.8190 H         1 UNK         0.0600 
    158 H158        0.0175  -15.1799  -43.4177 H         1 UNK         0.0600 
    159 H159        2.1948  -16.3643  -43.8033 H         1 UNK         0.3000 
    160 H160        3.9185  -19.5001  -44.0746 H         1 UNK         0.0600 
    161 H161        4.6898  -16.5664  -44.5225 H         1 UNK         0.0600 
    162 H162        5.0296  -17.9087  -45.6027 H         1 UNK         0.0600 
    163 H163        5.7906  -17.8486  -44.0200 H         1 UNK         0.0600 
    164 H164        3.9273  -17.2639  -42.2249 H         1 UNK         0.3000 
    165 H165        1.7691  -18.7872  -39.8265 H         1 UNK         0.0600 
    166 H166        3.7537  -18.4804  -38.3750 H         1 UNK         0.0600 
    167 H167        3.9893  -19.8635  -39.4315 H         1 UNK         0.0600 
    168 H168        4.8038  -18.3446  -39.7858 H         1 UNK         0.0600 
    169 H169        3.2988  -16.3690  -39.8014 H         1 UNK         0.3000 
    170 H170        0.8931  -14.2776  -41.3781 H         1 UNK         0.0600 
    171 H171        0.0283  -14.5344  -39.0446 H         1 UNK         0.0600 
    172 H172        1.6748  -14.4917  -38.4236 H         1 UNK         0.0600 
    173 H173        0.9909  -13.0762  -39.2238 H         1 UNK         0.0600 
    174 H174        3.2234  -13.4485  -40.1754 H         1 UNK         0.3000 
    175 H175        5.4252  -13.5490  -41.0856 H         1 UNK         0.0600 
    176 H176        5.4279  -14.0125  -44.1210 H         1 UNK         0.0600 
    177 H177        6.8000  -13.4799  -43.1512 H         1 UNK         0.0600 
    178 H178        6.1344  -15.0887  -42.9207 H         1 UNK         0.0600 
    179 H179        4.5875  -11.8770  -43.3477 H         1 UNK         0.3000 
    180 H180        2.6814   -9.6054  -41.5042 H         1 UNK         0.0600 
    181 H181        5.4501   -9.0527  -42.7062 H         1 UNK         0.0600 
    182 H182        4.9427   -8.6314  -41.0750 H         1 UNK         0.0600 
    183 H183        4.1741   -7.8608  -42.4531 H         1 UNK         0.0600 
    184 H184        3.5843   -9.6315  -44.2163 H         1 UNK         0.3000 
    185 H185        1.8145  -10.0217  -45.8095 H         1 UNK         0.0600 
    186 H186        3.8459  -11.4947  -45.8732 H         1 UNK         0.0600 
    187 H187        2.8568  -12.9121  -45.5406 H         1 UNK         0.0600 
    188 H188        2.6804  -12.0428  -47.0633 H         1 UNK         0.0600 
    189 H189        0.1237  -12.1839  -44.8224 H         1 UNK         0.3000 
    190 H190       -2.1835  -19.7795  -46.4103 H         1 UNK         0.3000 
    191 H191       -4.5068  -19.9580  -48.1078 H         1 UNK         0.0600 
    192 H192       -4.2576  -18.2182  -46.3572 H         1 UNK         0.0600 
    193 H193       -5.6955  -19.1847  -46.0606 H         1 UNK         0.0600 
    194 H194       -4.2467  -19.4505  -45.0978 H         1 UNK         0.0600 
    195 H195       -3.1624  -22.0086  -45.5445 H         1 UNK         0.3000 
    196 H196       -5.3099  -23.6749  -44.9922 H         1 UNK         0.0600 
    197 H197       -3.5190  -25.2447  -44.1405 H         1 UNK         0.0600 
    198 H198       -3.2564  -23.5911  -43.6247 H         1 UNK         0.0600 
    199 H199       -2.3005  -24.2655  -44.9448 H         1 UNK         0.0600 
    200 H200       -5.6403  -25.9197  -45.4122 H         1 UNK         0.3000 
    201 H201       -6.2813  -27.6097  -46.6877 H         1 UNK         0.0600 
    202 H202       -3.8291  -28.1255  -46.6896 H         1 UNK         0.0600 
    203 H203       -3.6384  -27.2330  -48.1969 H         1 UNK         0.0600 
    204 H204       -4.6173  -28.6915  -48.1525 H         1 UNK         0.0600 
    205 H205       -7.3622  -25.1476  -47.3537 H         1 UNK         0.3000 
    206 H206       -8.6032  -24.0196  -48.8086 H         1 UNK         0.0600 
    207 H207       -9.7541  -26.2040  -49.1363 H         1 UNK         0.0600 
    208 H208       -9.7653  -25.2565  -50.6155 H         1 UNK         0.0600 
    209 H209       -8.6562  -26.6095  -50.4541 H         1 UNK         0.0600 
    210 H210       -6.3284  -22.9851  -48.9531 H         1 UNK         0.3000 
    211 H211       -4.8426  -21.8059  -50.0578 H         1 UNK         0.0600 
    212 H212       -6.5925  -22.1073  -52.5538 H         1 UNK         0.0600 
    213 H213       -5.4091  -20.8486  -52.2288 H         1 UNK         0.0600 
    214 H214       -6.8711  -20.9355  -51.2656 H         1 UNK         0.0600 
    215 H215       -4.0179  -24.2587  -49.6147 H         1 UNK         0.3000 
    216 H216       -2.5771  -25.8564  -50.0415 H         1 UNK         0.0600 
    217 H217       -0.6142  -25.3079  -51.4640 H         1 UNK         0.0600 
    218 H218       -1.0607  -23.9423  -50.4519 H         1 UNK         0.0600 
    219 H219       -1.4720  -23.9417  -52.1640 H         1 UNK         0.0600 
    220 H220       -4.8330  -26.7188  -50.8857 H         1 UNK         0.3000 
    221 H221       -5.9559  -28.1409  -52.1005 H         1 UNK         0.0600 
    222 H222       -3.3234  -28.8951  -53.4755 H         1 UNK         0.0600 
    223 H223       -3.8999  -29.5539  -51.9448 H         1 UNK         0.0600 
    224 H224       -4.7928  -29.8573  -53.4260 H         1 UNK         0.0600 
    225 H225       -6.2516  -25.6023  -52.8451 H         1 UNK         0.3000 
    226 H226       -7.0281  -24.2014  -54.3149 H         1 UNK         0.0600 
    227 H227       -8.6401  -26.0637  -54.7665 H         1 UNK         0.0600 
    228 H228       -8.4068  -25.0378  -56.1708 H         1 UNK         0.0600 
    229 H229       -7.6298  -26.6132  -56.1038 H         1 UNK         0.0600 
    230 H230       -4.1497  -24.7709  -54.4529 H         1 UNK         0.3000 
    231 H231       -3.2974  -24.3651  -57.2010 H         1 UNK         0.0600 
    232 H232       -1.8288  -23.9688  -54.5416 H         1 UNK         0.0600 
    233 H233       -1.0832  -23.9021  -56.1347 H         1 UNK         0.0600 
    234 H234       -1.7770  -25.4090  -55.5562 H         1 UNK         0.0600 
    235 H235       -3.8678  -22.3248  -54.3410 H         1 UNK         0.3000 
    236 H236       -4.1077  -20.1305  -53.9887 H         1 UNK         0.0600 
    237 H237       -6.2504  -20.7937  -55.0790 H         1 UNK         0.0600 
    238 H238       -5.8777  -19.1079  -55.3969 H         1 UNK         0.0600 
    239 H239       -5.6123  -20.3152  -56.6511 H         1 UNK         0.0600 
    240 H240       -1.5863  -20.5038  -54.9311 H         1 UNK         0.3000 
    241 H241        0.2338  -19.4485  -55.5603 H         1 UNK         0.0600 
    242 H242       -0.9333  -20.1477  -59.2218 H         1 UNK         0.3800 
    243 H243       -1.8379  -20.5936  -57.7973 H         1 UNK         0.3800 
    244 H244        0.3606  -17.0090  -55.9627 H         1 UNK         0.0800 
    245 H245       -1.3680  -16.8962  -56.0719 H         1 UNK         0.0800 
    246 H246        1.7354  -17.3298  -53.6942 H         1 UNK         0.0800 
    247 H247        1.1972  -15.7038  -54.0550 H         1 UNK         0.0800 
@<TRIPOS>BOND
     1    1    2 1    
     2    1  127 1    
     3    1  128 1    
     4    1  129 1    
     5    2    3 2    
     6    2    4 am   BACKBONE|DICT|INTERRES
     7    4    5 1    
     8    4  130 1    
     9    5    6 1    
    10    5   65 1    
    11    5  131 1    
    12    6    7 1    
    13    6  132 1    
    14    6  133 1    
    15    7    8 1    
    16    8    9 1    
    17    8  134 1    
    18    8  135 1    
    19    9   10 ar   
    20    9   14 ar   
    21   10   11 ar   
    22   10  136 1    
    23   11   12 ar   
    24   11  126 1    
    25   12   13 ar   
    26   12  137 1    
    27   13   14 ar   
    28   13   15 1    
    29   14  138 1    
    30   15   16 1    
    31   15  139 1    
    32   15  140 1    
    33   16   17 1    
    34   17   18 1    
    35   17  141 1    
    36   17  142 1    
    37   18   19 1    
    38   18   67 1    
    39   18  143 1    
    40   19   20 am   BACKBONE|DICT|INTERRES
    41   19  144 1    
    42   20   21 2    
    43   20   22 1    
    44   22   23 1    
    45   22   24 1    
    46   22  145 1    
    47   23  146 1    
    48   23  147 1    
    49   23  148 1    
    50   24   25 am   BACKBONE|DICT|INTERRES
    51   24  149 1    
    52   25   26 2    
    53   25   27 1    
    54   27   28 1    
    55   27   29 1    
    56   27  150 1    
    57   28  151 1    
    58   28  152 1    
    59   28  153 1    
    60   29   30 am   BACKBONE|DICT|INTERRES
    61   29  154 1    
    62   30   31 2    
    63   30   32 1    
    64   32   33 1    
    65   32   34 1    
    66   32  155 1    
    67   33  156 1    
    68   33  157 1    
    69   33  158 1    
    70   34   35 am   BACKBONE|DICT|INTERRES
    71   34  159 1    
    72   35   36 2    
    73   35   37 1    
    74   37   38 1    
    75   37   39 1    
    76   37  160 1    
    77   38  161 1    
    78   38  162 1    
    79   38  163 1    
    80   39   40 am   BACKBONE|DICT|INTERRES
    81   39  164 1    
    82   40   41 2    
    83   40   42 1    
    84   42   43 1    
    85   42   44 1    
    86   42  165 1    
    87   43  166 1    
    88   43  167 1    
    89   43  168 1    
    90   44   45 am   BACKBONE|DICT|INTERRES
    91   44  169 1    
    92   45   46 2    
    93   45   47 1    
    94   47   48 1    
    95   47   49 1    
    96   47  170 1    
    97   48  171 1    
    98   48  172 1    
    99   48  173 1    
   100   49   50 am   BACKBONE|DICT|INTERRES
   101   49  174 1    
   102   50   51 2    
   103   50   52 1    
   104   52   53 1    
   105   52   54 1    
   106   52  175 1    
   107   53  176 1    
   108   53  177 1    
   109   53  178 1    
   110   54   55 am   BACKBONE|DICT|INTERRES
   111   54  179 1    
   112   55   56 2    
   113   55   57 1    
   114   57   58 1    
   115   57   59 1    
   116   57  180 1    
   117   58  181 1    
   118   58  182 1    
   119   58  183 1    
   120   59   60 am   BACKBONE|DICT|INTERRES
   121   59  184 1    
   122   60   61 2    
   123   60   62 1    
   124   62   63 1    
   125   62   64 1    
   126   62  185 1    
   127   63  186 1    
   128   63  187 1    
   129   63  188 1    
   130   64   65 am   BACKBONE|DICT|INTERRES
   131   64  189 1    
   132   65   66 2    
   133   67   68 2    
   134   67   69 am   BACKBONE|DICT|INTERRES
   135   69   70 1    
   136   69  190 1    
   137   70   71 1    
   138   70   72 1    
   139   70  191 1    
   140   71  192 1    
   141   71  193 1    
   142   71  194 1    
   143   72   73 2    
   144   72   74 am   BACKBONE|DICT|INTERRES
   145   74   75 1    
   146   74  195 1    
   147   75   76 1    
   148   75   77 1    
   149   75  196 1    
   150   76  197 1    
   151   76  198 1    
   152   76  199 1    
   153   77   78 2    
   154   77   79 am   BACKBONE|DICT|INTERRES
   155   79   80 1    
   156   79  200 1    
   157   80   81 1    
   158   80   82 1    
   159   80  201 1    
   160   81  202 1    
   161   81  203 1    
   162   81  204 1    
   163   82   83 2    
   164   82   84 am   BACKBONE|DICT|INTERRES
   165   84   85 1    
   166   84  205 1    
   167   85   86 1    
   168   85   87 1    
   169   85  206 1    
   170   86  207 1    
   171   86  208 1    
   172   86  209 1    
   173   87   88 2    
   174   87   89 am   BACKBONE|DICT|INTERRES
   175   89   90 1    
   176   89  210 1    
   177   90   91 1    
   178   90   92 1    
   179   90  211 1    
   180   91  212 1    
   181   91  213 1    
   182   91  214 1    
   183   92   93 2    
   184   92   94 am   BACKBONE|DICT|INTERRES
   185   94   95 1    
   186   94  215 1    
   187   95   96 1    
   188   95   97 1    
   189   95  216 1    
   190   96  217 1    
   191   96  218 1    
   192   96  219 1    
   193   97   98 2    
   194   97   99 am   BACKBONE|DICT|INTERRES
   195   99  100 1    
   196   99  220 1    
   197  100  101 1    
   198  100  102 1    
   199  100  221 1    
   200  101  222 1    
   201  101  223 1    
   202  101  224 1    
   203  102  103 2    
   204  102  104 am   BACKBONE|DICT|INTERRES
   205  104  105 1    
   206  104  225 1    
   207  105  106 1    
   208  105  107 1    
   209  105  226 1    
   210  106  227 1    
   211  106  228 1    
   212  106  229 1    
   213  107  108 2    
   214  107  109 am   BACKBONE|DICT|INTERRES
   215  109  110 1    
   216  109  230 1    
   217  110  111 1    
   218  110  112 1    
   219  110  231 1    
   220  111  232 1    
   221  111  233 1    
   222  111  234 1    
   223  112  113 2    
   224  112  114 am   BACKBONE|DICT|INTERRES
   225  114  115 1    
   226  114  235 1    
   227  115  116 1    
   228  115  117 1    
   229  115  236 1    
   230  116  237 1    
   231  116  238 1    
   232  116  239 1    
   233  117  118 2    
   234  117  119 am   BACKBONE|DICT|INTERRES
   235  119  120 1    
   236  119  240 1    
   237  120  121 1    
   238  120  124 1    
   239  120  241 1    
   240  121  122 am   BACKBONE|DICT|INTERRES
   241  121  123 2    
   242  122  242 1    
   243  122  243 1    
   244  124  125 1    
   245  124  244 1    
   246  124  245 1    
   247  125  126 1    
   248  126  246 1    
   249  126  247 1    
@<TRIPOS>SUBSTRUCTURE
     1 UNK         1 GROUP             0       ****    0 ROOT    
