@<TRIPOS>MOLECULE
3R540
247   249    1
SMALL
USER_CHARGES


@<TRIPOS>ATOM
      1 CA         -1.6494  -13.6493  -45.1459 C.3       0 UNK        -0.1800 
      2 C          -1.0976  -12.6021  -46.1011 C.2       0 UNK         0.5000 
      3 O          -1.6356  -11.4970  -46.1791 O.2       0 UNK        -0.5000 
      4 N          -0.0082  -12.9290  -46.8075 N.am      1 UNK        -0.5000 
      5 CA          0.7281  -12.0332  -47.7101 C.3       1 UNK         0.1400 
      6 C6          1.5060  -12.8155  -48.8012 C.3       23 UNK        -0.0398 
      7 S7          0.4248  -13.8618  -49.8384 S.3       23 UNK        -0.2404 
      8 C8          0.7677  -15.4933  -49.1052 C.3       23 UNK        -0.0205 
      9 C9         -0.0574  -16.6264  -49.7006 C.ar      23 UNK        -0.0193 
     10 C10        -1.4454  -16.5158  -49.8421 C.ar      23 UNK        -0.1150 
     11 C11        -2.2031  -17.5938  -50.3101 C.ar      23 UNK        -0.0193 
     12 C12        -1.5596  -18.7907  -50.6378 C.ar      23 UNK        -0.1150 
     13 C13        -0.1747  -18.9113  -50.5095 C.ar      23 UNK        -0.0193 
     14 C14         0.5706  -17.8270  -50.0426 C.ar      23 UNK        -0.1150 
     15 C15         0.5134  -20.2233  -50.8452 C.3       23 UNK        -0.0205 
     16 S16         0.7877  -21.2245  -49.3523 S.3       23 UNK        -0.2404 
     17 C17        -0.9298  -21.5543  -48.8381 C.3       23 UNK        -0.0398 
     18 CA         -1.0069  -22.6997  -47.8096 C.3       11 UNK         0.1400 
     19 N          -0.4152  -22.3361  -46.5215 N.am      11 UNK        -0.5000 
     20 C          -0.1497  -23.2081  -45.5405 C.2       10 UNK         0.5000 
     21 O          -0.3506  -24.4188  -45.6309 O.2       10 UNK        -0.5000 
     22 CA          0.3652  -22.6188  -44.2176 C.3       10 UNK         0.1400 
     23 CB          1.8660  -22.3011  -44.2976 C.3       10 UNK        -0.1800 
     24 N          -0.3785  -21.4167  -43.8417 N.am      10 UNK        -0.5000 
     25 C          -1.6633  -21.4156  -43.4591 C.2       9 UNK         0.5000 
     26 O          -2.3404  -22.4371  -43.3363 O.2       9 UNK        -0.5000 
     27 CA         -2.3081  -20.0382  -43.2200 C.3       9 UNK         0.1400 
     28 CB         -1.9706  -19.5151  -41.8160 C.3       9 UNK        -0.1800 
     29 N          -1.8978  -19.0510  -44.2202 N.am      9 UNK        -0.5000 
     30 C          -2.2633  -19.0930  -45.5111 C.2       8 UNK         0.5000 
     31 O          -3.0057  -19.9521  -45.9796 O.2       8 UNK        -0.5000 
     32 CA         -1.6727  -18.0261  -46.4514 C.3       8 UNK         0.1400 
     33 CB         -2.5927  -16.7982  -46.4977 C.3       8 UNK        -0.1800 
     34 N          -0.3211  -17.6117  -46.0755 N.am      8 UNK        -0.5000 
     35 C           0.7353  -18.4326  -45.9947 C.2       7 UNK         0.5000 
     36 O           0.6863  -19.6323  -46.2645 O.2       7 UNK        -0.5000 
     37 CA          2.0538  -17.8321  -45.4733 C.3       7 UNK         0.1400 
     38 CB          3.0288  -17.5786  -46.6321 C.3       7 UNK        -0.1800 
     39 N           1.9099  -16.5979  -44.6917 N.am      7 UNK        -0.5000 
     40 C           1.2547  -16.4768  -43.5264 C.2       6 UNK         0.5000 
     41 O           0.5436  -17.3678  -43.0576 O.2       6 UNK        -0.5000 
     42 CA          1.4059  -15.1305  -42.7769 C.3       6 UNK         0.1400 
     43 CB          1.2935  -15.2951  -41.2482 C.3       6 UNK        -0.1800 
     44 N           2.6181  -14.3729  -43.1245 N.am      6 UNK        -0.5000 
     45 C           3.8952  -14.7759  -43.0063 C.2       5 UNK         0.5000 
     46 O           4.2395  -15.8717  -42.5635 O.2       5 UNK        -0.5000 
     47 CA          4.9672  -13.7822  -43.4756 C.3       5 UNK         0.1400 
     48 CB          4.8771  -13.5498  -44.9931 C.3       5 UNK        -0.1800 
     49 N           4.8154  -12.5109  -42.7745 N.am      5 UNK        -0.5000 
     50 C           5.5020  -12.1634  -41.6767 C.2       4 UNK         0.5000 
     51 O           6.3972  -12.8492  -41.1815 O.2       4 UNK        -0.5000 
     52 CA          5.1269  -10.8244  -41.0097 C.3       4 UNK         0.1400 
     53 CB          6.0329   -9.6951  -41.5239 C.3       4 UNK        -0.1800 
     54 N           3.7303  -10.4493  -41.2294 N.am      4 UNK        -0.5000 
     55 C           2.6735  -11.0947  -40.7164 C.2       3 UNK         0.5000 
     56 O           2.7641  -12.0201  -39.9097 O.2       3 UNK        -0.5000 
     57 CA          1.2812  -10.6473  -41.2034 C.3       3 UNK         0.1400 
     58 CB          0.6010   -9.7620  -40.1480 C.3       3 UNK        -0.1800 
     59 N           1.2949   -9.9339  -42.4864 N.am      3 UNK        -0.5000 
     60 C           1.6411  -10.4712  -43.6633 C.2       2 UNK         0.5000 
     61 O           2.0503  -11.6297  -43.7864 O.2       2 UNK        -0.5000 
     62 CA          1.5250   -9.5423  -44.8860 C.3       2 UNK         0.1400 
     63 CB          2.8475   -8.8003  -45.1619 C.3       2 UNK        -0.1800 
     64 N           1.0159  -10.2714  -46.0510 N.am      2 UNK        -0.5000 
     65 C           1.6511  -11.1255  -46.8661 C.2       1 UNK         0.5000 
     66 O           2.8737  -11.2604  -46.9264 O.2       1 UNK        -0.5000 
     67 C          -2.4516  -23.2185  -47.6700 C.2       11 UNK         0.5000 
     68 O          -2.8354  -24.1005  -48.4355 O.2       11 UNK        -0.5000 
     69 N          -3.2276  -22.7009  -46.7085 N.am      12 UNK        -0.5000 
     70 CA         -4.5616  -23.2037  -46.3755 C.3       12 UNK         0.1400 
     71 CB         -5.2874  -22.2157  -45.4512 C.3       12 UNK        -0.1800 
     72 C          -4.5135  -24.6103  -45.7575 C.2       12 UNK         0.5000 
     73 O          -5.3026  -25.4677  -46.1541 O.2       12 UNK        -0.5000 
     74 N          -3.5600  -24.8393  -44.8429 N.am      13 UNK        -0.5000 
     75 CA         -3.3027  -26.1429  -44.2250 C.3       13 UNK         0.1400 
     76 CB         -2.2991  -25.9758  -43.0740 C.3       13 UNK        -0.1800 
     77 C          -2.8129  -27.1989  -45.2365 C.2       13 UNK         0.5000 
     78 O          -3.2267  -28.3560  -45.1581 O.2       13 UNK        -0.5000 
     79 N          -1.9699  -26.7729  -46.1867 N.am      14 UNK        -0.5000 
     80 CA         -1.4593  -27.5919  -47.2890 C.3       14 UNK         0.1400 
     81 CB         -0.1970  -26.9189  -47.8515 C.3       14 UNK        -0.1800 
     82 C          -2.4822  -27.8236  -48.4219 C.2       14 UNK         0.5000 
     83 O          -2.2337  -28.6657  -49.2851 O.2       14 UNK        -0.5000 
     84 N          -3.5821  -27.0547  -48.4230 N.am      15 UNK        -0.5000 
     85 CA         -4.6303  -26.9742  -49.4498 C.3       15 UNK         0.1400 
     86 CB         -5.3553  -28.3232  -49.6303 C.3       15 UNK        -0.1800 
     87 C          -4.1458  -26.3721  -50.7886 C.2       15 UNK         0.5000 
     88 O          -4.8250  -26.5044  -51.8069 O.2       15 UNK        -0.5000 
     89 N          -3.0081  -25.6680  -50.7582 N.am      16 UNK        -0.5000 
     90 CA         -2.4554  -24.9026  -51.8723 C.3       16 UNK         0.1400 
     91 CB         -0.9825  -24.5786  -51.5823 C.3       16 UNK        -0.1800 
     92 C          -3.2590  -23.6168  -52.1295 C.2       16 UNK         0.5000 
     93 O          -3.4263  -23.2252  -53.2836 O.2       16 UNK        -0.5000 
     94 N          -3.7909  -23.0024  -51.0619 N.am      17 UNK        -0.5000 
     95 CA         -4.6749  -21.8369  -51.1582 C.3       17 UNK         0.1400 
     96 CB         -4.8903  -21.2220  -49.7683 C.3       17 UNK        -0.1800 
     97 C          -6.0201  -22.1860  -51.8241 C.2       17 UNK         0.5000 
     98 O          -6.5290  -21.3976  -52.6197 O.2       17 UNK        -0.5000 
     99 N          -6.5325  -23.3942  -51.5445 N.am      18 UNK        -0.5000 
    100 CA        -7.7209  -23.9668  -52.1844 C.3       18 UNK         0.1400 
    101 CB        -8.1746  -25.2062  -51.3979 C.3       18 UNK        -0.1800 
    102 C         -7.4913  -24.3118  -53.6704 C.2       18 UNK         0.5000 
    103 O         -8.4312  -24.2436  -54.4623 O.2       18 UNK        -0.5000 
    104 N         -6.2391  -24.6287  -54.0282 N.am      19 UNK        -0.5000 
    105 CA        -5.7698  -24.8317  -55.4011 C.3       19 UNK         0.1400 
    106 CB        -4.5558  -25.7755  -55.3759 C.3       19 UNK        -0.1800 
    107 C         -5.4341  -23.5100  -56.1301 C.2       19 UNK         0.5000 
    108 O         -4.9972  -23.5573  -57.2808 O.2       19 UNK        -0.5000 
    109 N         -5.6469  -22.3652  -55.4625 N.am      20 UNK        -0.5000 
    110 CA        -5.4495  -20.9947  -55.9393 C.3       20 UNK         0.1400 
    111 CB        -6.3603  -20.6841  -57.1461 C.3       20 UNK        -0.1800 
    112 C         -3.9709  -20.6272  -56.1786 C.2       20 UNK         0.5000 
    113 O         -3.6687  -19.8493  -57.0858 O.2       20 UNK        -0.5000 
    114 N         -3.0703  -21.1402  -55.3262 N.am      21 UNK        -0.5000 
    115 CA        -1.6411  -20.7982  -55.3181 C.3       21 UNK         0.1400 
    116 CB        -0.8776  -21.8364  -54.4817 C.3       21 UNK        -0.1800 
    117 C         -1.3355  -19.3681  -54.8148 C.2       21 UNK         0.5000 
    118 O         -0.1785  -18.9497  -54.8651 O.2       21 UNK        -0.5000 
    119 N         -2.3619  -18.6498  -54.3393 N.am      22 UNK        -0.5000 
    120 CA        -2.3037  -17.2638  -53.8449 C.3       22 UNK         0.1400 
    121 C         -1.8785  -16.1998  -54.9010 C.2       22 UNK         0.5000 
    122 N         -1.9641  -16.4783  -56.1968 N.am      22 UNK        -0.7600 
    123 O         -1.4710  -15.1004  -54.5374 O.2       22 UNK        -0.5000 
    124 C124       -3.6397  -16.8268  -53.1810 C.3       23 UNK        -0.0398 
    125 S125       -4.3577  -18.0511  -52.0301 S.3       23 UNK        -0.2404 
    126 C126       -3.7172  -17.4735  -50.4245 C.3       23 UNK        -0.0205 
    127 H127       -2.6756  -13.8970  -45.4162 H         1 UNK         0.0600 
    128 H128       -1.0573  -14.5635  -45.1605 H         1 UNK         0.0600 
    129 H129       -1.6491  -13.2620  -44.1270 H         1 UNK         0.0600 
    130 H130        0.4092  -13.8356  -46.6754 H         1 UNK         0.3000 
    131 H131        0.0149  -11.3837  -48.2227 H         1 UNK         0.0600 
    132 H132        2.0176  -12.1167  -49.4653 H         1 UNK         0.0800 
    133 H133        2.2897  -13.4307  -48.3554 H         1 UNK         0.0800 
    134 H134        1.8320  -15.6993  -49.2264 H         1 UNK         0.0800 
    135 H135        0.5725  -15.4602  -48.0340 H         1 UNK         0.0800 
    136 H136       -1.9374  -15.5940  -49.5660 H         1 UNK         0.1150 
    137 H137       -2.1397  -19.6317  -50.9898 H         1 UNK         0.1150 
    138 H138        1.6394  -17.9326  -49.9197 H         1 UNK         0.1150 
    139 H139        1.4737  -20.0236  -51.3226 H         1 UNK         0.0800 
    140 H140       -0.0733  -20.7928  -51.5662 H         1 UNK         0.0800 
    141 H141       -1.5039  -21.7959  -49.7339 H         1 UNK         0.0800 
    142 H142       -1.3633  -20.6422  -48.4263 H         1 UNK         0.0800 
    143 H143       -0.4236  -23.5343  -48.2034 H         1 UNK         0.0600 
    144 H144       -0.1617  -21.3596  -46.3941 H         1 UNK         0.3000 
    145 H145        0.2186  -23.3689  -43.4374 H         1 UNK         0.0600 
    146 H146        2.2397  -21.9212  -43.3467 H         1 UNK         0.0600 
    147 H147        2.4393  -23.1975  -44.5373 H         1 UNK         0.0600 
    148 H148        2.0860  -21.5588  -45.0651 H         1 UNK         0.0600 
    149 H149        0.0898  -20.5315  -43.9695 H         1 UNK         0.3000 
    150 H150       -3.3913  -20.1608  -43.2857 H         1 UNK         0.0600 
    151 H151       -0.8984  -19.3598  -41.6896 H         1 UNK         0.0600 
    152 H152       -2.2934  -20.2203  -41.0491 H         1 UNK         0.0600 
    153 H153       -2.4711  -18.5672  -41.6179 H         1 UNK         0.0600 
    154 H154       -1.2459  -18.3377  -43.9151 H         1 UNK         0.3000 
    155 H155       -1.6173  -18.4535  -47.4540 H         1 UNK         0.0600 
    156 H156       -2.7653  -16.3899  -45.5016 H         1 UNK         0.0600 
    157 H157       -3.5655  -17.0610  -46.9153 H         1 UNK         0.0600 
    158 H158       -2.1761  -16.0069  -47.1198 H         1 UNK         0.0600 
    159 H159       -0.1968  -16.6525  -45.7966 H         1 UNK         0.3000 
    160 H160        2.4994  -18.5820  -44.8165 H         1 UNK         0.0600 
    161 H161        2.6838  -16.7738  -47.2794 H         1 UNK         0.0600 
    162 H162        3.1466  -18.4702  -47.2499 H         1 UNK         0.0600 
    163 H163        4.0181  -17.3090  -46.2617 H         1 UNK         0.0600 
    164 H164        2.4699  -15.8144  -44.9911 H         1 UNK         0.3000 
    165 H165        0.5667  -14.5136  -43.0997 H         1 UNK         0.0600 
    166 H166        1.3708  -14.3328  -40.7424 H         1 UNK         0.0600 
    167 H167        2.0750  -15.9448  -40.8534 H         1 UNK         0.0600 
    168 H168        0.3334  -15.7300  -40.9677 H         1 UNK         0.0600 
    169 H169        2.4484  -13.4332  -43.4776 H         1 UNK         0.3000 
    170 H170        5.9472  -14.2161  -43.2656 H         1 UNK         0.0600 
    171 H171        4.9890  -14.4870  -45.5397 H         1 UNK         0.0600 
    172 H172        3.9223  -13.1116  -45.2836 H         1 UNK         0.0600 
    173 H173        5.6654  -12.8786  -45.3341 H         1 UNK         0.0600 
    174 H174        4.0589  -11.9148  -43.0861 H         1 UNK         0.3000 
    175 H175        5.2873  -10.9318  -39.9349 H         1 UNK         0.0600 
    176 H176        5.9022   -9.5295  -42.5942 H         1 UNK         0.0600 
    177 H177        5.8243   -8.7566  -41.0100 H         1 UNK         0.0600 
    178 H178        7.0844   -9.9304  -41.3541 H         1 UNK         0.0600 
    179 H179        3.5590   -9.6873  -41.8681 H         1 UNK         0.3000 
    180 H180        0.6804  -11.5505  -41.3308 H         1 UNK         0.0600 
    181 H181        1.1458   -8.8298  -39.9934 H         1 UNK         0.0600 
    182 H182        0.5450  -10.2729  -39.1857 H         1 UNK         0.0600 
    183 H183       -0.4190   -9.5119  -40.4400 H         1 UNK         0.0600 
    184 H184        0.9816   -8.9739  -42.4617 H         1 UNK         0.3000 
    185 H185        0.7652   -8.7910  -44.6654 H         1 UNK         0.0600 
    186 H186        3.6925   -9.4840  -45.2485 H         1 UNK         0.0600 
    187 H187        2.7901   -8.2153  -46.0798 H         1 UNK         0.0600 
    188 H188        3.0784   -8.1096  -44.3502 H         1 UNK         0.0600 
    189 H189        0.0024  -10.3261  -46.0878 H         1 UNK         0.3000 
    190 H190       -2.9007  -21.8968  -46.1823 H         1 UNK         0.3000 
    191 H191       -5.1377  -23.2803  -47.2985 H         1 UNK         0.0600 
    192 H192       -6.2803  -22.5829  -45.1890 H         1 UNK         0.0600 
    193 H193       -5.4180  -21.2486  -45.9368 H         1 UNK         0.0600 
    194 H194       -4.7413  -22.0532  -44.5223 H         1 UNK         0.0600 
    195 H195       -2.9696  -24.0693  -44.5478 H         1 UNK         0.3000 
    196 H196       -4.2435  -26.5020  -43.8027 H         1 UNK         0.0600 
    197 H197       -1.3362  -25.6061  -43.4265 H         1 UNK         0.0600 
    198 H198       -2.6711  -25.2755  -42.3259 H         1 UNK         0.0600 
    199 H199       -2.1212  -26.9268  -42.5705 H         1 UNK         0.0600 
    200 H200       -1.6099  -25.8248  -46.1214 H         1 UNK         0.3000 
    201 H201       -1.1787  -28.5705  -46.8942 H         1 UNK         0.0600 
    202 H202       -0.4213  -25.9416  -48.2793 H         1 UNK         0.0600 
    203 H203        0.2549  -27.5248  -48.6378 H         1 UNK         0.0600 
    204 H204        0.5563  -26.7802  -47.0758 H         1 UNK         0.0600 
    205 H205       -3.6759  -26.3877  -47.6682 H         1 UNK         0.3000 
    206 H206       -5.3621  -26.2654  -49.0597 H         1 UNK         0.0600 
    207 H207       -5.6867  -28.7235  -48.6722 H         1 UNK         0.0600 
    208 H208       -6.2407  -28.2092  -50.2568 H         1 UNK         0.0600 
    209 H209       -4.7171  -29.0686  -50.1049 H         1 UNK         0.0600 
    210 H210       -2.5840  -25.5162  -49.8507 H         1 UNK         0.3000 
    211 H211       -2.5008  -25.5170  -52.7734 H         1 UNK         0.0600 
    212 H212       -0.5317  -24.0288  -52.4090 H         1 UNK         0.0600 
    213 H213       -0.4006  -25.4901  -51.4446 H         1 UNK         0.0600 
    214 H214       -0.8688  -23.9733  -50.6835 H         1 UNK         0.0600 
    215 H215       -3.6182  -23.3914  -50.1413 H         1 UNK         0.3000 
    216 H216       -4.1794  -21.0918  -51.7841 H         1 UNK         0.0600 
    217 H217       -5.4034  -21.9112  -49.0995 H         1 UNK         0.0600 
    218 H218       -5.5007  -20.3207  -49.8358 H         1 UNK         0.0600 
    219 H219       -3.9460  -20.9365  -49.3054 H         1 UNK         0.0600 
    220 H220       -6.0391  -23.9872  -50.8954 H         1 UNK         0.3000 
    221 H221       -8.5203  -23.2241  -52.1383 H         1 UNK         0.0600 
    222 H222       -8.3840  -24.9594  -50.3569 H         1 UNK         0.0600 
    223 H223       -7.4216  -25.9941  -51.4119 H         1 UNK         0.0600 
    224 H224       -9.0890  -25.6221  -51.8226 H         1 UNK         0.0600 
    225 H225       -5.5339  -24.6892  -53.3068 H         1 UNK         0.3000 
    226 H226       -6.5614  -25.3213  -55.9719 H         1 UNK         0.0600 
    227 H227       -3.6921  -25.3104  -54.9023 H         1 UNK         0.0600 
    228 H228       -4.7800  -26.6958  -54.8362 H         1 UNK         0.0600 
    229 H229       -4.2590  -26.0567  -56.3869 H         1 UNK         0.0600 
    230 H230       -5.9827  -22.4367  -54.5107 H         1 UNK         0.3000 
    231 H231       -5.7780  -20.3522  -55.1212 H         1 UNK         0.0600 
    232 H232       -6.0526  -21.2274  -58.0397 H         1 UNK         0.0600 
    233 H233       -6.3377  -19.6210  -57.3887 H         1 UNK         0.0600 
    234 H234       -7.3975  -20.9443  -56.9345 H         1 UNK         0.0600 
    235 H235       -3.3744  -21.8097  -54.6239 H         1 UNK         0.3000 
    236 H236       -1.2747  -20.8609  -56.3448 H         1 UNK         0.0600 
    237 H237       -1.0664  -22.8494  -54.8378 H         1 UNK         0.0600 
    238 H238        0.1990  -21.6698  -54.5333 H         1 UNK         0.0600 
    239 H239       -1.1653  -21.7876  -53.4320 H         1 UNK         0.0600 
    240 H240       -3.2709  -19.0844  -54.3113 H         1 UNK         0.3000 
    241 H241       -1.5285  -17.2448  -53.0776 H         1 UNK         0.0600 
    242 H242       -1.6866  -15.7850  -56.8737 H         1 UNK         0.3800 
    243 H243       -2.3026  -17.3762  -56.5075 H         1 UNK         0.3800 
    244 H244       -4.3928  -16.6384  -53.9483 H         1 UNK         0.0800 
    245 H245       -3.5078  -15.8799  -52.6544 H         1 UNK         0.0800 
    246 H246       -4.0412  -16.4443  -50.2623 H         1 UNK         0.0800 
    247 H247       -4.1714  -18.0677  -49.6308 H         1 UNK         0.0800 
@<TRIPOS>BOND
     1    1    2 1    
     2    1  127 1    
     3    1  128 1    
     4    1  129 1    
     5    2    3 2    
     6    2    4 am   BACKBONE|DICT|INTERRES
     7    4    5 1    
     8    4  130 1    
     9    5    6 1    
    10    5   65 1    
    11    5  131 1    
    12    6    7 1    
    13    6  132 1    
    14    6  133 1    
    15    7    8 1    
    16    8    9 1    
    17    8  134 1    
    18    8  135 1    
    19    9   10 ar   
    20    9   14 ar   
    21   10   11 ar   
    22   10  136 1    
    23   11   12 ar   
    24   11  126 1    
    25   12   13 ar   
    26   12  137 1    
    27   13   14 ar   
    28   13   15 1    
    29   14  138 1    
    30   15   16 1    
    31   15  139 1    
    32   15  140 1    
    33   16   17 1    
    34   17   18 1    
    35   17  141 1    
    36   17  142 1    
    37   18   19 1    
    38   18   67 1    
    39   18  143 1    
    40   19   20 am   BACKBONE|DICT|INTERRES
    41   19  144 1    
    42   20   21 2    
    43   20   22 1    
    44   22   23 1    
    45   22   24 1    
    46   22  145 1    
    47   23  146 1    
    48   23  147 1    
    49   23  148 1    
    50   24   25 am   BACKBONE|DICT|INTERRES
    51   24  149 1    
    52   25   26 2    
    53   25   27 1    
    54   27   28 1    
    55   27   29 1    
    56   27  150 1    
    57   28  151 1    
    58   28  152 1    
    59   28  153 1    
    60   29   30 am   BACKBONE|DICT|INTERRES
    61   29  154 1    
    62   30   31 2    
    63   30   32 1    
    64   32   33 1    
    65   32   34 1    
    66   32  155 1    
    67   33  156 1    
    68   33  157 1    
    69   33  158 1    
    70   34   35 am   BACKBONE|DICT|INTERRES
    71   34  159 1    
    72   35   36 2    
    73   35   37 1    
    74   37   38 1    
    75   37   39 1    
    76   37  160 1    
    77   38  161 1    
    78   38  162 1    
    79   38  163 1    
    80   39   40 am   BACKBONE|DICT|INTERRES
    81   39  164 1    
    82   40   41 2    
    83   40   42 1    
    84   42   43 1    
    85   42   44 1    
    86   42  165 1    
    87   43  166 1    
    88   43  167 1    
    89   43  168 1    
    90   44   45 am   BACKBONE|DICT|INTERRES
    91   44  169 1    
    92   45   46 2    
    93   45   47 1    
    94   47   48 1    
    95   47   49 1    
    96   47  170 1    
    97   48  171 1    
    98   48  172 1    
    99   48  173 1    
   100   49   50 am   BACKBONE|DICT|INTERRES
   101   49  174 1    
   102   50   51 2    
   103   50   52 1    
   104   52   53 1    
   105   52   54 1    
   106   52  175 1    
   107   53  176 1    
   108   53  177 1    
   109   53  178 1    
   110   54   55 am   BACKBONE|DICT|INTERRES
   111   54  179 1    
   112   55   56 2    
   113   55   57 1    
   114   57   58 1    
   115   57   59 1    
   116   57  180 1    
   117   58  181 1    
   118   58  182 1    
   119   58  183 1    
   120   59   60 am   BACKBONE|DICT|INTERRES
   121   59  184 1    
   122   60   61 2    
   123   60   62 1    
   124   62   63 1    
   125   62   64 1    
   126   62  185 1    
   127   63  186 1    
   128   63  187 1    
   129   63  188 1    
   130   64   65 am   BACKBONE|DICT|INTERRES
   131   64  189 1    
   132   65   66 2    
   133   67   68 2    
   134   67   69 am   BACKBONE|DICT|INTERRES
   135   69   70 1    
   136   69  190 1    
   137   70   71 1    
   138   70   72 1    
   139   70  191 1    
   140   71  192 1    
   141   71  193 1    
   142   71  194 1    
   143   72   73 2    
   144   72   74 am   BACKBONE|DICT|INTERRES
   145   74   75 1    
   146   74  195 1    
   147   75   76 1    
   148   75   77 1    
   149   75  196 1    
   150   76  197 1    
   151   76  198 1    
   152   76  199 1    
   153   77   78 2    
   154   77   79 am   BACKBONE|DICT|INTERRES
   155   79   80 1    
   156   79  200 1    
   157   80   81 1    
   158   80   82 1    
   159   80  201 1    
   160   81  202 1    
   161   81  203 1    
   162   81  204 1    
   163   82   83 2    
   164   82   84 am   BACKBONE|DICT|INTERRES
   165   84   85 1    
   166   84  205 1    
   167   85   86 1    
   168   85   87 1    
   169   85  206 1    
   170   86  207 1    
   171   86  208 1    
   172   86  209 1    
   173   87   88 2    
   174   87   89 am   BACKBONE|DICT|INTERRES
   175   89   90 1    
   176   89  210 1    
   177   90   91 1    
   178   90   92 1    
   179   90  211 1    
   180   91  212 1    
   181   91  213 1    
   182   91  214 1    
   183   92   93 2    
   184   92   94 am   BACKBONE|DICT|INTERRES
   185   94   95 1    
   186   94  215 1    
   187   95   96 1    
   188   95   97 1    
   189   95  216 1    
   190   96  217 1    
   191   96  218 1    
   192   96  219 1    
   193   97   98 2    
   194   97   99 am   BACKBONE|DICT|INTERRES
   195   99  100 1    
   196   99  220 1    
   197  100  101 1    
   198  100  102 1    
   199  100  221 1    
   200  101  222 1    
   201  101  223 1    
   202  101  224 1    
   203  102  103 2    
   204  102  104 am   BACKBONE|DICT|INTERRES
   205  104  105 1    
   206  104  225 1    
   207  105  106 1    
   208  105  107 1    
   209  105  226 1    
   210  106  227 1    
   211  106  228 1    
   212  106  229 1    
   213  107  108 2    
   214  107  109 am   BACKBONE|DICT|INTERRES
   215  109  110 1    
   216  109  230 1    
   217  110  111 1    
   218  110  112 1    
   219  110  231 1    
   220  111  232 1    
   221  111  233 1    
   222  111  234 1    
   223  112  113 2    
   224  112  114 am   BACKBONE|DICT|INTERRES
   225  114  115 1    
   226  114  235 1    
   227  115  116 1    
   228  115  117 1    
   229  115  236 1    
   230  116  237 1    
   231  116  238 1    
   232  116  239 1    
   233  117  118 2    
   234  117  119 am   BACKBONE|DICT|INTERRES
   235  119  120 1    
   236  119  240 1    
   237  120  121 1    
   238  120  124 1    
   239  120  241 1    
   240  121  122 am   BACKBONE|DICT|INTERRES
   241  121  123 2    
   242  122  242 1    
   243  122  243 1    
   244  124  125 1    
   245  124  244 1    
   246  124  245 1    
   247  125  126 1    
   248  126  246 1    
   249  126  247 1    
@<TRIPOS>SUBSTRUCTURE
     1 UNK         1 GROUP             0       ****    0 ROOT    
