@<TRIPOS>MOLECULE
3R540
247   249    1
SMALL
USER_CHARGES


@<TRIPOS>ATOM
      1 CA          2.3108  -13.2149  -51.4350 C.3       0 UNK        -0.1800 
      2 C           1.0282  -13.0240  -50.6375 C.2       0 UNK         0.5000 
      3 O          -0.0241  -12.7730  -51.2228 O.2       0 UNK        -0.5000 
      4 N           1.1190  -13.1419  -49.3103 N.am      1 UNK        -0.5000 
      5 CA          0.0236  -13.0594  -48.3477 C.3       1 UNK         0.1400 
      6 C6         -0.5510  -11.6131  -48.2241 C.3       23 UNK        -0.0398 
      7 S7         -2.0235  -11.4116  -47.1497 S.3       23 UNK        -0.2404 
      8 C8         -3.4185  -11.7588  -48.2749 C.3       23 UNK        -0.0205 
      9 C9         -3.3525  -13.1636  -48.8566 C.ar      23 UNK        -0.0193 
     10 C10        -3.2402  -13.3448  -50.2372 C.ar      23 UNK        -0.1150 
     11 C11        -3.0815  -14.6244  -50.7759 C.ar      23 UNK        -0.0193 
     12 C12        -3.0369  -15.7313  -49.9231 C.ar      23 UNK        -0.1150 
     13 C13        -3.1484  -15.5614  -48.5398 C.ar      23 UNK        -0.0193 
     14 C14        -3.3374  -14.2801  -48.0144 C.ar      23 UNK        -0.1150 
     15 C15        -2.9930  -16.7476  -47.6048 C.3       23 UNK        -0.0205 
     16 S16        -1.2271  -17.0634  -47.2916 S.3       23 UNK        -0.2404 
     17 C17        -1.2925  -18.0929  -45.7919 C.3       23 UNK        -0.0398 
     18 CA         -1.1863  -19.6062  -46.0950 C.3       11 UNK         0.1400 
     19 N          -0.6270  -20.3454  -44.9613 N.am      11 UNK        -0.5000 
     20 C          -0.3258  -21.6517  -44.9601 C.2       10 UNK         0.5000 
     21 O          -0.4191  -22.3808  -45.9464 O.2       10 UNK        -0.5000 
     22 CA          0.0902  -22.2557  -43.6080 C.3       10 UNK         0.1400 
     23 CB          1.5778  -21.9983  -43.3202 C.3       10 UNK        -0.1800 
     24 N          -0.7289  -21.7366  -42.5111 N.am      10 UNK        -0.5000 
     25 C          -2.0334  -22.0063  -42.3515 C.2       9 UNK         0.5000 
     26 O          -2.6694  -22.7629  -43.0842 O.2       9 UNK        -0.5000 
     27 CA         -2.7587  -21.2693  -41.2108 C.3       9 UNK         0.1400 
     28 CB         -2.5450  -21.9959  -39.8747 C.3       9 UNK        -0.1800 
     29 N          -2.3275  -19.8768  -41.0804 N.am      9 UNK        -0.5000 
     30 C          -2.5397  -18.9245  -42.0006 C.2       8 UNK         0.5000 
     31 O          -3.1700  -19.1069  -43.0407 O.2       8 UNK        -0.5000 
     32 CA         -1.8771  -17.5576  -41.7457 C.3       8 UNK         0.1400 
     33 CB         -2.7914  -16.6563  -40.9038 C.3       8 UNK        -0.1800 
     34 N          -0.5698  -17.6805  -41.0939 N.am      8 UNK        -0.5000 
     35 C           0.4906  -18.2702  -41.6590 C.2       7 UNK         0.5000 
     36 O           0.4908  -18.7104  -42.8130 O.2       7 UNK        -0.5000 
     37 CA          1.7220  -18.4731  -40.7677 C.3       7 UNK         0.1400 
     38 CB          1.4909  -19.6497  -39.7980 C.3       7 UNK        -0.1800 
     39 N           2.8600  -18.7461  -41.6346 N.am      7 UNK        -0.5000 
     40 C           4.1508  -18.7654  -41.2864 C.2       6 UNK         0.5000 
     41 O           4.5575  -18.5854  -40.1379 O.2       6 UNK        -0.5000 
     42 CA          5.1639  -19.0151  -42.4227 C.3       6 UNK         0.1400 
     43 CB          5.4789  -20.5148  -42.5375 C.3       6 UNK        -0.1800 
     44 N           4.7115  -18.5208  -43.7279 N.am      6 UNK        -0.5000 
     45 C           4.5102  -17.2289  -44.0211 C.2       5 UNK         0.5000 
     46 O           4.7150  -16.3113  -43.2225 O.2       5 UNK        -0.5000 
     47 CA          3.9536  -16.9366  -45.4302 C.3       5 UNK         0.1400 
     48 CB          2.4805  -17.3713  -45.5197 C.3       5 UNK        -0.1800 
     49 N           4.0435  -15.5202  -45.7844 N.am      5 UNK        -0.5000 
     50 C           5.1790  -14.8394  -45.9937 C.2       4 UNK         0.5000 
     51 O           6.2952  -15.3602  -46.0214 O.2       4 UNK        -0.5000 
     52 CA          5.0474  -13.3197  -46.2025 C.3       4 UNK         0.1400 
     53 CB          4.9218  -12.9893  -47.6987 C.3       4 UNK        -0.1800 
     54 N           3.8898  -12.7758  -45.4890 N.am      4 UNK        -0.5000 
     55 C           3.9190  -12.3041  -44.2343 C.2       3 UNK         0.5000 
     56 O           4.9480  -12.2132  -43.5636 O.2       3 UNK        -0.5000 
     57 CA          2.5804  -11.8411  -43.6215 C.3       3 UNK         0.1400 
     58 CB          2.3982  -10.3279  -43.8157 C.3       3 UNK        -0.1800 
     59 N           1.4183  -12.5316  -44.1821 N.am      3 UNK        -0.5000 
     60 C           1.0826  -13.8010  -43.9146 C.2       2 UNK         0.5000 
     61 O           1.6694  -14.5047  -43.0941 O.2       2 UNK        -0.5000 
     62 CA         -0.0941  -14.3982  -44.7130 C.3       2 UNK         0.1400 
     63 CB         -1.3903  -14.3345  -43.8922 C.3       2 UNK        -0.1800 
     64 N          -0.3360  -13.7835  -46.0217 N.am      2 UNK        -0.5000 
     65 C           0.5405  -13.6700  -47.0264 C.2       1 UNK         0.5000 
     66 O           1.7196  -14.0255  -46.9325 O.2       1 UNK        -0.5000 
     67 C          -2.5442  -20.1866  -46.5405 C.2       11 UNK         0.5000 
     68 O          -2.7350  -20.4456  -47.7281 O.2       11 UNK        -0.5000 
     69 N          -3.4444  -20.4192  -45.5743 N.am      12 UNK        -0.5000 
     70 CA         -4.7543  -21.0324  -45.7883 C.3       12 UNK         0.1400 
     71 CB         -5.5661  -20.9880  -44.4854 C.3       12 UNK        -0.1800 
     72 C          -4.6576  -22.4696  -46.3283 C.2       12 UNK         0.5000 
     73 O          -5.3774  -22.8067  -47.2667 O.2       12 UNK        -0.5000 
     74 N          -3.7476  -23.2748  -45.7608 N.am      13 UNK        -0.5000 
     75 CA         -3.4580  -24.6390  -46.2064 C.3       13 UNK         0.1400 
     76 CB         -2.4957  -25.3153  -45.2188 C.3       13 UNK        -0.1800 
     77 C          -2.8996  -24.6938  -47.6402 C.2       13 UNK         0.5000 
     78 O          -3.3162  -25.5534  -48.4157 O.2       13 UNK        -0.5000 
     79 N          -1.9992  -23.7582  -47.9751 N.am      14 UNK        -0.5000 
     80 CA         -1.4514  -23.5704  -49.3178 C.3       14 UNK         0.1400 
     81 CB         -0.3096  -22.5430  -49.2708 C.3       14 UNK        -0.1800 
     82 C          -2.5328  -23.1568  -50.3317 C.2       14 UNK         0.5000 
     83 O          -2.6403  -23.7743  -51.3940 O.2       14 UNK        -0.5000 
     84 N          -3.3337  -22.1457  -49.9667 N.am      15 UNK        -0.5000 
     85 CA         -4.4366  -21.6125  -50.7667 C.3       15 UNK         0.1400 
     86 CB         -4.9903  -20.3460  -50.0981 C.3       15 UNK        -0.1800 
     87 C          -5.5627  -22.6297  -51.0307 C.2       15 UNK         0.5000 
     88 O          -6.1871  -22.5741  -52.0905 O.2       15 UNK        -0.5000 
     89 N          -5.7786  -23.5691  -50.0997 N.am      16 UNK        -0.5000 
     90 CA         -6.7314  -24.6795  -50.1915 C.3       16 UNK         0.1400 
     91 CB         -7.0073  -25.2200  -48.7769 C.3       16 UNK        -0.1800 
     92 C          -6.2815  -25.7865  -51.1741 C.2       16 UNK         0.5000 
     93 O          -6.2164  -26.9597  -50.8049 O.2       16 UNK        -0.5000 
     94 N          -5.9819  -25.3825  -52.4155 N.am      17 UNK        -0.5000 
     95 CA         -5.6503  -26.1843  -53.5996 C.3       17 UNK         0.1400 
     96 CB         -6.8293  -27.1047  -53.9759 C.3       17 UNK        -0.1800 
     97 C          -4.3187  -26.9642  -53.5460 C.2       17 UNK         0.5000 
     98 O          -3.9779  -27.6099  -54.5383 O.2       17 UNK        -0.5000 
     99 N          -3.5729  -26.8921  -52.4339 N.am      18 UNK        -0.5000 
    100 CA        -2.2667  -27.5390  -52.2795 C.3       18 UNK         0.1400 
    101 CB        -1.8705  -27.5628  -50.7970 C.3       18 UNK        -0.1800 
    102 C         -1.1897  -26.8491  -53.1350 C.2       18 UNK         0.5000 
    103 O         -0.4537  -27.5235  -53.8563 O.2       18 UNK        -0.5000 
    104 N         -1.1613  -25.5138  -53.0668 N.am      19 UNK        -0.5000 
    105 CA        -0.3979  -24.6340  -53.9511 C.3       19 UNK         0.1400 
    106 CB         0.5757  -23.8002  -53.1046 C.3       19 UNK        -0.1800 
    107 C         -1.3329  -23.7049  -54.7481 C.2       19 UNK         0.5000 
    108 O         -0.8948  -23.1232  -55.7399 O.2       19 UNK        -0.5000 
    109 N         -2.5834  -23.5461  -54.2838 N.am      20 UNK        -0.5000 
    110 CA        -3.6730  -22.7032  -54.7960 C.3       20 UNK         0.1400 
    111 CB        -3.9985  -23.0138  -56.2687 C.3       20 UNK        -0.1800 
    112 C         -3.4706  -21.1928  -54.5642 C.2       20 UNK         0.5000 
    113 O         -4.4599  -20.4770  -54.4010 O.2       20 UNK        -0.5000 
    114 N         -2.2106  -20.7396  -54.5068 N.am      21 UNK        -0.5000 
    115 CA        -1.7693  -19.3706  -54.2340 C.3       21 UNK         0.1400 
    116 CB        -2.0184  -19.0222  -52.7465 C.3       21 UNK        -0.1800 
    117 C         -2.3854  -18.3738  -55.2397 C.2       21 UNK         0.5000 
    118 O         -2.1619  -18.5201  -56.4429 O.2       21 UNK        -0.5000 
    119 N         -3.1560  -17.4036  -54.7396 N.am      22 UNK        -0.5000 
    120 CA        -3.9428  -16.4438  -55.5270 C.3       22 UNK         0.1400 
    121 C         -5.3718  -16.9406  -55.9046 C.2       22 UNK         0.5000 
    122 N         -5.7815  -18.1557  -55.5584 N.am      22 UNK        -0.7600 
    123 O         -6.1240  -16.2140  -56.5487 O.2       22 UNK        -0.5000 
    124 C124       -3.9515  -15.0410  -54.8627 C.3       23 UNK        -0.0398 
    125 S125       -4.4965  -15.0342  -53.1163 S.3       23 UNK        -0.2404 
    126 C126       -2.9019  -14.7960  -52.2744 C.3       23 UNK        -0.0205 
    127 H127        2.1996  -14.0473  -52.1299 H         1 UNK         0.0600 
    128 H128        3.1639  -13.4228  -50.7884 H         1 UNK         0.0600 
    129 H129        2.5318  -12.3160  -52.0105 H         1 UNK         0.0600 
    130 H130        1.9962  -13.4041  -48.8771 H         1 UNK         0.3000 
    131 H131       -0.7501  -13.7328  -48.7108 H         1 UNK         0.0600 
    132 H132        0.2251  -10.9408  -47.8554 H         1 UNK         0.0800 
    133 H133       -0.8183  -11.2334  -49.2106 H         1 UNK         0.0800 
    134 H134       -3.4326  -11.0070  -49.0656 H         1 UNK         0.0800 
    135 H135       -4.3540  -11.6466  -47.7255 H         1 UNK         0.0800 
    136 H136       -3.2403  -12.4870  -50.8951 H         1 UNK         0.1150 
    137 H137       -2.8824  -16.7204  -50.3313 H         1 UNK         0.1150 
    138 H138       -3.4100  -14.1440  -46.9446 H         1 UNK         0.1150 
    139 H139       -3.5125  -16.5520  -46.6656 H         1 UNK         0.0800 
    140 H140       -3.4545  -17.6351  -48.0407 H         1 UNK         0.0800 
    141 H141       -2.1765  -17.8516  -45.2002 H         1 UNK         0.0800 
    142 H142       -0.4448  -17.7847  -45.1804 H         1 UNK         0.0800 
    143 H143       -0.4845  -19.7443  -46.9206 H         1 UNK         0.0600 
    144 H144       -0.4605  -19.8146  -44.1122 H         1 UNK         0.3000 
    145 H145       -0.0614  -23.3358  -43.6622 H         1 UNK         0.0600 
    146 H146        1.8787  -22.4364  -42.3685 H         1 UNK         0.0600 
    147 H147        2.2038  -22.4434  -44.0945 H         1 UNK         0.0600 
    148 H148        1.8101  -20.9349  -43.2881 H         1 UNK         0.0600 
    149 H149       -0.2915  -21.0740  -41.8904 H         1 UNK         0.3000 
    150 H150       -3.8272  -21.2743  -41.4364 H         1 UNK         0.0600 
    151 H151       -2.8723  -23.0345  -39.9392 H         1 UNK         0.0600 
    152 H152       -3.1169  -21.5256  -39.0746 H         1 UNK         0.0600 
    153 H153       -1.4949  -22.0002  -39.5795 H         1 UNK         0.0600 
    154 H154       -1.8067  -19.6367  -40.2504 H         1 UNK         0.3000 
    155 H155       -1.7269  -17.0836  -42.7173 H         1 UNK         0.0600 
    156 H156       -2.9713  -17.0758  -39.9132 H         1 UNK         0.0600 
    157 H157       -2.3582  -15.6644  -40.7745 H         1 UNK         0.0600 
    158 H158       -3.7608  -16.5257  -41.3866 H         1 UNK         0.0600 
    159 H159       -0.5016  -17.3413  -40.1450 H         1 UNK         0.3000 
    160 H160        1.9090  -17.5536  -40.2097 H         1 UNK         0.0600 
    161 H161        1.3453  -20.5889  -40.3329 H         1 UNK         0.0600 
    162 H162        0.6111  -19.4843  -39.1753 H         1 UNK         0.0600 
    163 H163        2.3355  -19.7820  -39.1222 H         1 UNK         0.0600 
    164 H164        2.6061  -18.8671  -42.6067 H         1 UNK         0.3000 
    165 H165        6.0858  -18.4898  -42.1641 H         1 UNK         0.0600 
    166 H166        6.2526  -20.7004  -43.2828 H         1 UNK         0.0600 
    167 H167        5.8425  -20.9108  -41.5884 H         1 UNK         0.0600 
    168 H168        4.5965  -21.0920  -42.8167 H         1 UNK         0.0600 
    169 H169        4.5290  -19.2194  -44.4337 H         1 UNK         0.3000 
    170 H170        4.5357  -17.5041  -46.1590 H         1 UNK         0.0600 
    171 H171        2.3795  -18.4536  -45.4309 H         1 UNK         0.0600 
    172 H172        1.8892  -16.9269  -44.7194 H         1 UNK         0.0600 
    173 H173        2.0329  -17.0821  -46.4711 H         1 UNK         0.0600 
    174 H174        3.1706  -15.0099  -45.8279 H         1 UNK         0.3000 
    175 H175        5.9609  -12.8502  -45.8314 H         1 UNK         0.0600 
    176 H176        5.8045  -13.3241  -48.2448 H         1 UNK         0.0600 
    177 H177        4.0568  -13.4742  -48.1506 H         1 UNK         0.0600 
    178 H178        4.8281  -11.9152  -47.8597 H         1 UNK         0.0600 
    179 H179        2.9950  -12.8782  -45.9536 H         1 UNK         0.3000 
    180 H180        2.6197  -12.0449  -42.5492 H         1 UNK         0.0600 
    181 H181        2.3377  -10.0616  -44.8718 H         1 UNK         0.0600 
    182 H182        3.2344   -9.7754  -43.3852 H         1 UNK         0.0600 
    183 H183        1.4904   -9.9737  -43.3268 H         1 UNK         0.0600 
    184 H184        0.8663  -12.0223  -44.8561 H         1 UNK         0.3000 
    185 H185        0.1407  -15.4474  -44.8898 H         1 UNK         0.0600 
    186 H186       -1.2406  -14.7375  -42.8902 H         1 UNK         0.0600 
    187 H187       -1.7438  -13.3087  -43.7804 H         1 UNK         0.0600 
    188 H188       -2.1838  -14.9154  -44.3631 H         1 UNK         0.0600 
    189 H189       -1.2670  -13.4199  -46.1734 H         1 UNK         0.3000 
    190 H190       -3.2311  -20.1313  -44.6228 H         1 UNK         0.3000 
    191 H191       -5.2802  -20.4333  -46.5344 H         1 UNK         0.0600 
    192 H192       -5.0779  -21.5459  -43.6862 H         1 UNK         0.0600 
    193 H193       -6.5580  -21.4184  -44.6287 H         1 UNK         0.0600 
    194 H194       -5.7025  -19.9626  -44.1413 H         1 UNK         0.0600 
    195 H195       -3.2273  -22.9390  -44.9557 H         1 UNK         0.3000 
    196 H196       -4.3975  -25.1954  -46.1974 H         1 UNK         0.0600 
    197 H197       -2.2821  -26.3410  -45.5220 H         1 UNK         0.0600 
    198 H198       -2.9231  -25.3545  -44.2168 H         1 UNK         0.0600 
    199 H199       -1.5447  -24.7861  -45.1562 H         1 UNK         0.0600 
    200 H200       -1.6677  -23.1200  -47.2574 H         1 UNK         0.3000 
    201 H201       -1.0285  -24.5204  -49.6460 H         1 UNK         0.0600 
    202 H202        0.4943  -22.8814  -48.6169 H         1 UNK         0.0600 
    203 H203       -0.6478  -21.5741  -48.9043 H         1 UNK         0.0600 
    204 H204        0.1225  -22.3836  -50.2578 H         1 UNK         0.0600 
    205 H205       -3.1545  -21.6763  -49.0815 H         1 UNK         0.3000 
    206 H206       -4.0237  -21.3265  -51.7339 H         1 UNK         0.0600 
    207 H207       -5.7957  -19.9108  -50.6910 H         1 UNK         0.0600 
    208 H208       -5.3874  -20.5586  -49.1051 H         1 UNK         0.0600 
    209 H209       -4.2164  -19.5850  -49.9941 H         1 UNK         0.0600 
    210 H210       -5.2527  -23.5081  -49.2348 H         1 UNK         0.3000 
    211 H211       -7.6734  -24.2849  -50.5773 H         1 UNK         0.0600 
    212 H212       -6.1007  -25.6089  -48.3122 H         1 UNK         0.0600 
    213 H213       -7.7406  -26.0270  -48.7984 H         1 UNK         0.0600 
    214 H214       -7.4077  -24.4403  -48.1290 H         1 UNK         0.0600 
    215 H215       -6.0522  -24.3805  -52.5762 H         1 UNK         0.3000 
    216 H216       -5.5315  -25.4642  -54.4103 H         1 UNK         0.0600 
    217 H217       -6.6553  -27.5946  -54.9346 H         1 UNK         0.0600 
    218 H218       -7.7572  -26.5402  -54.0671 H         1 UNK         0.0600 
    219 H219       -6.9842  -27.8889  -53.2344 H         1 UNK         0.0600 
    220 H220       -3.9233  -26.3624  -51.6482 H         1 UNK         0.3000 
    221 H221       -2.3538  -28.5734  -52.6192 H         1 UNK         0.0600 
    222 H222       -1.7794  -26.5574  -50.3903 H         1 UNK         0.0600 
    223 H223       -2.6096  -28.0969  -50.1995 H         1 UNK         0.0600 
    224 H224       -0.9118  -28.0634  -50.6560 H         1 UNK         0.0600 
    225 H225       -1.7792  -25.0496  -52.4066 H         1 UNK         0.3000 
    226 H226        0.1774  -25.2167  -54.6732 H         1 UNK         0.0600 
    227 H227        1.2232  -24.4371  -52.5018 H         1 UNK         0.0600 
    228 H228        1.2181  -23.1878  -53.7385 H         1 UNK         0.0600 
    229 H229        0.0423  -23.1281  -52.4333 H         1 UNK         0.0600 
    230 H230       -2.7808  -23.9625  -53.3819 H         1 UNK         0.3000 
    231 H231       -4.5486  -22.9830  -54.2096 H         1 UNK         0.0600 
    232 H232       -4.9013  -22.4886  -56.5827 H         1 UNK         0.0600 
    233 H233       -4.1729  -24.0793  -56.4185 H         1 UNK         0.0600 
    234 H234       -3.1967  -22.7050  -56.9396 H         1 UNK         0.0600 
    235 H235       -1.4818  -21.3992  -54.7516 H         1 UNK         0.3000 
    236 H236       -0.6919  -19.3516  -54.4033 H         1 UNK         0.0600 
    237 H237       -1.5420  -19.7527  -52.0920 H         1 UNK         0.0600 
    238 H238       -1.5977  -18.0486  -52.4936 H         1 UNK         0.0600 
    239 H239       -3.0795  -19.0054  -52.4951 H         1 UNK         0.0600 
    240 H240       -3.3231  -17.3814  -53.7446 H         1 UNK         0.3000 
    241 H241       -3.4439  -16.3150  -56.4893 H         1 UNK         0.0600 
    242 H242       -6.7079  -18.4507  -55.8216 H         1 UNK         0.3800 
    243 H243       -5.1793  -18.8070  -55.0629 H         1 UNK         0.3800 
    244 H244       -2.9493  -14.6154  -54.9246 H         1 UNK         0.0800 
    245 H245       -4.5839  -14.3501  -55.4226 H         1 UNK         0.0800 
    246 H246       -2.2460  -15.6427  -52.4787 H         1 UNK         0.0800 
    247 H247       -2.4001  -13.9171  -52.6833 H         1 UNK         0.0800 
@<TRIPOS>BOND
     1    1    2 1    
     2    1  127 1    
     3    1  128 1    
     4    1  129 1    
     5    2    3 2    
     6    2    4 am   BACKBONE|DICT|INTERRES
     7    4    5 1    
     8    4  130 1    
     9    5    6 1    
    10    5   65 1    
    11    5  131 1    
    12    6    7 1    
    13    6  132 1    
    14    6  133 1    
    15    7    8 1    
    16    8    9 1    
    17    8  134 1    
    18    8  135 1    
    19    9   10 ar   
    20    9   14 ar   
    21   10   11 ar   
    22   10  136 1    
    23   11   12 ar   
    24   11  126 1    
    25   12   13 ar   
    26   12  137 1    
    27   13   14 ar   
    28   13   15 1    
    29   14  138 1    
    30   15   16 1    
    31   15  139 1    
    32   15  140 1    
    33   16   17 1    
    34   17   18 1    
    35   17  141 1    
    36   17  142 1    
    37   18   19 1    
    38   18   67 1    
    39   18  143 1    
    40   19   20 am   BACKBONE|DICT|INTERRES
    41   19  144 1    
    42   20   21 2    
    43   20   22 1    
    44   22   23 1    
    45   22   24 1    
    46   22  145 1    
    47   23  146 1    
    48   23  147 1    
    49   23  148 1    
    50   24   25 am   BACKBONE|DICT|INTERRES
    51   24  149 1    
    52   25   26 2    
    53   25   27 1    
    54   27   28 1    
    55   27   29 1    
    56   27  150 1    
    57   28  151 1    
    58   28  152 1    
    59   28  153 1    
    60   29   30 am   BACKBONE|DICT|INTERRES
    61   29  154 1    
    62   30   31 2    
    63   30   32 1    
    64   32   33 1    
    65   32   34 1    
    66   32  155 1    
    67   33  156 1    
    68   33  157 1    
    69   33  158 1    
    70   34   35 am   BACKBONE|DICT|INTERRES
    71   34  159 1    
    72   35   36 2    
    73   35   37 1    
    74   37   38 1    
    75   37   39 1    
    76   37  160 1    
    77   38  161 1    
    78   38  162 1    
    79   38  163 1    
    80   39   40 am   BACKBONE|DICT|INTERRES
    81   39  164 1    
    82   40   41 2    
    83   40   42 1    
    84   42   43 1    
    85   42   44 1    
    86   42  165 1    
    87   43  166 1    
    88   43  167 1    
    89   43  168 1    
    90   44   45 am   BACKBONE|DICT|INTERRES
    91   44  169 1    
    92   45   46 2    
    93   45   47 1    
    94   47   48 1    
    95   47   49 1    
    96   47  170 1    
    97   48  171 1    
    98   48  172 1    
    99   48  173 1    
   100   49   50 am   BACKBONE|DICT|INTERRES
   101   49  174 1    
   102   50   51 2    
   103   50   52 1    
   104   52   53 1    
   105   52   54 1    
   106   52  175 1    
   107   53  176 1    
   108   53  177 1    
   109   53  178 1    
   110   54   55 am   BACKBONE|DICT|INTERRES
   111   54  179 1    
   112   55   56 2    
   113   55   57 1    
   114   57   58 1    
   115   57   59 1    
   116   57  180 1    
   117   58  181 1    
   118   58  182 1    
   119   58  183 1    
   120   59   60 am   BACKBONE|DICT|INTERRES
   121   59  184 1    
   122   60   61 2    
   123   60   62 1    
   124   62   63 1    
   125   62   64 1    
   126   62  185 1    
   127   63  186 1    
   128   63  187 1    
   129   63  188 1    
   130   64   65 am   BACKBONE|DICT|INTERRES
   131   64  189 1    
   132   65   66 2    
   133   67   68 2    
   134   67   69 am   BACKBONE|DICT|INTERRES
   135   69   70 1    
   136   69  190 1    
   137   70   71 1    
   138   70   72 1    
   139   70  191 1    
   140   71  192 1    
   141   71  193 1    
   142   71  194 1    
   143   72   73 2    
   144   72   74 am   BACKBONE|DICT|INTERRES
   145   74   75 1    
   146   74  195 1    
   147   75   76 1    
   148   75   77 1    
   149   75  196 1    
   150   76  197 1    
   151   76  198 1    
   152   76  199 1    
   153   77   78 2    
   154   77   79 am   BACKBONE|DICT|INTERRES
   155   79   80 1    
   156   79  200 1    
   157   80   81 1    
   158   80   82 1    
   159   80  201 1    
   160   81  202 1    
   161   81  203 1    
   162   81  204 1    
   163   82   83 2    
   164   82   84 am   BACKBONE|DICT|INTERRES
   165   84   85 1    
   166   84  205 1    
   167   85   86 1    
   168   85   87 1    
   169   85  206 1    
   170   86  207 1    
   171   86  208 1    
   172   86  209 1    
   173   87   88 2    
   174   87   89 am   BACKBONE|DICT|INTERRES
   175   89   90 1    
   176   89  210 1    
   177   90   91 1    
   178   90   92 1    
   179   90  211 1    
   180   91  212 1    
   181   91  213 1    
   182   91  214 1    
   183   92   93 2    
   184   92   94 am   BACKBONE|DICT|INTERRES
   185   94   95 1    
   186   94  215 1    
   187   95   96 1    
   188   95   97 1    
   189   95  216 1    
   190   96  217 1    
   191   96  218 1    
   192   96  219 1    
   193   97   98 2    
   194   97   99 am   BACKBONE|DICT|INTERRES
   195   99  100 1    
   196   99  220 1    
   197  100  101 1    
   198  100  102 1    
   199  100  221 1    
   200  101  222 1    
   201  101  223 1    
   202  101  224 1    
   203  102  103 2    
   204  102  104 am   BACKBONE|DICT|INTERRES
   205  104  105 1    
   206  104  225 1    
   207  105  106 1    
   208  105  107 1    
   209  105  226 1    
   210  106  227 1    
   211  106  228 1    
   212  106  229 1    
   213  107  108 2    
   214  107  109 am   BACKBONE|DICT|INTERRES
   215  109  110 1    
   216  109  230 1    
   217  110  111 1    
   218  110  112 1    
   219  110  231 1    
   220  111  232 1    
   221  111  233 1    
   222  111  234 1    
   223  112  113 2    
   224  112  114 am   BACKBONE|DICT|INTERRES
   225  114  115 1    
   226  114  235 1    
   227  115  116 1    
   228  115  117 1    
   229  115  236 1    
   230  116  237 1    
   231  116  238 1    
   232  116  239 1    
   233  117  118 2    
   234  117  119 am   BACKBONE|DICT|INTERRES
   235  119  120 1    
   236  119  240 1    
   237  120  121 1    
   238  120  124 1    
   239  120  241 1    
   240  121  122 am   BACKBONE|DICT|INTERRES
   241  121  123 2    
   242  122  242 1    
   243  122  243 1    
   244  124  125 1    
   245  124  244 1    
   246  124  245 1    
   247  125  126 1    
   248  126  246 1    
   249  126  247 1    
@<TRIPOS>SUBSTRUCTURE
     1 UNK         1 GROUP             0       ****    0 ROOT    
