@<TRIPOS>MOLECULE
3R540
247   249    1
SMALL
USER_CHARGES


@<TRIPOS>ATOM
      1 CA         -2.8892  -13.0751  -46.4140 C.3       0 UNK        -0.1800 
      2 C          -1.9278  -12.5010  -47.4419 C.2       0 UNK         0.5000 
      3 O          -2.2416  -11.4941  -48.0766 O.2       0 UNK        -0.5000 
      4 N          -0.7622  -13.1381  -47.6016 N.am      1 UNK        -0.5000 
      5 CA          0.3043  -12.7931  -48.5485 C.3       1 UNK         0.1400 
      6 C6          1.3966  -13.8883  -48.5741 C.3       23 UNK        -0.0398 
      7 S7          0.7588  -15.5032  -49.1288 S.3       23 UNK        -0.2404 
      8 C8          2.0991  -16.0014  -50.2498 C.3       23 UNK        -0.0205 
      9 C9          1.8856  -17.4031  -50.7932 C.ar      23 UNK        -0.0193 
     10 C10         1.5185  -17.5993  -52.1283 C.ar      23 UNK        -0.1150 
     11 C11         1.3565  -18.8926  -52.6355 C.ar      23 UNK        -0.0193 
     12 C12         1.5633  -19.9907  -51.7968 C.ar      23 UNK        -0.1150 
     13 C13         1.9149  -19.8033  -50.4574 C.ar      23 UNK        -0.0193 
     14 C14         2.0794  -18.5088  -49.9610 C.ar      23 UNK        -0.1150 
     15 C15         2.1304  -21.0044  -49.5573 C.3       23 UNK        -0.0205 
     16 S16         0.5519  -21.6698  -48.9490 S.3       23 UNK        -0.2404 
     17 C17         1.0924  -23.3587  -48.5276 C.3       23 UNK        -0.0398 
     18 CA          0.4225  -23.9728  -47.2805 C.3       11 UNK         0.1400 
     19 N           0.5766  -23.1643  -46.0689 N.am      11 UNK        -0.5000 
     20 C           0.4988  -23.6795  -44.8347 C.2       10 UNK         0.5000 
     21 O           0.2591  -24.8667  -44.6077 O.2       10 UNK        -0.5000 
     22 CA          0.6777  -22.7020  -43.6602 C.3       10 UNK         0.1400 
     23 CB          2.1123  -22.1531  -43.6114 C.3       10 UNK        -0.1800 
     24 N          -0.2735  -21.5921  -43.6967 N.am      10 UNK        -0.5000 
     25 C          -1.6075  -21.7279  -43.6852 C.2       9 UNK         0.5000 
     26 O          -2.1867  -22.8107  -43.6211 O.2       9 UNK        -0.5000 
     27 CA         -2.4457  -20.4432  -43.7828 C.3       9 UNK         0.1400 
     28 CB         -2.7162  -19.8759  -42.3820 C.3       9 UNK        -0.1800 
     29 N          -1.8502  -19.4084  -44.6292 N.am      9 UNK        -0.5000 
     30 C          -1.5783  -19.5442  -45.9353 C.2       8 UNK         0.5000 
     31 O          -1.7498  -20.5883  -46.5642 O.2       8 UNK        -0.5000 
     32 CA         -1.0068  -18.3064  -46.6492 C.3       8 UNK         0.1400 
     33 CB         -2.0961  -17.2441  -46.8711 C.3       8 UNK        -0.1800 
     34 N           0.0935  -17.7108  -45.8985 N.am      8 UNK        -0.5000 
     35 C           1.3072  -18.2617  -45.7683 C.2       7 UNK         0.5000 
     36 O           1.6589  -19.3052  -46.3179 O.2       7 UNK        -0.5000 
     37 CA          2.2789  -17.5349  -44.8238 C.3       7 UNK         0.1400 
     38 CB          2.9608  -16.3610  -45.5430 C.3       7 UNK        -0.1800 
     39 N           1.6152  -17.0476  -43.6129 N.am      7 UNK        -0.5000 
     40 C           1.0958  -17.8399  -42.6633 C.2       6 UNK         0.5000 
     41 O           1.1258  -19.0697  -42.7037 O.2       6 UNK        -0.5000 
     42 CA          0.3972  -17.1409  -41.4824 C.3       6 UNK         0.1400 
     43 CB          1.4174  -16.7740  -40.3945 C.3       6 UNK        -0.1800 
     44 N          -0.3464  -15.9408  -41.8702 N.am      6 UNK        -0.5000 
     45 C          -1.3940  -15.9247  -42.7064 C.2       5 UNK         0.5000 
     46 O          -1.8362  -16.9228  -43.2712 O.2       5 UNK        -0.5000 
     47 CA         -2.0283  -14.5545  -42.9954 C.3       5 UNK         0.1400 
     48 CB         -3.0865  -14.2117  -41.9374 C.3       5 UNK        -0.1800 
     49 N          -1.0498  -13.4684  -43.0740 N.am      5 UNK        -0.5000 
     50 C          -0.0553  -13.3937  -43.9668 C.2       4 UNK         0.5000 
     51 O           0.1341  -14.2337  -44.8507 O.2       4 UNK        -0.5000 
     52 CA          0.8393  -12.1453  -43.8705 C.3       4 UNK         0.1400 
     53 CB          2.2743  -12.4262  -44.3484 C.3       4 UNK        -0.1800 
     54 N           0.2445  -11.0530  -44.6450 N.am      4 UNK        -0.5000 
     55 C          -0.7676  -10.2886  -44.2022 C.2       3 UNK         0.5000 
     56 O          -1.2090  -10.3738  -43.0548 O.2       3 UNK        -0.5000 
     57 CA         -1.4542   -9.3114  -45.1819 C.3       3 UNK         0.1400 
     58 CB         -1.6324   -7.9016  -44.5805 C.3       3 UNK        -0.1800 
     59 N          -0.8680   -9.2705  -46.5253 N.am      3 UNK        -0.5000 
     60 C           0.2667   -8.6807  -46.9316 C.2       2 UNK         0.5000 
     61 O           0.9998   -8.0085  -46.2053 O.2       2 UNK        -0.5000 
     62 CA          0.6503   -8.9468  -48.4069 C.3       2 UNK         0.1400 
     63 CB          2.0967   -8.5296  -48.7469 C.3       2 UNK        -0.1800 
     64 N           0.4000  -10.3447  -48.7892 N.am      2 UNK        -0.5000 
     65 C           0.9153  -11.4257  -48.1855 C.2       1 UNK         0.5000 
     66 O           1.7768  -11.3643  -47.3098 O.2       1 UNK        -0.5000 
     67 C          -1.0363  -24.3963  -47.5341 C.2       11 UNK         0.5000 
     68 O          -1.2474  -25.4935  -48.0468 O.2       11 UNK        -0.5000 
     69 N          -2.0095  -23.5677  -47.1271 N.am      12 UNK        -0.5000 
     70 CA         -3.4384  -23.8881  -47.1961 C.3       12 UNK         0.1400 
     71 CB         -4.2546  -22.6190  -46.9179 C.3       12 UNK        -0.1800 
     72 C          -3.8625  -25.0225  -46.2396 C.2       12 UNK         0.5000 
     73 O          -4.8664  -25.6864  -46.4990 O.2       12 UNK        -0.5000 
     74 N          -3.1082  -25.2236  -45.1505 N.am      13 UNK        -0.5000 
     75 CA         -3.2696  -26.3512  -44.2363 C.3       13 UNK         0.1400 
     76 CB         -2.7841  -25.9519  -42.8343 C.3       13 UNK        -0.1800 
     77 C          -2.5144  -27.5936  -44.7385 C.2       13 UNK         0.5000 
     78 O          -3.0532  -28.6988  -44.6653 O.2       13 UNK        -0.5000 
     79 N          -1.2779  -27.3980  -45.2197 N.am      14 UNK        -0.5000 
     80 CA         -0.3813  -28.4716  -45.6534 C.3       14 UNK         0.1400 
     81 CB          1.0475  -27.9208  -45.7726 C.3       14 UNK        -0.1800 
     82 C          -0.7994  -29.1555  -46.9690 C.2       14 UNK         0.5000 
     83 O          -0.5390  -30.3491  -47.1302 O.2       14 UNK        -0.5000 
     84 N          -1.4163  -28.4026  -47.8856 N.am      15 UNK        -0.5000 
     85 CA         -1.8393  -28.8597  -49.2063 C.3       15 UNK         0.1400 
     86 CB         -0.7795  -28.4341  -50.2380 C.3       15 UNK        -0.1800 
     87 C          -3.2148  -28.2733  -49.5570 C.2       15 UNK         0.5000 
     88 O          -3.6821  -27.3433  -48.8985 O.2       15 UNK        -0.5000 
     89 N          -3.8421  -28.8273  -50.6014 N.am      16 UNK        -0.5000 
     90 CA         -5.0889  -28.3194  -51.1738 C.3       16 UNK         0.1400 
     91 CB         -5.6761  -29.3845  -52.1132 C.3       16 UNK        -0.1800 
     92 C          -4.8613  -26.9969  -51.9312 C.2       16 UNK         0.5000 
     93 O          -3.7947  -26.8090  -52.5227 O.2       16 UNK        -0.5000 
     94 N          -5.8846  -26.1309  -51.9248 N.am      17 UNK        -0.5000 
     95 CA         -5.9056  -24.7914  -52.5219 C.3       17 UNK         0.1400 
     96 CB         -5.8681  -24.8770  -54.0657 C.3       17 UNK        -0.1800 
     97 C          -4.8263  -23.8783  -51.8991 C.2       17 UNK         0.5000 
     98 O          -4.8475  -23.6880  -50.6819 O.2       17 UNK        -0.5000 
     99 N          -3.9223  -23.3370  -52.7293 N.am      18 UNK        -0.5000 
    100 CA        -2.8285  -22.4279  -52.3761 C.3       18 UNK         0.1400 
    101 CB        -1.7598  -23.1634  -51.5347 C.3       18 UNK        -0.1800 
    102 C         -3.3601  -21.1218  -51.7473 C.2       18 UNK         0.5000 
    103 O         -4.1463  -20.4288  -52.3978 O.2       18 UNK        -0.5000 
    104 N         -2.9339  -20.8153  -50.5140 N.am      19 UNK        -0.5000 
    105 CA        -3.2423  -19.6038  -49.7517 C.3       19 UNK         0.1400 
    106 CB        -4.7546  -19.5132  -49.4392 C.3       19 UNK        -0.1800 
    107 C         -2.6724  -18.3375  -50.4255 C.2       19 UNK         0.5000 
    108 O         -1.6663  -18.4185  -51.1260 O.2       19 UNK        -0.5000 
    109 N         -3.3074  -17.1816  -50.1966 N.am      20 UNK        -0.5000 
    110 CA        -2.9063  -15.9033  -50.7883 C.3       20 UNK         0.1400 
    111 CB        -3.4628  -14.7658  -49.9194 C.3       20 UNK        -0.1800 
    112 C         -3.3687  -15.7438  -52.2512 C.2       20 UNK         0.5000 
    113 O         -2.8575  -14.8692  -52.9514 O.2       20 UNK        -0.5000 
    114 N         -4.3293  -16.5736  -52.6873 N.am      21 UNK        -0.5000 
    115 CA        -4.9912  -16.5121  -53.9946 C.3       21 UNK         0.1400 
    116 CB        -6.1087  -17.5654  -54.0368 C.3       21 UNK        -0.1800 
    117 C         -4.0456  -16.6802  -55.1995 C.2       21 UNK         0.5000 
    118 O         -4.2932  -16.0869  -56.2502 O.2       21 UNK        -0.5000 
    119 N         -2.9766  -17.4629  -55.0201 N.am      22 UNK        -0.5000 
    120 CA        -1.8780  -17.6300  -55.9843 C.3       22 UNK         0.1400 
    121 C         -0.8190  -16.4858  -55.9639 C.2       22 UNK         0.5000 
    122 N         -0.9119  -15.4874  -55.0928 N.am      22 UNK        -0.7600 
    123 O          0.1044  -16.4936  -56.7734 O.2       22 UNK        -0.5000 
    124 C124       -1.2339  -19.0412  -55.8894 C.3       23 UNK        -0.0398 
    125 S125       -0.8125  -19.5528  -54.1894 S.3       23 UNK        -0.2404 
    126 C126        0.9461  -19.1055  -54.0833 C.3       23 UNK        -0.0205 
    127 H127       -2.6660  -14.1223  -46.2116 H         1 UNK         0.0600 
    128 H128       -3.9139  -13.0166  -46.7810 H         1 UNK         0.0600 
    129 H129       -2.8252  -12.5157  -45.4810 H         1 UNK         0.0600 
    130 H130       -0.5431  -13.9111  -46.9852 H         1 UNK         0.3000 
    131 H131       -0.1339  -12.7217  -49.5462 H         1 UNK         0.0600 
    132 H132        2.2149  -13.5821  -49.2284 H         1 UNK         0.0800 
    133 H133        1.8352  -14.0217  -47.5841 H         1 UNK         0.0800 
    134 H134        2.1732  -15.2813  -51.0662 H         1 UNK         0.0800 
    135 H135        3.0499  -15.9666  -49.7155 H         1 UNK         0.0800 
    136 H136        1.3546  -16.7468  -52.7724 H         1 UNK         0.1150 
    137 H137        1.4298  -20.9917  -52.1822 H         1 UNK         0.1150 
    138 H138        2.3530  -18.3600  -48.9256 H         1 UNK         0.1150 
    139 H139        2.6673  -21.7716  -50.1173 H         1 UNK         0.0800 
    140 H140        2.7602  -20.7419  -48.7055 H         1 UNK         0.0800 
    141 H141        0.9386  -23.9971  -49.3998 H         1 UNK         0.0800 
    142 H142        2.1705  -23.3499  -48.3614 H         1 UNK         0.0800 
    143 H143        0.9633  -24.9039  -47.1007 H         1 UNK         0.0600 
    144 H144        0.7206  -22.1712  -46.1958 H         1 UNK         0.3000 
    145 H145        0.4979  -23.2602  -42.7392 H         1 UNK         0.0600 
    146 H146        2.2826  -21.5832  -42.6981 H         1 UNK         0.0600 
    147 H147        2.8435  -22.9624  -43.6286 H         1 UNK         0.0600 
    148 H148        2.3244  -21.4973  -44.4569 H         1 UNK         0.0600 
    149 H149        0.1191  -20.6574  -43.7000 H         1 UNK         0.3000 
    150 H150       -3.4059  -20.7114  -44.2262 H         1 UNK         0.0600 
    151 H151       -3.1779  -20.6257  -41.7381 H         1 UNK         0.0600 
    152 H152       -3.3950  -19.0241  -42.4247 H         1 UNK         0.0600 
    153 H153       -1.7954  -19.5496  -41.8987 H         1 UNK         0.0600 
    154 H154       -1.7071  -18.5017  -44.1893 H         1 UNK         0.3000 
    155 H155       -0.6312  -18.6234  -47.6252 H         1 UNK         0.0600 
    156 H156       -2.4255  -16.7974  -45.9328 H         1 UNK         0.0600 
    157 H157       -2.9758  -17.6738  -47.3488 H         1 UNK         0.0600 
    158 H158       -1.7336  -16.4415  -47.5132 H         1 UNK         0.0600 
    159 H159       -0.1045  -16.8595  -45.3917 H         1 UNK         0.3000 
    160 H160        3.0501  -18.2482  -44.5250 H         1 UNK         0.0600 
    161 H161        2.2399  -15.5999  -45.8405 H         1 UNK         0.0600 
    162 H162        3.4705  -16.6989  -46.4463 H         1 UNK         0.0600 
    163 H163        3.7063  -15.8853  -44.9057 H         1 UNK         0.0600 
    164 H164        1.5034  -16.0480  -43.5262 H         1 UNK         0.3000 
    165 H165       -0.3148  -17.8485  -41.0539 H         1 UNK         0.0600 
    166 H166        0.9244  -16.3609  -39.5143 H         1 UNK         0.0600 
    167 H167        1.9748  -17.6537  -40.0699 H         1 UNK         0.0600 
    168 H168        2.1410  -16.0398  -40.7508 H         1 UNK         0.0600 
    169 H169       -0.0486  -15.0681  -41.4599 H         1 UNK         0.3000 
    170 H170       -2.5294  -14.6290  -43.9606 H         1 UNK         0.0600 
    171 H171       -3.8402  -14.9975  -41.8700 H         1 UNK         0.0600 
    172 H172       -2.6444  -14.0941  -40.9474 H         1 UNK         0.0600 
    173 H173       -3.6056  -13.2857  -42.1858 H         1 UNK         0.0600 
    174 H174       -1.1740  -12.6984  -42.4298 H         1 UNK         0.3000 
    175 H175        0.9060  -11.8452  -42.8225 H         1 UNK         0.0600 
    176 H176        2.3019  -12.8648  -45.3450 H         1 UNK         0.0600 
    177 H177        2.8722  -11.5150  -44.3660 H         1 UNK         0.0600 
    178 H178        2.7705  -13.1295  -43.6789 H         1 UNK         0.0600 
    179 H179        0.5792  -10.9458  -45.5952 H         1 UNK         0.3000 
    180 H180       -2.4559   -9.7174  -45.3301 H         1 UNK         0.0600 
    181 H181       -0.6801   -7.4571  -44.2913 H         1 UNK         0.0600 
    182 H182       -2.2544   -7.9367  -43.6854 H         1 UNK         0.0600 
    183 H183       -2.1200   -7.2284  -45.2856 H         1 UNK         0.0600 
    184 H184       -1.3630   -9.8313  -47.2123 H         1 UNK         0.3000 
    185 H185       -0.0200   -8.3346  -49.0118 H         1 UNK         0.0600 
    186 H186        2.2427   -7.4617  -48.5814 H         1 UNK         0.0600 
    187 H187        2.8287   -9.0567  -48.1344 H         1 UNK         0.0600 
    188 H188        2.3286   -8.7298  -49.7929 H         1 UNK         0.0600 
    189 H189       -0.3500  -10.4862  -49.4529 H         1 UNK         0.3000 
    190 H190       -1.7631  -22.6576  -46.7508 H         1 UNK         0.3000 
    191 H191       -3.6577  -24.2187  -48.2138 H         1 UNK         0.0600 
    192 H192       -4.1028  -22.2613  -45.8999 H         1 UNK         0.0600 
    193 H193       -5.3213  -22.8033  -47.0493 H         1 UNK         0.0600 
    194 H194       -3.9747  -21.8186  -47.6008 H         1 UNK         0.0600 
    195 H195       -2.3550  -24.5771  -44.9494 H         1 UNK         0.3000 
    196 H196       -4.3282  -26.6083  -44.1596 H         1 UNK         0.0600 
    197 H197       -2.8896  -26.7804  -42.1329 H         1 UNK         0.0600 
    198 H198       -3.3649  -25.1171  -42.4416 H         1 UNK         0.0600 
    199 H199       -1.7349  -25.6543  -42.8376 H         1 UNK         0.0600 
    200 H200       -0.8865  -26.4625  -45.1988 H         1 UNK         0.3000 
    201 H201       -0.3790  -29.2371  -44.8745 H         1 UNK         0.0600 
    202 H202        1.3823  -27.4790  -44.8338 H         1 UNK         0.0600 
    203 H203        1.1187  -27.1591  -46.5484 H         1 UNK         0.0600 
    204 H204        1.7515  -28.7140  -46.0277 H         1 UNK         0.0600 
    205 H205       -1.6097  -27.4228  -47.6934 H         1 UNK         0.3000 
    206 H206       -1.9354  -29.9474  -49.2162 H         1 UNK         0.0600 
    207 H207        0.1944  -28.8636  -50.0030 H         1 UNK         0.0600 
    208 H208       -1.0467  -28.7658  -51.2419 H         1 UNK         0.0600 
    209 H209       -0.6682  -27.3492  -50.2695 H         1 UNK         0.0600 
    210 H210       -3.3815  -29.5631  -51.1164 H         1 UNK         0.3000 
    211 H211       -5.7969  -28.1445  -50.3606 H         1 UNK         0.0600 
    212 H212       -5.0032  -29.6042  -52.9432 H         1 UNK         0.0600 
    213 H213       -6.6232  -29.0507  -52.5391 H         1 UNK         0.0600 
    214 H214       -5.8704  -30.3163  -51.5818 H         1 UNK         0.0600 
    215 H215       -6.7085  -26.3734  -51.3928 H         1 UNK         0.3000 
    216 H216       -6.8643  -24.3496  -52.2461 H         1 UNK         0.0600 
    217 H217       -5.9889  -23.8917  -54.5177 H         1 UNK         0.0600 
    218 H218       -6.6824  -25.4984  -54.4386 H         1 UNK         0.0600 
    219 H219       -4.9354  -25.3031  -54.4365 H         1 UNK         0.0600 
    220 H220       -4.0105  -23.5442  -53.7135 H         1 UNK         0.3000 
    221 H221       -2.3578  -22.1389  -53.3166 H         1 UNK         0.0600 
    222 H222       -2.1303  -23.4572  -50.5516 H         1 UNK         0.0600 
    223 H223       -1.4226  -24.0687  -52.0395 H         1 UNK         0.0600 
    224 H224       -0.8811  -22.5344  -51.3912 H         1 UNK         0.0600 
    225 H225       -2.2590  -21.4315  -50.0845 H         1 UNK         0.3000 
    226 H226       -2.7117  -19.7122  -48.8081 H         1 UNK         0.0600 
    227 H227       -5.1461  -20.4696  -49.0940 H         1 UNK         0.0600 
    228 H228       -4.9543  -18.7857  -48.6521 H         1 UNK         0.0600 
    229 H229       -5.3359  -19.2236  -50.3152 H         1 UNK         0.0600 
    230 H230       -4.1310  -17.1750  -49.6132 H         1 UNK         0.3000 
    231 H231       -1.8164  -15.8338  -50.7788 H         1 UNK         0.0600 
    232 H232       -3.1227  -13.7947  -50.2817 H         1 UNK         0.0600 
    233 H233       -3.1265  -14.8621  -48.8878 H         1 UNK         0.0600 
    234 H234       -4.5533  -14.7541  -49.9176 H         1 UNK         0.0600 
    235 H235       -4.6594  -17.2861  -52.0536 H         1 UNK         0.3000 
    236 H236       -5.4504  -15.5252  -54.0798 H         1 UNK         0.0600 
    237 H237       -6.8423  -17.3961  -53.2484 H         1 UNK         0.0600 
    238 H238       -6.6420  -17.5327  -54.9878 H         1 UNK         0.0600 
    239 H239       -5.7129  -18.5749  -53.9167 H         1 UNK         0.0600 
    240 H240       -2.8408  -17.9073  -54.1222 H         1 UNK         0.3000 
    241 H241       -2.3142  -17.5697  -56.9832 H         1 UNK         0.0600 
    242 H242       -0.2194  -14.7564  -55.1128 H         1 UNK         0.3800 
    243 H243       -1.6722  -15.4310  -54.4234 H         1 UNK         0.3800 
    244 H244       -1.9447  -19.7751  -56.2709 H         1 UNK         0.0800 
    245 H245       -0.3580  -19.1296  -56.5345 H         1 UNK         0.0800 
    246 H246        1.5495  -19.8960  -54.5314 H         1 UNK         0.0800 
    247 H247        1.1409  -18.2022  -54.6619 H         1 UNK         0.0800 
@<TRIPOS>BOND
     1    1    2 1    
     2    1  127 1    
     3    1  128 1    
     4    1  129 1    
     5    2    3 2    
     6    2    4 am   BACKBONE|DICT|INTERRES
     7    4    5 1    
     8    4  130 1    
     9    5    6 1    
    10    5   65 1    
    11    5  131 1    
    12    6    7 1    
    13    6  132 1    
    14    6  133 1    
    15    7    8 1    
    16    8    9 1    
    17    8  134 1    
    18    8  135 1    
    19    9   10 ar   
    20    9   14 ar   
    21   10   11 ar   
    22   10  136 1    
    23   11   12 ar   
    24   11  126 1    
    25   12   13 ar   
    26   12  137 1    
    27   13   14 ar   
    28   13   15 1    
    29   14  138 1    
    30   15   16 1    
    31   15  139 1    
    32   15  140 1    
    33   16   17 1    
    34   17   18 1    
    35   17  141 1    
    36   17  142 1    
    37   18   19 1    
    38   18   67 1    
    39   18  143 1    
    40   19   20 am   BACKBONE|DICT|INTERRES
    41   19  144 1    
    42   20   21 2    
    43   20   22 1    
    44   22   23 1    
    45   22   24 1    
    46   22  145 1    
    47   23  146 1    
    48   23  147 1    
    49   23  148 1    
    50   24   25 am   BACKBONE|DICT|INTERRES
    51   24  149 1    
    52   25   26 2    
    53   25   27 1    
    54   27   28 1    
    55   27   29 1    
    56   27  150 1    
    57   28  151 1    
    58   28  152 1    
    59   28  153 1    
    60   29   30 am   BACKBONE|DICT|INTERRES
    61   29  154 1    
    62   30   31 2    
    63   30   32 1    
    64   32   33 1    
    65   32   34 1    
    66   32  155 1    
    67   33  156 1    
    68   33  157 1    
    69   33  158 1    
    70   34   35 am   BACKBONE|DICT|INTERRES
    71   34  159 1    
    72   35   36 2    
    73   35   37 1    
    74   37   38 1    
    75   37   39 1    
    76   37  160 1    
    77   38  161 1    
    78   38  162 1    
    79   38  163 1    
    80   39   40 am   BACKBONE|DICT|INTERRES
    81   39  164 1    
    82   40   41 2    
    83   40   42 1    
    84   42   43 1    
    85   42   44 1    
    86   42  165 1    
    87   43  166 1    
    88   43  167 1    
    89   43  168 1    
    90   44   45 am   BACKBONE|DICT|INTERRES
    91   44  169 1    
    92   45   46 2    
    93   45   47 1    
    94   47   48 1    
    95   47   49 1    
    96   47  170 1    
    97   48  171 1    
    98   48  172 1    
    99   48  173 1    
   100   49   50 am   BACKBONE|DICT|INTERRES
   101   49  174 1    
   102   50   51 2    
   103   50   52 1    
   104   52   53 1    
   105   52   54 1    
   106   52  175 1    
   107   53  176 1    
   108   53  177 1    
   109   53  178 1    
   110   54   55 am   BACKBONE|DICT|INTERRES
   111   54  179 1    
   112   55   56 2    
   113   55   57 1    
   114   57   58 1    
   115   57   59 1    
   116   57  180 1    
   117   58  181 1    
   118   58  182 1    
   119   58  183 1    
   120   59   60 am   BACKBONE|DICT|INTERRES
   121   59  184 1    
   122   60   61 2    
   123   60   62 1    
   124   62   63 1    
   125   62   64 1    
   126   62  185 1    
   127   63  186 1    
   128   63  187 1    
   129   63  188 1    
   130   64   65 am   BACKBONE|DICT|INTERRES
   131   64  189 1    
   132   65   66 2    
   133   67   68 2    
   134   67   69 am   BACKBONE|DICT|INTERRES
   135   69   70 1    
   136   69  190 1    
   137   70   71 1    
   138   70   72 1    
   139   70  191 1    
   140   71  192 1    
   141   71  193 1    
   142   71  194 1    
   143   72   73 2    
   144   72   74 am   BACKBONE|DICT|INTERRES
   145   74   75 1    
   146   74  195 1    
   147   75   76 1    
   148   75   77 1    
   149   75  196 1    
   150   76  197 1    
   151   76  198 1    
   152   76  199 1    
   153   77   78 2    
   154   77   79 am   BACKBONE|DICT|INTERRES
   155   79   80 1    
   156   79  200 1    
   157   80   81 1    
   158   80   82 1    
   159   80  201 1    
   160   81  202 1    
   161   81  203 1    
   162   81  204 1    
   163   82   83 2    
   164   82   84 am   BACKBONE|DICT|INTERRES
   165   84   85 1    
   166   84  205 1    
   167   85   86 1    
   168   85   87 1    
   169   85  206 1    
   170   86  207 1    
   171   86  208 1    
   172   86  209 1    
   173   87   88 2    
   174   87   89 am   BACKBONE|DICT|INTERRES
   175   89   90 1    
   176   89  210 1    
   177   90   91 1    
   178   90   92 1    
   179   90  211 1    
   180   91  212 1    
   181   91  213 1    
   182   91  214 1    
   183   92   93 2    
   184   92   94 am   BACKBONE|DICT|INTERRES
   185   94   95 1    
   186   94  215 1    
   187   95   96 1    
   188   95   97 1    
   189   95  216 1    
   190   96  217 1    
   191   96  218 1    
   192   96  219 1    
   193   97   98 2    
   194   97   99 am   BACKBONE|DICT|INTERRES
   195   99  100 1    
   196   99  220 1    
   197  100  101 1    
   198  100  102 1    
   199  100  221 1    
   200  101  222 1    
   201  101  223 1    
   202  101  224 1    
   203  102  103 2    
   204  102  104 am   BACKBONE|DICT|INTERRES
   205  104  105 1    
   206  104  225 1    
   207  105  106 1    
   208  105  107 1    
   209  105  226 1    
   210  106  227 1    
   211  106  228 1    
   212  106  229 1    
   213  107  108 2    
   214  107  109 am   BACKBONE|DICT|INTERRES
   215  109  110 1    
   216  109  230 1    
   217  110  111 1    
   218  110  112 1    
   219  110  231 1    
   220  111  232 1    
   221  111  233 1    
   222  111  234 1    
   223  112  113 2    
   224  112  114 am   BACKBONE|DICT|INTERRES
   225  114  115 1    
   226  114  235 1    
   227  115  116 1    
   228  115  117 1    
   229  115  236 1    
   230  116  237 1    
   231  116  238 1    
   232  116  239 1    
   233  117  118 2    
   234  117  119 am   BACKBONE|DICT|INTERRES
   235  119  120 1    
   236  119  240 1    
   237  120  121 1    
   238  120  124 1    
   239  120  241 1    
   240  121  122 am   BACKBONE|DICT|INTERRES
   241  121  123 2    
   242  122  242 1    
   243  122  243 1    
   244  124  125 1    
   245  124  244 1    
   246  124  245 1    
   247  125  126 1    
   248  126  246 1    
   249  126  247 1    
@<TRIPOS>SUBSTRUCTURE
     1 UNK         1 GROUP             0       ****    0 ROOT    
