@<TRIPOS>MOLECULE
3R540
247   249    1
SMALL
USER_CHARGES


@<TRIPOS>ATOM
      1 CA          1.7840  -11.3108  -45.4232 C.3       0 UNK        -0.1800 
      2 C           2.2643  -12.2476  -46.5214 C.2       0 UNK         0.5000 
      3 O           2.9518  -11.8093  -47.4444 O.2       0 UNK        -0.5000 
      4 N           1.8885  -13.5266  -46.4254 N.am      1 UNK        -0.5000 
      5 CA          2.2009  -14.6601  -47.2993 C.3       1 UNK         0.1400 
      6 C6          3.6973  -15.0746  -47.2674 C.3       23 UNK        -0.0398 
      7 S7          3.8875  -16.8857  -47.2035 S.3       23 UNK        -0.2404 
      8 C8          4.0318  -17.3202  -48.9665 C.3       23 UNK        -0.0205 
      9 C9          3.1983  -18.5488  -49.3019 C.ar      23 UNK        -0.0193 
     10 C10         2.1096  -18.4532  -50.1749 C.ar      23 UNK        -0.1150 
     11 C11         1.3521  -19.5858  -50.4906 C.ar      23 UNK        -0.0193 
     12 C12         1.6761  -20.8142  -49.9071 C.ar      23 UNK        -0.1150 
     13 C13         2.7615  -20.9244  -49.0331 C.ar      23 UNK        -0.0193 
     14 C14         3.5270  -19.7898  -48.7486 C.ar      23 UNK        -0.1150 
     15 C15         3.1185  -22.2719  -48.4202 C.3       23 UNK        -0.0205 
     16 S16         3.1240  -22.2108  -46.6004 S.3       23 UNK        -0.2404 
     17 C17         2.9717  -23.9828  -46.1708 C.3       23 UNK        -0.0398 
     18 CA          1.5531  -24.3914  -45.6932 C.3       11 UNK         0.1400 
     19 N           1.0735  -23.5383  -44.5973 N.am      11 UNK        -0.5000 
     20 C           1.2149  -23.8316  -43.2969 C.2       10 UNK         0.5000 
     21 O           1.6406  -24.9138  -42.8902 O.2       10 UNK        -0.5000 
     22 CA          0.8598  -22.7442  -42.2590 C.3       10 UNK         0.1400 
     23 CB          2.1413  -22.1360  -41.6680 C.3       10 UNK        -0.1800 
     24 N           0.0356  -21.6608  -42.7919 N.am      10 UNK        -0.5000 
     25 C          -1.2739  -21.7573  -43.0561 C.2       9 UNK         0.5000 
     26 O          -1.9410  -22.7626  -42.8098 O.2       9 UNK        -0.5000 
     27 CA         -1.9597  -20.5479  -43.7299 C.3       9 UNK         0.1400 
     28 CB         -2.8213  -19.7795  -42.7168 C.3       9 UNK        -0.1800 
     29 N          -1.0657  -19.5956  -44.4020 N.am      9 UNK        -0.5000 
     30 C          -0.1784  -19.8966  -45.3607 C.2       8 UNK         0.5000 
     31 O           0.0172  -21.0415  -45.7610 O.2       8 UNK        -0.5000 
     32 CA          0.6726  -18.7458  -45.9206 C.3       8 UNK         0.1400 
     33 CB         -0.0698  -18.0346  -47.0607 C.3       8 UNK        -0.1800 
     34 N           1.0710  -17.7806  -44.8917 N.am      8 UNK        -0.5000 
     35 C           1.8616  -18.0640  -43.8460 C.2       7 UNK         0.5000 
     36 O           2.3482  -19.1771  -43.6472 O.2       7 UNK        -0.5000 
     37 CA          2.1204  -16.9488  -42.8124 C.3       7 UNK         0.1400 
     38 CB          3.3007  -16.0504  -43.2339 C.3       7 UNK        -0.1800 
     39 N           0.9198  -16.1752  -42.4631 N.am      7 UNK        -0.5000 
     40 C           0.2687  -15.2781  -43.2121 C.2       6 UNK         0.5000 
     41 O           0.6563  -14.8888  -44.3139 O.2       6 UNK        -0.5000 
     42 CA         -1.0635  -14.7491  -42.6525 C.3       6 UNK         0.1400 
     43 CB         -0.8557  -13.3890  -41.9700 C.3       6 UNK        -0.1800 
     44 N          -2.0628  -14.6008  -43.7103 N.am      6 UNK        -0.5000 
     45 C          -2.5013  -15.5849  -44.5100 C.2       5 UNK         0.5000 
     46 O          -2.1949  -16.7703  -44.3651 O.2       5 UNK        -0.5000 
     47 CA         -3.4346  -15.1742  -45.6678 C.3       5 UNK         0.1400 
     48 CB         -4.8971  -15.4681  -45.2993 C.3       5 UNK        -0.1800 
     49 N          -3.3152  -13.7627  -46.0489 N.am      5 UNK        -0.5000 
     50 C          -2.2509  -13.2264  -46.6607 C.2       4 UNK         0.5000 
     51 O          -1.2506  -13.8646  -46.9901 O.2       4 UNK        -0.5000 
     52 CA         -2.3029  -11.7129  -46.9051 C.3       4 UNK         0.1400 
     53 CB         -2.1475  -10.9426  -45.5782 C.3       4 UNK        -0.1800 
     54 N          -1.2371  -11.3355  -47.8295 N.am      4 UNK        -0.5000 
     55 C          -1.1970  -10.2040  -48.5425 C.2       3 UNK         0.5000 
     56 O          -2.0879   -9.3538  -48.5117 O.2       3 UNK        -0.5000 
     57 CA          0.0391   -9.9529  -49.4265 C.3       3 UNK         0.1400 
     58 CB          0.9362   -8.8747  -48.7972 C.3       3 UNK        -0.1800 
     59 N           0.8482  -11.1503  -49.6538 N.am      3 UNK        -0.5000 
     60 C           0.6827  -11.9993  -50.6783 C.2       2 UNK         0.5000 
     61 O          -0.2168  -11.9001  -51.5141 O.2       2 UNK        -0.5000 
     62 CA          1.7044  -13.1441  -50.7985 C.3       2 UNK         0.1400 
     63 CB          2.8940  -12.7132  -51.6691 C.3       2 UNK        -0.1800 
     64 N           2.1991  -13.5480  -49.4857 N.am      2 UNK        -0.5000 
     65 C           1.6498  -14.5045  -48.7317 C.2       1 UNK         0.5000 
     66 O           0.7459  -15.2380  -49.1249 O.2       1 UNK        -0.5000 
     67 C           0.5584  -24.4747  -46.8673 C.2       11 UNK         0.5000 
     68 O           0.4915  -25.5121  -47.5287 O.2       11 UNK        -0.5000 
     69 N          -0.2077  -23.4048  -47.1171 N.am      12 UNK        -0.5000 
     70 CA         -1.1081  -23.2604  -48.2614 C.3       12 UNK         0.1400 
     71 CB         -1.6434  -21.8277  -48.2962 C.3       12 UNK        -0.1800 
     72 C          -2.2743  -24.2613  -48.2898 C.2       12 UNK         0.5000 
     73 O          -2.8085  -24.5315  -49.3662 O.2       12 UNK        -0.5000 
     74 N          -2.6404  -24.8075  -47.1238 N.am      13 UNK        -0.5000 
     75 CA         -3.6282  -25.8766  -46.9830 C.3       13 UNK         0.1400 
     76 CB         -3.9549  -26.0695  -45.4952 C.3       13 UNK        -0.1800 
     77 C          -3.1605  -27.2009  -47.6176 C.2       13 UNK         0.5000 
     78 O          -3.9756  -27.9056  -48.2122 O.2       13 UNK        -0.5000 
     79 N          -1.8549  -27.4941  -47.5205 N.am      14 UNK        -0.5000 
     80 CA         -1.2231  -28.6600  -48.1432 C.3       14 UNK         0.1400 
     81 CB          0.1036  -28.9662  -47.4314 C.3       14 UNK        -0.1800 
     82 C          -0.9992  -28.4550  -49.6525 C.2       14 UNK         0.5000 
     83 O          -1.0664  -29.4197  -50.4144 O.2       14 UNK        -0.5000 
     84 N          -0.7706  -27.1981  -50.0598 N.am      15 UNK        -0.5000 
     85 CA         -0.6455  -26.7785  -51.4586 C.3       15 UNK         0.1400 
     86 CB          0.0494  -25.4079  -51.5031 C.3       15 UNK        -0.1800 
     87 C          -1.9976  -26.7129  -52.2020 C.2       15 UNK         0.5000 
     88 O          -2.0008  -26.5865  -53.4265 O.2       15 UNK        -0.5000 
     89 N          -3.1087  -26.7699  -51.4507 N.am      16 UNK        -0.5000 
     90 CA         -4.5051  -26.6348  -51.8841 C.3       16 UNK         0.1400 
     91 CB         -4.8940  -27.7363  -52.8920 C.3       16 UNK        -0.1800 
     92 C          -4.8654  -25.2138  -52.3725 C.2       16 UNK         0.5000 
     93 O          -5.8591  -25.0392  -53.0795 O.2       16 UNK        -0.5000 
     94 N          -4.0717  -24.2189  -51.9566 N.am      17 UNK        -0.5000 
     95 CA         -4.3135  -22.7923  -52.1746 C.3       17 UNK         0.1400 
     96 CB         -2.9563  -22.0830  -52.2878 C.3       17 UNK        -0.1800 
     97 C          -5.1614  -22.1775  -51.0433 C.2       17 UNK         0.5000 
     98 O          -5.7437  -21.1057  -51.2298 O.2       17 UNK        -0.5000 
     99 N          -5.1922  -22.8576  -49.8835 N.am      18 UNK        -0.5000 
    100 CA        -6.0047  -22.5998  -48.6846 C.3       18 UNK         0.1400 
    101 CB        -7.4970  -22.8119  -49.0099 C.3       18 UNK        -0.1800 
    102 C         -5.7567  -21.2344  -48.0081 C.2       18 UNK         0.5000 
    103 O         -6.5534  -20.8193  -47.1667 O.2       18 UNK        -0.5000 
    104 N         -4.6779  -20.5517  -48.4174 N.am      19 UNK        -0.5000 
    105 CA        -4.2983  -19.1699  -48.1022 C.3       19 UNK         0.1400 
    106 CB        -4.0856  -18.9808  -46.5904 C.3       19 UNK        -0.1800 
    107 C         -5.2507  -18.1154  -48.7087 C.2       19 UNK         0.5000 
    108 O         -5.0936  -16.9277  -48.4297 O.2       19 UNK        -0.5000 
    109 N         -6.1990  -18.5585  -49.5450 N.am      20 UNK        -0.5000 
    110 CA        -7.1776  -17.7247  -50.2351 C.3       20 UNK         0.1400 
    111 CB        -8.4936  -18.5069  -50.3682 C.3       20 UNK        -0.1800 
    112 C         -6.6563  -17.3034  -51.6159 C.2       20 UNK         0.5000 
    113 O         -6.8474  -16.1536  -52.0125 O.2       20 UNK        -0.5000 
    114 N         -5.9915  -18.2347  -52.3155 N.am      21 UNK        -0.5000 
    115 CA        -5.3591  -17.9868  -53.6128 C.3       21 UNK         0.1400 
    116 CB        -5.2370  -19.3196  -54.3675 C.3       21 UNK        -0.1800 
    117 C         -3.9830  -17.3025  -53.4845 C.2       21 UNK         0.5000 
    118 O         -3.4924  -16.7454  -54.4673 O.2       21 UNK        -0.5000 
    119 N         -3.3794  -17.3733  -52.2921 N.am      22 UNK        -0.5000 
    120 CA        -2.0678  -16.7977  -51.9682 C.3       22 UNK         0.1400 
    121 C         -2.1121  -15.2485  -51.8774 C.2       22 UNK         0.5000 
    122 N         -1.2014  -14.5536  -52.5450 N.am      22 UNK        -0.7600 
    123 O         -2.9414  -14.6762  -51.1750 O.2       22 UNK        -0.5000 
    124 C124       -1.4795  -17.4001  -50.6665 C.3       23 UNK        -0.0398 
    125 S125       -1.3970  -19.2208  -50.7068 S.3       23 UNK        -0.2404 
    126 C126        0.2148  -19.5044  -51.4982 C.3       23 UNK        -0.0205 
    127 H127        2.6316  -10.7937  -44.9736 H         1 UNK         0.0600 
    128 H128        1.2588  -11.8509  -44.6346 H         1 UNK         0.0600 
    129 H129        1.1058  -10.5640  -45.8346 H         1 UNK         0.0600 
    130 H130        1.3036  -13.8032  -45.6379 H         1 UNK         0.3000 
    131 H131        1.6207  -15.4646  -46.8470 H         1 UNK         0.0600 
    132 H132        4.2751  -14.6545  -48.0921 H         1 UNK         0.0800 
    133 H133        4.1705  -14.6899  -46.3630 H         1 UNK         0.0800 
    134 H134        3.7312  -16.4790  -49.5920 H         1 UNK         0.0800 
    135 H135        5.0788  -17.5167  -49.2008 H         1 UNK         0.0800 
    136 H136        1.8595  -17.4999  -50.6184 H         1 UNK         0.1150 
    137 H137        1.0883  -21.6883  -50.1485 H         1 UNK         0.1150 
    138 H138        4.3712  -19.8686  -48.0779 H         1 UNK         0.1150 
    139 H139        2.4145  -23.0349  -48.7550 H         1 UNK         0.0800 
    140 H140        4.1033  -22.5801  -48.7734 H         1 UNK         0.0800 
    141 H141        3.6848  -24.1823  -45.3700 H         1 UNK         0.0800 
    142 H142        3.2982  -24.6025  -47.0080 H         1 UNK         0.0800 
    143 H143        1.6246  -25.4188  -45.3299 H         1 UNK         0.0600 
    144 H144        0.7356  -22.6175  -44.8593 H         1 UNK         0.3000 
    145 H145        0.3111  -23.2307  -41.4499 H         1 UNK         0.0600 
    146 H146        1.9117  -21.3957  -40.9015 H         1 UNK         0.0600 
    147 H147        2.7609  -22.9035  -41.2025 H         1 UNK         0.0600 
    148 H148        2.7443  -21.6492  -42.4356 H         1 UNK         0.0600 
    149 H149        0.5198  -20.8128  -43.0545 H         1 UNK         0.3000 
    150 H150       -2.6205  -20.9668  -44.4892 H         1 UNK         0.0600 
    151 H151       -3.5103  -20.4468  -42.1975 H         1 UNK         0.0600 
    152 H152       -3.4231  -19.0167  -43.2116 H         1 UNK         0.0600 
    153 H153       -2.2074  -19.2859  -41.9625 H         1 UNK         0.0600 
    154 H154       -1.2023  -18.6165  -44.1736 H         1 UNK         0.3000 
    155 H155        1.5807  -19.1884  -46.3362 H         1 UNK         0.0600 
    156 H156       -0.4800  -18.7525  -47.7714 H         1 UNK         0.0600 
    157 H157        0.6074  -17.3949  -47.6223 H         1 UNK         0.0600 
    158 H158       -0.8947  -17.4221  -46.6969 H         1 UNK         0.0600 
    159 H159        0.7074  -16.8378  -44.9701 H         1 UNK         0.3000 
    160 H160        2.4161  -17.4483  -41.8884 H         1 UNK         0.0600 
    161 H161        3.1299  -15.5691  -44.1965 H         1 UNK         0.0600 
    162 H162        4.2149  -16.6372  -43.3298 H         1 UNK         0.0600 
    163 H163        3.4887  -15.2711  -42.4957 H         1 UNK         0.0600 
    164 H164        0.5050  -16.4307  -41.5776 H         1 UNK         0.3000 
    165 H165       -1.4524  -15.4597  -41.9205 H         1 UNK         0.0600 
    166 H166       -1.7851  -13.0173  -41.5379 H         1 UNK         0.0600 
    167 H167       -0.1290  -13.4648  -41.1601 H         1 UNK         0.0600 
    168 H168       -0.4878  -12.6391  -42.6719 H         1 UNK         0.0600 
    169 H169       -2.3537  -13.6598  -43.9235 H         1 UNK         0.3000 
    170 H170       -3.1658  -15.7778  -46.5367 H         1 UNK         0.0600 
    171 H171       -5.0291  -16.5137  -45.0188 H         1 UNK         0.0600 
    172 H172       -5.2315  -14.8593  -44.4585 H         1 UNK         0.0600 
    173 H173       -5.5616  -15.2748  -46.1417 H         1 UNK         0.0600 
    174 H174       -4.0983  -13.1694  -45.8153 H         1 UNK         0.3000 
    175 H175       -3.2678  -11.4760  -47.3584 H         1 UNK         0.0600 
    176 H176       -1.2132  -11.1940  -45.0758 H         1 UNK         0.0600 
    177 H177       -2.1614   -9.8642  -45.7364 H         1 UNK         0.0600 
    178 H178       -2.9609  -11.1732  -44.8897 H         1 UNK         0.0600 
    179 H179       -0.5204  -12.0399  -47.9504 H         1 UNK         0.3000 
    180 H180       -0.3201   -9.5706  -50.3844 H         1 UNK         0.0600 
    181 H181        1.3439   -9.1965  -47.8387 H         1 UNK         0.0600 
    182 H182        0.3803   -7.9521  -48.6249 H         1 UNK         0.0600 
    183 H183        1.7736   -8.6297  -49.4507 H         1 UNK         0.0600 
    184 H184        1.6106  -11.3082  -49.0059 H         1 UNK         0.3000 
    185 H185        1.2167  -13.9887  -51.2880 H         1 UNK         0.0600 
    186 H186        2.5612  -12.4161  -52.6645 H         1 UNK         0.0600 
    187 H187        3.4279  -11.8673  -51.2342 H         1 UNK         0.0600 
    188 H188        3.6050  -13.5299  -51.7946 H         1 UNK         0.0600 
    189 H189        2.8824  -12.9421  -49.0431 H         1 UNK         0.3000 
    190 H190       -0.0810  -22.5611  -46.5587 H         1 UNK         0.3000 
    191 H191       -0.5164  -23.4206  -49.1628 H         1 UNK         0.0600 
    192 H192       -0.8292  -21.1075  -48.3677 H         1 UNK         0.0600 
    193 H193       -2.2853  -21.6734  -49.1613 H         1 UNK         0.0600 
    194 H194       -2.2200  -21.5933  -47.4011 H         1 UNK         0.0600 
    195 H195       -2.1552  -24.5167  -46.2877 H         1 UNK         0.3000 
    196 H196       -4.5410  -25.5674  -47.4964 H         1 UNK         0.0600 
    197 H197       -4.7063  -26.8483  -45.3582 H         1 UNK         0.0600 
    198 H198       -4.3534  -25.1539  -45.0574 H         1 UNK         0.0600 
    199 H199       -3.0730  -26.3589  -44.9223 H         1 UNK         0.0600 
    200 H200       -1.2333  -26.8334  -47.0722 H         1 UNK         0.3000 
    201 H201       -1.8801  -29.5233  -48.0170 H         1 UNK         0.0600 
    202 H202       -0.0502  -29.1351  -46.3656 H         1 UNK         0.0600 
    203 H203        0.8219  -28.1537  -47.5427 H         1 UNK         0.0600 
    204 H204        0.5642  -29.8666  -47.8399 H         1 UNK         0.0600 
    205 H205       -0.6844  -26.4771  -49.3562 H         1 UNK         0.3000 
    206 H206       -0.0136  -27.5003  -51.9802 H         1 UNK         0.0600 
    207 H207        0.9733  -25.4073  -50.9241 H         1 UNK         0.0600 
    208 H208        0.3076  -25.1381  -52.5279 H         1 UNK         0.0600 
    209 H209       -0.5950  -24.6193  -51.1165 H         1 UNK         0.0600 
    210 H210       -2.9779  -26.8435  -50.4512 H         1 UNK         0.3000 
    211 H211       -5.1034  -26.7949  -50.9860 H         1 UNK         0.0600 
    212 H212       -4.4104  -27.5936  -53.8585 H         1 UNK         0.0600 
    213 H213       -5.9704  -27.7431  -53.0665 H         1 UNK         0.0600 
    214 H214       -4.6209  -28.7242  -52.5211 H         1 UNK         0.0600 
    215 H215       -3.3122  -24.4567  -51.3283 H         1 UNK         0.3000 
    216 H216       -4.8569  -22.6452  -53.1101 H         1 UNK         0.0600 
    217 H217       -3.0793  -21.0047  -52.3847 H         1 UNK         0.0600 
    218 H218       -2.4092  -22.4259  -53.1660 H         1 UNK         0.0600 
    219 H219       -2.3277  -22.2662  -51.4167 H         1 UNK         0.0600 
    220 H220       -4.6002  -23.6788  -49.8268 H         1 UNK         0.3000 
    221 H221       -5.7128  -23.3532  -47.9520 H         1 UNK         0.0600 
    222 H222       -7.8730  -22.0507  -49.6945 H         1 UNK         0.0600 
    223 H223       -7.6655  -23.7866  -49.4678 H         1 UNK         0.0600 
    224 H224       -8.1082  -22.7706  -48.1075 H         1 UNK         0.0600 
    225 H225       -4.1217  -20.9918  -49.1353 H         1 UNK         0.3000 
    226 H226       -3.3323  -19.0117  -48.5790 H         1 UNK         0.0600 
    227 H227       -3.4681  -19.7784  -46.1861 H         1 UNK         0.0600 
    228 H228       -3.5683  -18.0460  -46.3866 H         1 UNK         0.0600 
    229 H229       -5.0260  -18.9654  -46.0395 H         1 UNK         0.0600 
    230 H230       -6.2234  -19.5480  -49.7566 H         1 UNK         0.3000 
    231 H231       -7.3731  -16.8224  -49.6517 H         1 UNK         0.0600 
    232 H232       -8.3614  -19.4284  -50.9373 H         1 UNK         0.0600 
    233 H233       -9.2524  -17.9111  -50.8768 H         1 UNK         0.0600 
    234 H234       -8.8915  -18.7743  -49.3891 H         1 UNK         0.0600 
    235 H235       -5.9016  -19.1712  -51.9353 H         1 UNK         0.3000 
    236 H236       -6.0000  -17.3262  -54.2008 H         1 UNK         0.0600 
    237 H237       -6.2135  -19.7827  -54.5101 H         1 UNK         0.0600 
    238 H238       -4.8001  -19.1714  -55.3559 H         1 UNK         0.0600 
    239 H239       -4.6063  -20.0286  -53.8333 H         1 UNK         0.0600 
    240 H240       -3.8661  -17.8289  -51.5371 H         1 UNK         0.3000 
    241 H241       -1.3934  -17.0680  -52.7833 H         1 UNK         0.0600 
    242 H242       -1.1783  -13.5474  -52.4337 H         1 UNK         0.3800 
    243 H243       -0.5308  -15.0015  -53.1487 H         1 UNK         0.3800 
    244 H244       -0.4783  -17.0115  -50.4865 H         1 UNK         0.0800 
    245 H245       -2.0767  -17.1047  -49.8018 H         1 UNK         0.0800 
    246 H246        0.4136  -18.7270  -52.2369 H         1 UNK         0.0800 
    247 H247        0.1603  -20.4392  -52.0582 H         1 UNK         0.0800 
@<TRIPOS>BOND
     1    1    2 1    
     2    1  127 1    
     3    1  128 1    
     4    1  129 1    
     5    2    3 2    
     6    2    4 am   BACKBONE|DICT|INTERRES
     7    4    5 1    
     8    4  130 1    
     9    5    6 1    
    10    5   65 1    
    11    5  131 1    
    12    6    7 1    
    13    6  132 1    
    14    6  133 1    
    15    7    8 1    
    16    8    9 1    
    17    8  134 1    
    18    8  135 1    
    19    9   10 ar   
    20    9   14 ar   
    21   10   11 ar   
    22   10  136 1    
    23   11   12 ar   
    24   11  126 1    
    25   12   13 ar   
    26   12  137 1    
    27   13   14 ar   
    28   13   15 1    
    29   14  138 1    
    30   15   16 1    
    31   15  139 1    
    32   15  140 1    
    33   16   17 1    
    34   17   18 1    
    35   17  141 1    
    36   17  142 1    
    37   18   19 1    
    38   18   67 1    
    39   18  143 1    
    40   19   20 am   BACKBONE|DICT|INTERRES
    41   19  144 1    
    42   20   21 2    
    43   20   22 1    
    44   22   23 1    
    45   22   24 1    
    46   22  145 1    
    47   23  146 1    
    48   23  147 1    
    49   23  148 1    
    50   24   25 am   BACKBONE|DICT|INTERRES
    51   24  149 1    
    52   25   26 2    
    53   25   27 1    
    54   27   28 1    
    55   27   29 1    
    56   27  150 1    
    57   28  151 1    
    58   28  152 1    
    59   28  153 1    
    60   29   30 am   BACKBONE|DICT|INTERRES
    61   29  154 1    
    62   30   31 2    
    63   30   32 1    
    64   32   33 1    
    65   32   34 1    
    66   32  155 1    
    67   33  156 1    
    68   33  157 1    
    69   33  158 1    
    70   34   35 am   BACKBONE|DICT|INTERRES
    71   34  159 1    
    72   35   36 2    
    73   35   37 1    
    74   37   38 1    
    75   37   39 1    
    76   37  160 1    
    77   38  161 1    
    78   38  162 1    
    79   38  163 1    
    80   39   40 am   BACKBONE|DICT|INTERRES
    81   39  164 1    
    82   40   41 2    
    83   40   42 1    
    84   42   43 1    
    85   42   44 1    
    86   42  165 1    
    87   43  166 1    
    88   43  167 1    
    89   43  168 1    
    90   44   45 am   BACKBONE|DICT|INTERRES
    91   44  169 1    
    92   45   46 2    
    93   45   47 1    
    94   47   48 1    
    95   47   49 1    
    96   47  170 1    
    97   48  171 1    
    98   48  172 1    
    99   48  173 1    
   100   49   50 am   BACKBONE|DICT|INTERRES
   101   49  174 1    
   102   50   51 2    
   103   50   52 1    
   104   52   53 1    
   105   52   54 1    
   106   52  175 1    
   107   53  176 1    
   108   53  177 1    
   109   53  178 1    
   110   54   55 am   BACKBONE|DICT|INTERRES
   111   54  179 1    
   112   55   56 2    
   113   55   57 1    
   114   57   58 1    
   115   57   59 1    
   116   57  180 1    
   117   58  181 1    
   118   58  182 1    
   119   58  183 1    
   120   59   60 am   BACKBONE|DICT|INTERRES
   121   59  184 1    
   122   60   61 2    
   123   60   62 1    
   124   62   63 1    
   125   62   64 1    
   126   62  185 1    
   127   63  186 1    
   128   63  187 1    
   129   63  188 1    
   130   64   65 am   BACKBONE|DICT|INTERRES
   131   64  189 1    
   132   65   66 2    
   133   67   68 2    
   134   67   69 am   BACKBONE|DICT|INTERRES
   135   69   70 1    
   136   69  190 1    
   137   70   71 1    
   138   70   72 1    
   139   70  191 1    
   140   71  192 1    
   141   71  193 1    
   142   71  194 1    
   143   72   73 2    
   144   72   74 am   BACKBONE|DICT|INTERRES
   145   74   75 1    
   146   74  195 1    
   147   75   76 1    
   148   75   77 1    
   149   75  196 1    
   150   76  197 1    
   151   76  198 1    
   152   76  199 1    
   153   77   78 2    
   154   77   79 am   BACKBONE|DICT|INTERRES
   155   79   80 1    
   156   79  200 1    
   157   80   81 1    
   158   80   82 1    
   159   80  201 1    
   160   81  202 1    
   161   81  203 1    
   162   81  204 1    
   163   82   83 2    
   164   82   84 am   BACKBONE|DICT|INTERRES
   165   84   85 1    
   166   84  205 1    
   167   85   86 1    
   168   85   87 1    
   169   85  206 1    
   170   86  207 1    
   171   86  208 1    
   172   86  209 1    
   173   87   88 2    
   174   87   89 am   BACKBONE|DICT|INTERRES
   175   89   90 1    
   176   89  210 1    
   177   90   91 1    
   178   90   92 1    
   179   90  211 1    
   180   91  212 1    
   181   91  213 1    
   182   91  214 1    
   183   92   93 2    
   184   92   94 am   BACKBONE|DICT|INTERRES
   185   94   95 1    
   186   94  215 1    
   187   95   96 1    
   188   95   97 1    
   189   95  216 1    
   190   96  217 1    
   191   96  218 1    
   192   96  219 1    
   193   97   98 2    
   194   97   99 am   BACKBONE|DICT|INTERRES
   195   99  100 1    
   196   99  220 1    
   197  100  101 1    
   198  100  102 1    
   199  100  221 1    
   200  101  222 1    
   201  101  223 1    
   202  101  224 1    
   203  102  103 2    
   204  102  104 am   BACKBONE|DICT|INTERRES
   205  104  105 1    
   206  104  225 1    
   207  105  106 1    
   208  105  107 1    
   209  105  226 1    
   210  106  227 1    
   211  106  228 1    
   212  106  229 1    
   213  107  108 2    
   214  107  109 am   BACKBONE|DICT|INTERRES
   215  109  110 1    
   216  109  230 1    
   217  110  111 1    
   218  110  112 1    
   219  110  231 1    
   220  111  232 1    
   221  111  233 1    
   222  111  234 1    
   223  112  113 2    
   224  112  114 am   BACKBONE|DICT|INTERRES
   225  114  115 1    
   226  114  235 1    
   227  115  116 1    
   228  115  117 1    
   229  115  236 1    
   230  116  237 1    
   231  116  238 1    
   232  116  239 1    
   233  117  118 2    
   234  117  119 am   BACKBONE|DICT|INTERRES
   235  119  120 1    
   236  119  240 1    
   237  120  121 1    
   238  120  124 1    
   239  120  241 1    
   240  121  122 am   BACKBONE|DICT|INTERRES
   241  121  123 2    
   242  122  242 1    
   243  122  243 1    
   244  124  125 1    
   245  124  244 1    
   246  124  245 1    
   247  125  126 1    
   248  126  246 1    
   249  126  247 1    
@<TRIPOS>SUBSTRUCTURE
     1 UNK         1 GROUP             0       ****    0 ROOT    
