@<TRIPOS>MOLECULE
3R540
247   249    1
SMALL
USER_CHARGES


@<TRIPOS>ATOM
      1 CA         -1.8588  -16.0777  -46.7692 C.3       0 UNK        -0.1800 
      2 C          -2.3790  -14.8054  -47.4229 C.2       0 UNK         0.5000 
      3 O          -3.5764  -14.5274  -47.3696 O.2       0 UNK        -0.5000 
      4 N          -1.4761  -14.0321  -48.0379 N.am      1 UNK        -0.5000 
      5 CA         -1.7838  -12.7845  -48.7564 C.3       1 UNK         0.1400 
      6 C6         -0.7213  -12.4697  -49.8394 C.3       23 UNK        -0.0398 
      7 S7         -0.6078  -13.7976  -51.0872 S.3       23 UNK        -0.2404 
      8 C8          0.9456  -14.6185  -50.6118 C.3       23 UNK        -0.0205 
      9 C9          0.9227  -16.0834  -51.0144 C.ar      23 UNK        -0.0193 
     10 C10         1.3140  -16.4707  -52.2996 C.ar      23 UNK        -0.1150 
     11 C11         1.2678  -17.8160  -52.6771 C.ar      23 UNK        -0.0193 
     12 C12         0.8329  -18.7735  -51.7566 C.ar      23 UNK        -0.1150 
     13 C13         0.4435  -18.4000  -50.4689 C.ar      23 UNK        -0.0193 
     14 C14         0.4925  -17.0522  -50.1026 C.ar      23 UNK        -0.1150 
     15 C15        -0.0519  -19.4431  -49.4811 C.3       23 UNK        -0.0205 
     16 S16         1.3211  -20.3650  -48.7202 S.3       23 UNK        -0.2404 
     17 C17         1.3236  -21.9384  -49.6677 C.3       23 UNK        -0.0398 
     18 CA          0.7242  -23.1493  -48.8969 C.3       11 UNK         0.1400 
     19 N           1.2643  -23.2425  -47.5395 N.am      11 UNK        -0.5000 
     20 C           0.9739  -24.1668  -46.6139 C.2       10 UNK         0.5000 
     21 O           0.2920  -25.1677  -46.8284 O.2       10 UNK        -0.5000 
     22 CA          1.4783  -23.8720  -45.1856 C.3       10 UNK         0.1400 
     23 CB          2.8627  -24.4959  -44.9604 C.3       10 UNK        -0.1800 
     24 N           1.5405  -22.4355  -44.8914 N.am      10 UNK        -0.5000 
     25 C           0.4972  -21.5966  -44.9315 C.2       9 UNK         0.5000 
     26 O          -0.6637  -21.9664  -45.1195 O.2       9 UNK        -0.5000 
     27 CA          0.8260  -20.1000  -44.7873 C.3       9 UNK         0.1400 
     28 CB         -0.3470  -19.1983  -45.2035 C.3       9 UNK        -0.1800 
     29 N           1.2560  -19.7546  -43.4328 N.am      9 UNK        -0.5000 
     30 C           2.4870  -19.9639  -42.9452 C.2       8 UNK         0.5000 
     31 O           3.3649  -20.5562  -43.5769 O.2       8 UNK        -0.5000 
     32 CA          2.7984  -19.4232  -41.5354 C.3       8 UNK         0.1400 
     33 CB          4.2342  -18.8777  -41.4263 C.3       8 UNK        -0.1800 
     34 N           1.8622  -18.3719  -41.1334 N.am      8 UNK        -0.5000 
     35 C           1.2939  -18.2692  -39.9236 C.2       7 UNK         0.5000 
     36 O           1.4934  -19.0719  -39.0106 O.2       7 UNK        -0.5000 
     37 CA          0.3444  -17.0769  -39.6683 C.3       7 UNK         0.1400 
     38 CB          1.0576  -15.9929  -38.8452 C.3       7 UNK        -0.1800 
     39 N          -0.1960  -16.4563  -40.8776 N.am      7 UNK        -0.5000 
     40 C          -0.9736  -17.0584  -41.7862 C.2       6 UNK         0.5000 
     41 O          -1.3714  -18.2193  -41.6897 O.2       6 UNK        -0.5000 
     42 CA         -1.3131  -16.2432  -43.0463 C.3       6 UNK         0.1400 
     43 CB         -2.6397  -15.4938  -42.8602 C.3       6 UNK        -0.1800 
     44 N          -0.2716  -15.2919  -43.4486 N.am      6 UNK        -0.5000 
     45 C           1.0158  -15.5748  -43.7037 C.2       5 UNK         0.5000 
     46 O           1.5136  -16.6923  -43.5805 O.2       5 UNK        -0.5000 
     47 CA          1.9056  -14.3961  -44.1244 C.3       5 UNK         0.1400 
     48 CB          1.6680  -14.0245  -45.5976 C.3       5 UNK        -0.1800 
     49 N           1.6672  -13.2333  -43.2712 N.am      5 UNK        -0.5000 
     50 C           2.1864  -13.0810  -42.0445 C.2       4 UNK         0.5000 
     51 O           2.9827  -13.8702  -41.5359 O.2       4 UNK        -0.5000 
     52 CA          1.7314  -11.8464  -41.2425 C.3       4 UNK         0.1400 
     53 CB          2.6708  -10.6594  -41.5037 C.3       4 UNK        -0.1800 
     54 N           0.3565  -11.4429  -41.5410 N.am      4 UNK        -0.5000 
     55 C          -0.7338  -12.1460  -41.2043 C.2       3 UNK         0.5000 
     56 O          -0.7002  -13.2039  -40.5747 O.2       3 UNK        -0.5000 
     57 CA         -2.0860  -11.5912  -41.6976 C.3       3 UNK         0.1400 
     58 CB         -2.6537  -10.5831  -40.6874 C.3       3 UNK        -0.1800 
     59 N          -2.0287  -10.9669  -43.0264 N.am      3 UNK        -0.5000 
     60 C          -1.6310  -11.5896  -44.1432 C.2       2 UNK         0.5000 
     61 O          -1.2115  -12.7501  -44.1622 O.2       2 UNK        -0.5000 
     62 CA         -1.6650  -10.7841  -45.4485 C.3       2 UNK         0.1400 
     63 CB         -0.5026   -9.7776  -45.5076 C.3       2 UNK        -0.1800 
     64 N          -1.5481  -11.7365  -46.5446 N.am      2 UNK        -0.5000 
     65 C          -1.9656  -11.5799  -47.8038 C.2       1 UNK         0.5000 
     66 O          -2.4773  -10.5419  -48.2257 O.2       1 UNK        -0.5000 
     67 C          -0.8197  -23.1282  -48.9072 C.2       11 UNK         0.5000 
     68 O          -1.4388  -23.9549  -49.5771 O.2       11 UNK        -0.5000 
     69 N          -1.4091  -22.2095  -48.1292 N.am      12 UNK        -0.5000 
     70 CA         -2.8543  -22.0325  -48.0108 C.3       12 UNK         0.1400 
     71 CB         -3.1646  -20.6778  -47.3587 C.3       12 UNK        -0.1800 
     72 C          -3.5210  -23.1733  -47.2306 C.2       12 UNK         0.5000 
     73 O          -4.6478  -23.5395  -47.5547 O.2       12 UNK        -0.5000 
     74 N          -2.8142  -23.7360  -46.2412 N.am      13 UNK        -0.5000 
     75 CA         -3.2565  -24.9102  -45.4888 C.3       13 UNK         0.1400 
     76 CB         -2.3127  -25.1503  -44.3013 C.3       13 UNK        -0.1800 
     77 C          -3.3614  -26.1673  -46.3741 C.2       13 UNK         0.5000 
     78 O          -4.3346  -26.9123  -46.2553 O.2       13 UNK        -0.5000 
     79 N          -2.3744  -26.3643  -47.2594 N.am      14 UNK        -0.5000 
     80 CA         -2.3257  -27.4693  -48.2150 C.3       14 UNK         0.1400 
     81 CB         -0.9025  -27.5919  -48.7815 C.3       14 UNK        -0.1800 
     82 C          -3.3531  -27.3199  -49.3514 C.2       14 UNK         0.5000 
     83 O          -4.0601  -28.2801  -49.6600 O.2       14 UNK        -0.5000 
     84 N          -3.4139  -26.1266  -49.9579 N.am      15 UNK        -0.5000 
     85 CA         -4.2705  -25.8316  -51.1109 C.3       15 UNK         0.1400 
     86 CB         -3.6408  -24.6759  -51.9007 C.3       15 UNK        -0.1800 
     87 C          -5.7358  -25.5142  -50.7451 C.2       15 UNK         0.5000 
     88 O          -6.5763  -25.4635  -51.6430 O.2       15 UNK        -0.5000 
     89 N          -6.0099  -25.2885  -49.4522 N.am      16 UNK        -0.5000 
     90 CA         -7.2852  -24.8994  -48.8295 C.3       16 UNK         0.1400 
     91 CB         -8.4231  -25.8799  -49.1807 C.3       16 UNK        -0.1800 
     92 C          -7.6865  -23.4243  -49.0594 C.2       16 UNK         0.5000 
     93 O          -8.7201  -22.9918  -48.5468 O.2       16 UNK        -0.5000 
     94 N          -6.8538  -22.6680  -49.7791 N.am      17 UNK        -0.5000 
     95 CA         -6.9304  -21.2326  -50.0183 C.3       17 UNK         0.1400 
     96 CB         -8.0378  -20.9092  -51.0376 C.3       17 UNK        -0.1800 
     97 C          -5.5583  -20.7996  -50.5495 C.2       17 UNK         0.5000 
     98 O          -4.8713  -21.6159  -51.1637 O.2       17 UNK        -0.5000 
     99 N          -5.1730  -19.5382  -50.3192 N.am      18 UNK        -0.5000 
    100 CA        -3.8943  -18.9857  -50.7855 C.3       18 UNK         0.1400 
    101 CB        -3.5941  -17.6870  -50.0204 C.3       18 UNK        -0.1800 
    102 C         -3.8563  -18.7336  -52.3066 C.2       18 UNK         0.5000 
    103 O         -2.7741  -18.7296  -52.8949 O.2       18 UNK        -0.5000 
    104 N         -5.0354  -18.5240  -52.9099 N.am      19 UNK        -0.5000 
    105 CA        -5.2402  -18.2537  -54.3319 C.3       19 UNK         0.1400 
    106 CB        -6.7391  -18.0242  -54.5860 C.3       19 UNK        -0.1800 
    107 C         -4.6895  -19.3804  -55.2264 C.2       19 UNK         0.5000 
    108 O         -5.2343  -20.4857  -55.2213 O.2       19 UNK        -0.5000 
    109 N         -3.6075  -19.0691  -55.9542 N.am      20 UNK        -0.5000 
    110 CA        -2.8640  -19.9414  -56.8717 C.3       20 UNK         0.1400 
    111 CB        -3.7456  -20.3631  -58.0660 C.3       20 UNK        -0.1800 
    112 C         -2.1745  -21.1465  -56.1931 C.2       20 UNK         0.5000 
    113 O         -1.7948  -22.0946  -56.8836 O.2       20 UNK        -0.5000 
    114 N         -1.9730  -21.0863  -54.8673 N.am      21 UNK        -0.5000 
    115 CA        -1.3682  -22.1579  -54.0659 C.3       21 UNK         0.1400 
    116 CB        -1.5568  -21.8388  -52.5786 C.3       21 UNK        -0.1800 
    117 C          0.1165  -22.4308  -54.3853 C.2       21 UNK         0.5000 
    118 O          0.6153  -23.5113  -54.0693 O.2       21 UNK        -0.5000 
    119 N          0.7826  -21.4623  -55.0246 N.am      22 UNK        -0.5000 
    120 CA         2.1374  -21.5904  -55.5847 C.3       22 UNK         0.1400 
    121 C          2.1886  -22.3590  -56.9403 C.2       22 UNK         0.5000 
    122 N          1.0689  -22.7067  -57.5666 N.am      22 UNK        -0.7600 
    123 O          3.2732  -22.6563  -57.4334 O.2       22 UNK        -0.5000 
    124 C124        2.8421  -20.2125  -55.7033 C.3       23 UNK        -0.0398 
    125 S125        3.0561  -19.3955  -54.0857 S.3       23 UNK        -0.2404 
    126 C126        1.6476  -18.2408  -54.0866 C.3       23 UNK        -0.0205 
    127 H127       -0.8517  -15.9384  -46.3762 H         1 UNK         0.0600 
    128 H128       -1.8374  -16.8930  -47.4914 H         1 UNK         0.0600 
    129 H129       -2.5075  -16.3724  -45.9449 H         1 UNK         0.0600 
    130 H130       -0.5099  -14.3196  -48.0588 H         1 UNK         0.3000 
    131 H131       -2.7405  -12.9160  -49.2671 H         1 UNK         0.0600 
    132 H132        0.2571  -12.2911  -49.3899 H         1 UNK         0.0800 
    133 H133       -0.9809  -11.5513  -50.3694 H         1 UNK         0.0800 
    134 H134        1.1061  -14.5378  -49.5362 H         1 UNK         0.0800 
    135 H135        1.7848  -14.1074  -51.0861 H         1 UNK         0.0800 
    136 H136        1.6377  -15.7214  -53.0083 H         1 UNK         0.1150 
    137 H137        0.8083  -19.8125  -52.0474 H         1 UNK         0.1150 
    138 H138        0.1861  -16.7550  -49.1101 H         1 UNK         0.1150 
    139 H139       -0.7473  -20.1219  -49.9747 H         1 UNK         0.0800 
    140 H140       -0.6194  -18.9567  -48.6875 H         1 UNK         0.0800 
    141 H141        2.3648  -22.1585  -49.9071 H         1 UNK         0.0800 
    142 H142        0.8360  -21.8032  -50.6339 H         1 UNK         0.0800 
    143 H143        1.0266  -24.0585  -49.4206 H         1 UNK         0.0600 
    144 H144        1.8327  -22.4593  -47.2520 H         1 UNK         0.3000 
    145 H145        0.7781  -24.3256  -44.4825 H         1 UNK         0.0600 
    146 H146        3.1965  -24.3538  -43.9323 H         1 UNK         0.0600 
    147 H147        2.8420  -25.5700  -45.1495 H         1 UNK         0.0600 
    148 H148        3.6135  -24.0597  -45.6205 H         1 UNK         0.0600 
    149 H149        2.4503  -22.0451  -44.6687 H         1 UNK         0.3000 
    150 H150        1.6452  -19.8861  -45.4775 H         1 UNK         0.0600 
    151 H151       -0.6932  -19.4463  -46.2064 H         1 UNK         0.0600 
    152 H152       -0.0404  -18.1542  -45.2300 H         1 UNK         0.0600 
    153 H153       -1.1950  -19.2952  -44.5247 H         1 UNK         0.0600 
    154 H154        0.5726  -19.3000  -42.8435 H         1 UNK         0.3000 
    155 H155        2.7075  -20.2809  -40.8662 H         1 UNK         0.0600 
    156 H156        4.9702  -19.6459  -41.6663 H         1 UNK         0.0600 
    157 H157        4.4484  -18.5321  -40.4149 H         1 UNK         0.0600 
    158 H158        4.3942  -18.0409  -42.1073 H         1 UNK         0.0600 
    159 H159        1.6545  -17.6761  -41.8449 H         1 UNK         0.3000 
    160 H160       -0.4986  -17.4527  -39.0851 H         1 UNK         0.0600 
    161 H161        1.8984  -15.5639  -39.3922 H         1 UNK         0.0600 
    162 H162        1.4459  -16.4003  -37.9108 H         1 UNK         0.0600 
    163 H163        0.3772  -15.1809  -38.5874 H         1 UNK         0.0600 
    164 H164        0.0527  -15.4888  -41.0370 H         1 UNK         0.3000 
    165 H165       -1.4439  -16.9493  -43.8642 H         1 UNK         0.0600 
    166 H166       -2.9207  -14.9519  -43.7635 H         1 UNK         0.0600 
    167 H167       -3.4505  -16.1864  -42.6313 H         1 UNK         0.0600 
    168 H168       -2.5803  -14.7771  -42.0417 H         1 UNK         0.0600 
    169 H169       -0.5859  -14.3350  -43.5968 H         1 UNK         0.3000 
    170 H170        2.9479  -14.7061  -44.0215 H         1 UNK         0.0600 
    171 H171        1.8729  -14.8747  -46.2496 H         1 UNK         0.0600 
    172 H172        0.6410  -13.7127  -45.7809 H         1 UNK         0.0600 
    173 H173        2.3241  -13.2114  -45.9083 H         1 UNK         0.0600 
    174 H174        0.9698  -12.5747  -43.5874 H         1 UNK         0.3000 
    175 H175        1.7888  -12.1015  -40.1821 H         1 UNK         0.0600 
    176 H176        2.6409  -10.3435  -42.5473 H         1 UNK         0.0600 
    177 H177        2.4049   -9.8022  -40.8849 H         1 UNK         0.0600 
    178 H178        3.7037  -10.9201  -41.2690 H         1 UNK         0.0600 
    179 H179        0.2336  -10.5847  -42.0578 H         1 UNK         0.3000 
    180 H180       -2.7802  -12.4307  -41.7613 H         1 UNK         0.0600 
    181 H181       -2.0243   -9.6961  -40.6059 H         1 UNK         0.0600 
    182 H182       -2.7278  -11.0259  -39.6931 H         1 UNK         0.0600 
    183 H183       -3.6552  -10.2601  -40.9723 H         1 UNK         0.0600 
    184 H184       -2.3470  -10.0103  -43.0861 H         1 UNK         0.3000 
    185 H185       -2.6218  -10.2623  -45.5142 H         1 UNK         0.0600 
    186 H186        0.4646  -10.2765  -45.4328 H         1 UNK         0.0600 
    187 H187       -0.5154   -9.2142  -46.4407 H         1 UNK         0.0600 
    188 H188       -0.5649   -9.0542  -44.6939 H         1 UNK         0.0600 
    189 H189       -1.2126  -12.6449  -46.2512 H         1 UNK         0.3000 
    190 H190       -0.8302  -21.6230  -47.5463 H         1 UNK         0.3000 
    191 H191       -3.2729  -22.0307  -49.0184 H         1 UNK         0.0600 
    192 H192       -4.2391  -20.4912  -47.3478 H         1 UNK         0.0600 
    193 H193       -2.7001  -19.8582  -47.9037 H         1 UNK         0.0600 
    194 H194       -2.8167  -20.6385  -46.3261 H         1 UNK         0.0600 
    195 H195       -1.9205  -23.3279  -45.9885 H         1 UNK         0.3000 
    196 H196       -4.2510  -24.6953  -45.0919 H         1 UNK         0.0600 
    197 H197       -2.2203  -24.2584  -43.6810 H         1 UNK         0.0600 
    198 H198       -2.6869  -25.9536  -43.6658 H         1 UNK         0.0600 
    199 H199       -1.3145  -25.4356  -44.6313 H         1 UNK         0.0600 
    200 H200       -1.5801  -25.7317  -47.2574 H         1 UNK         0.3000 
    201 H201       -2.5537  -28.3932  -47.6792 H         1 UNK         0.0600 
    202 H202       -0.1808  -27.7924  -47.9894 H         1 UNK         0.0600 
    203 H203       -0.5908  -26.6796  -49.2917 H         1 UNK         0.0600 
    204 H204       -0.8349  -28.4109  -49.4986 H         1 UNK         0.0600 
    205 H205       -2.7719  -25.3919  -49.6716 H         1 UNK         0.3000 
    206 H206       -4.2908  -26.7055  -51.7655 H         1 UNK         0.0600 
    207 H207       -2.6563  -24.9485  -52.2811 H         1 UNK         0.0600 
    208 H208       -4.2546  -24.3915  -52.7563 H         1 UNK         0.0600 
    209 H209       -3.5197  -23.7939  -51.2740 H         1 UNK         0.0600 
    210 H210       -5.2242  -25.2814  -48.8135 H         1 UNK         0.3000 
    211 H211       -7.1103  -24.9868  -47.7562 H         1 UNK         0.0600 
    212 H212       -8.7384  -25.7850  -50.2198 H         1 UNK         0.0600 
    213 H213       -9.3007  -25.6933  -48.5608 H         1 UNK         0.0600 
    214 H214       -8.1211  -26.9135  -49.0114 H         1 UNK         0.0600 
    215 H215       -6.0134  -23.0920  -50.1523 H         1 UNK         0.3000 
    216 H216       -7.1268  -20.7225  -49.0733 H         1 UNK         0.0600 
    217 H217       -8.0830  -19.8388  -51.2409 H         1 UNK         0.0600 
    218 H218       -9.0190  -21.2089  -50.6699 H         1 UNK         0.0600 
    219 H219       -7.8672  -21.4177  -51.9876 H         1 UNK         0.0600 
    220 H220       -5.7801  -18.9147  -49.8062 H         1 UNK         0.3000 
    221 H221       -3.1053  -19.7044  -50.5547 H         1 UNK         0.0600 
    222 H222       -4.3332  -16.9137  -50.2330 H         1 UNK         0.0600 
    223 H223       -3.5868  -17.8527  -48.9437 H         1 UNK         0.0600 
    224 H224       -2.6162  -17.2889  -50.2955 H         1 UNK         0.0600 
    225 H225       -5.8674  -18.5777  -52.3430 H         1 UNK         0.3000 
    226 H226       -4.7151  -17.3262  -54.5693 H         1 UNK         0.0600 
    227 H227       -7.3335  -18.8960  -54.3089 H         1 UNK         0.0600 
    228 H228       -7.1102  -17.1710  -54.0179 H         1 UNK         0.0600 
    229 H229       -6.9289  -17.8191  -55.6404 H         1 UNK         0.0600 
    230 H230       -3.2216  -18.1412  -55.8445 H         1 UNK         0.3000 
    231 H231       -2.0537  -19.3291  -57.2696 H         1 UNK         0.0600 
    232 H232       -4.5387  -21.0473  -57.7635 H         1 UNK         0.0600 
    233 H233       -3.1548  -20.8687  -58.8308 H         1 UNK         0.0600 
    234 H234       -4.2103  -19.4979  -58.5388 H         1 UNK         0.0600 
    235 H235       -2.2980  -20.2705  -54.3602 H         1 UNK         0.3000 
    236 H236       -1.9132  -23.0794  -54.2811 H         1 UNK         0.0600 
    237 H237       -2.6137  -21.7818  -52.3289 H         1 UNK         0.0600 
    238 H238       -1.1165  -22.6133  -51.9511 H         1 UNK         0.0600 
    239 H239       -1.1058  -20.8869  -52.3089 H         1 UNK         0.0600 
    240 H240        0.2827  -20.6170  -55.2495 H         1 UNK         0.3000 
    241 H241        2.7254  -22.1928  -54.8896 H         1 UNK         0.0600 
    242 H242        1.1320  -23.2076  -58.4387 H         1 UNK         0.3800 
    243 H243        0.1541  -22.4856  -57.1886 H         1 UNK         0.3800 
    244 H244        3.8390  -20.3312  -56.1316 H         1 UNK         0.0800 
    245 H245        2.2994  -19.5551  -56.3846 H         1 UNK         0.0800 
    246 H246        1.8980  -17.3763  -54.7034 H         1 UNK         0.0800 
    247 H247        0.7763  -18.7066  -54.5466 H         1 UNK         0.0800 
@<TRIPOS>BOND
     1    1    2 1    
     2    1  127 1    
     3    1  128 1    
     4    1  129 1    
     5    2    3 2    
     6    2    4 am   BACKBONE|DICT|INTERRES
     7    4    5 1    
     8    4  130 1    
     9    5    6 1    
    10    5   65 1    
    11    5  131 1    
    12    6    7 1    
    13    6  132 1    
    14    6  133 1    
    15    7    8 1    
    16    8    9 1    
    17    8  134 1    
    18    8  135 1    
    19    9   10 ar   
    20    9   14 ar   
    21   10   11 ar   
    22   10  136 1    
    23   11   12 ar   
    24   11  126 1    
    25   12   13 ar   
    26   12  137 1    
    27   13   14 ar   
    28   13   15 1    
    29   14  138 1    
    30   15   16 1    
    31   15  139 1    
    32   15  140 1    
    33   16   17 1    
    34   17   18 1    
    35   17  141 1    
    36   17  142 1    
    37   18   19 1    
    38   18   67 1    
    39   18  143 1    
    40   19   20 am   BACKBONE|DICT|INTERRES
    41   19  144 1    
    42   20   21 2    
    43   20   22 1    
    44   22   23 1    
    45   22   24 1    
    46   22  145 1    
    47   23  146 1    
    48   23  147 1    
    49   23  148 1    
    50   24   25 am   BACKBONE|DICT|INTERRES
    51   24  149 1    
    52   25   26 2    
    53   25   27 1    
    54   27   28 1    
    55   27   29 1    
    56   27  150 1    
    57   28  151 1    
    58   28  152 1    
    59   28  153 1    
    60   29   30 am   BACKBONE|DICT|INTERRES
    61   29  154 1    
    62   30   31 2    
    63   30   32 1    
    64   32   33 1    
    65   32   34 1    
    66   32  155 1    
    67   33  156 1    
    68   33  157 1    
    69   33  158 1    
    70   34   35 am   BACKBONE|DICT|INTERRES
    71   34  159 1    
    72   35   36 2    
    73   35   37 1    
    74   37   38 1    
    75   37   39 1    
    76   37  160 1    
    77   38  161 1    
    78   38  162 1    
    79   38  163 1    
    80   39   40 am   BACKBONE|DICT|INTERRES
    81   39  164 1    
    82   40   41 2    
    83   40   42 1    
    84   42   43 1    
    85   42   44 1    
    86   42  165 1    
    87   43  166 1    
    88   43  167 1    
    89   43  168 1    
    90   44   45 am   BACKBONE|DICT|INTERRES
    91   44  169 1    
    92   45   46 2    
    93   45   47 1    
    94   47   48 1    
    95   47   49 1    
    96   47  170 1    
    97   48  171 1    
    98   48  172 1    
    99   48  173 1    
   100   49   50 am   BACKBONE|DICT|INTERRES
   101   49  174 1    
   102   50   51 2    
   103   50   52 1    
   104   52   53 1    
   105   52   54 1    
   106   52  175 1    
   107   53  176 1    
   108   53  177 1    
   109   53  178 1    
   110   54   55 am   BACKBONE|DICT|INTERRES
   111   54  179 1    
   112   55   56 2    
   113   55   57 1    
   114   57   58 1    
   115   57   59 1    
   116   57  180 1    
   117   58  181 1    
   118   58  182 1    
   119   58  183 1    
   120   59   60 am   BACKBONE|DICT|INTERRES
   121   59  184 1    
   122   60   61 2    
   123   60   62 1    
   124   62   63 1    
   125   62   64 1    
   126   62  185 1    
   127   63  186 1    
   128   63  187 1    
   129   63  188 1    
   130   64   65 am   BACKBONE|DICT|INTERRES
   131   64  189 1    
   132   65   66 2    
   133   67   68 2    
   134   67   69 am   BACKBONE|DICT|INTERRES
   135   69   70 1    
   136   69  190 1    
   137   70   71 1    
   138   70   72 1    
   139   70  191 1    
   140   71  192 1    
   141   71  193 1    
   142   71  194 1    
   143   72   73 2    
   144   72   74 am   BACKBONE|DICT|INTERRES
   145   74   75 1    
   146   74  195 1    
   147   75   76 1    
   148   75   77 1    
   149   75  196 1    
   150   76  197 1    
   151   76  198 1    
   152   76  199 1    
   153   77   78 2    
   154   77   79 am   BACKBONE|DICT|INTERRES
   155   79   80 1    
   156   79  200 1    
   157   80   81 1    
   158   80   82 1    
   159   80  201 1    
   160   81  202 1    
   161   81  203 1    
   162   81  204 1    
   163   82   83 2    
   164   82   84 am   BACKBONE|DICT|INTERRES
   165   84   85 1    
   166   84  205 1    
   167   85   86 1    
   168   85   87 1    
   169   85  206 1    
   170   86  207 1    
   171   86  208 1    
   172   86  209 1    
   173   87   88 2    
   174   87   89 am   BACKBONE|DICT|INTERRES
   175   89   90 1    
   176   89  210 1    
   177   90   91 1    
   178   90   92 1    
   179   90  211 1    
   180   91  212 1    
   181   91  213 1    
   182   91  214 1    
   183   92   93 2    
   184   92   94 am   BACKBONE|DICT|INTERRES
   185   94   95 1    
   186   94  215 1    
   187   95   96 1    
   188   95   97 1    
   189   95  216 1    
   190   96  217 1    
   191   96  218 1    
   192   96  219 1    
   193   97   98 2    
   194   97   99 am   BACKBONE|DICT|INTERRES
   195   99  100 1    
   196   99  220 1    
   197  100  101 1    
   198  100  102 1    
   199  100  221 1    
   200  101  222 1    
   201  101  223 1    
   202  101  224 1    
   203  102  103 2    
   204  102  104 am   BACKBONE|DICT|INTERRES
   205  104  105 1    
   206  104  225 1    
   207  105  106 1    
   208  105  107 1    
   209  105  226 1    
   210  106  227 1    
   211  106  228 1    
   212  106  229 1    
   213  107  108 2    
   214  107  109 am   BACKBONE|DICT|INTERRES
   215  109  110 1    
   216  109  230 1    
   217  110  111 1    
   218  110  112 1    
   219  110  231 1    
   220  111  232 1    
   221  111  233 1    
   222  111  234 1    
   223  112  113 2    
   224  112  114 am   BACKBONE|DICT|INTERRES
   225  114  115 1    
   226  114  235 1    
   227  115  116 1    
   228  115  117 1    
   229  115  236 1    
   230  116  237 1    
   231  116  238 1    
   232  116  239 1    
   233  117  118 2    
   234  117  119 am   BACKBONE|DICT|INTERRES
   235  119  120 1    
   236  119  240 1    
   237  120  121 1    
   238  120  124 1    
   239  120  241 1    
   240  121  122 am   BACKBONE|DICT|INTERRES
   241  121  123 2    
   242  122  242 1    
   243  122  243 1    
   244  124  125 1    
   245  124  244 1    
   246  124  245 1    
   247  125  126 1    
   248  126  246 1    
   249  126  247 1    
@<TRIPOS>SUBSTRUCTURE
     1 UNK         1 GROUP             0       ****    0 ROOT    
