@<TRIPOS>MOLECULE
3R540
247   249    1
SMALL
USER_CHARGES


@<TRIPOS>ATOM
      1 CA          7.1452  -17.1366  -48.0768 C.3       0 UNK        -0.1800 
      2 C           5.9184  -16.6055  -47.3493 C.2       0 UNK         0.5000 
      3 O           5.6662  -16.9987  -46.2134 O.2       0 UNK        -0.5000 
      4 N           5.1608  -15.7152  -48.0029 N.am      1 UNK        -0.5000 
      5 CA          3.9457  -15.0724  -47.4792 C.3       1 UNK         0.1400 
      6 C6          3.0854  -14.5295  -48.6527 C.3       23 UNK        -0.0398 
      7 S7          1.2871  -14.5450  -48.3414 S.3       23 UNK        -0.2404 
      8 C8          0.7941  -16.1658  -49.0072 C.3       23 UNK        -0.0205 
      9 C9         -0.6814  -16.2005  -49.3729 C.ar      23 UNK        -0.0193 
     10 C10        -1.0656  -16.1336  -50.7146 C.ar      23 UNK        -0.1150 
     11 C11        -2.4134  -16.2112  -51.0738 C.ar      23 UNK        -0.0193 
     12 C12        -3.3836  -16.3378  -50.0757 C.ar      23 UNK        -0.1150 
     13 C13        -3.0147  -16.4020  -48.7290 C.ar      23 UNK        -0.0193 
     14 C14        -1.6612  -16.3312  -48.3833 C.ar      23 UNK        -0.1150 
     15 C15        -4.0849  -16.5391  -47.6558 C.3       23 UNK        -0.0205 
     16 S16        -4.4798  -18.2814  -47.2959 S.3       23 UNK        -0.2404 
     17 C17        -3.0880  -18.7755  -46.2245 C.3       23 UNK        -0.0398 
     18 CA         -2.0004  -19.5698  -46.9860 C.3       11 UNK         0.1400 
     19 N          -0.6860  -19.4292  -46.3485 N.am      11 UNK        -0.5000 
     20 C           0.4722  -19.8445  -46.8794 C.2       10 UNK         0.5000 
     21 O           0.5574  -20.3750  -47.9860 O.2       10 UNK        -0.5000 
     22 CA          1.7362  -19.6812  -46.0218 C.3       10 UNK         0.1400 
     23 CB          2.4305  -18.3518  -46.3293 C.3       10 UNK        -0.1800 
     24 N           1.4389  -19.7513  -44.5921 N.am      10 UNK        -0.5000 
     25 C           1.3684  -20.8958  -43.9038 C.2       9 UNK         0.5000 
     26 O           1.5702  -22.0063  -44.3961 O.2       9 UNK        -0.5000 
     27 CA          0.9889  -20.7824  -42.4162 C.3       9 UNK         0.1400 
     28 CB          2.1971  -20.3214  -41.5858 C.3       9 UNK        -0.1800 
     29 N          -0.1531  -19.9077  -42.1279 N.am      9 UNK        -0.5000 
     30 C          -1.3722  -20.0032  -42.6771 C.2       8 UNK         0.5000 
     31 O          -1.6472  -20.7274  -43.6323 O.2       8 UNK        -0.5000 
     32 CA         -2.4772  -19.1578  -42.0368 C.3       8 UNK         0.1400 
     33 CB         -2.8248  -19.7076  -40.6372 C.3       8 UNK        -0.1800 
     34 N          -2.1038  -17.7443  -41.9804 N.am      8 UNK        -0.5000 
     35 C          -2.9655  -16.7538  -41.7040 C.2       7 UNK         0.5000 
     36 O          -4.1588  -16.9352  -41.4572 O.2       7 UNK        -0.5000 
     37 CA         -2.4238  -15.3114  -41.7047 C.3       7 UNK         0.1400 
     38 CB         -1.9890  -14.9038  -40.2889 C.3       7 UNK        -0.1800 
     39 N          -1.3116  -15.0916  -42.6275 N.am      7 UNK        -0.5000 
     40 C          -1.3907  -15.1897  -43.9633 C.2       6 UNK         0.5000 
     41 O          -2.4234  -15.4804  -44.5646 O.2       6 UNK        -0.5000 
     42 CA         -0.1089  -14.9072  -44.7723 C.3       6 UNK         0.1400 
     43 CB         -0.1501  -13.4551  -45.2742 C.3       6 UNK        -0.1800 
     44 N           1.1365  -15.1068  -44.0307 N.am      6 UNK        -0.5000 
     45 C           1.5130  -16.2128  -43.3738 C.2       5 UNK         0.5000 
     46 O           0.8752  -17.2669  -43.3885 O.2       5 UNK        -0.5000 
     47 CA          2.7804  -16.1028  -42.5041 C.3       5 UNK         0.1400 
     48 CB          3.9835  -16.7229  -43.2215 C.3       5 UNK        -0.1800 
     49 N           3.0990  -14.7236  -42.1169 N.am      5 UNK        -0.5000 
     50 C           2.3298  -13.9629  -41.3214 C.2       4 UNK         0.5000 
     51 O           1.2724  -14.3661  -40.8340 O.2       4 UNK        -0.5000 
     52 CA          2.7590  -12.5004  -41.0758 C.3       4 UNK         0.1400 
     53 CB          2.5240  -12.0593  -39.6159 C.3       4 UNK        -0.1800 
     54 N           4.1210  -12.1770  -41.5175 N.am      4 UNK        -0.5000 
     55 C           5.2811  -12.6272  -41.0161 C.2       3 UNK         0.5000 
     56 O           5.3657  -13.4128  -40.0710 O.2       3 UNK        -0.5000 
     57 CA          6.5554  -12.1041  -41.7143 C.3       3 UNK         0.1400 
     58 CB          7.8099  -12.9442  -41.3930 C.3       3 UNK        -0.1800 
     59 N           6.3905  -11.9417  -43.1670 N.am      3 UNK        -0.5000 
     60 C           6.1192  -12.9071  -44.0584 C.2       2 UNK         0.5000 
     61 O           5.9596  -14.0908  -43.7553 O.2       2 UNK        -0.5000 
     62 CA          6.0294  -12.4514  -45.5308 C.3       2 UNK         0.1400 
     63 CB          7.4131  -12.0274  -46.0525 C.3       2 UNK        -0.1800 
     64 N           5.4995  -13.4736  -46.4345 N.am      2 UNK        -0.5000 
     65 C           4.2571  -13.9780  -46.4263 C.2       1 UNK         0.5000 
     66 O           3.3817  -13.6133  -45.6397 O.2       1 UNK        -0.5000 
     67 C          -2.3880  -21.0521  -47.1797 C.2       11 UNK         0.5000 
     68 O          -2.9374  -21.4145  -48.2202 O.2       11 UNK        -0.5000 
     69 N          -2.0111  -21.8981  -46.2120 N.am      12 UNK        -0.5000 
     70 CA         -2.1412  -23.3547  -46.2490 C.3       12 UNK         0.1400 
     71 CB         -1.7464  -23.9173  -44.8752 C.3       12 UNK        -0.1800 
     72 C          -1.3280  -24.0415  -47.3679 C.2       12 UNK         0.5000 
     73 O          -1.6283  -25.1892  -47.6957 O.2       12 UNK        -0.5000 
     74 N          -0.3338  -23.3453  -47.9351 N.am      13 UNK        -0.5000 
     75 CA          0.4416  -23.7967  -49.0880 C.3       13 UNK         0.1400 
     76 CB          1.9334  -23.5236  -48.8358 C.3       13 UNK        -0.1800 
     77 C          -0.0309  -23.1032  -50.3770 C.2       13 UNK         0.5000 
     78 O          -0.2111  -23.7770  -51.3911 O.2       13 UNK        -0.5000 
     79 N          -0.2034  -21.7744  -50.3234 N.am      14 UNK        -0.5000 
     80 CA         -0.5420  -20.9322  -51.4701 C.3       14 UNK         0.1400 
     81 CB         -0.2923  -19.4596  -51.1121 C.3       14 UNK        -0.1800 
     82 C          -1.9809  -21.1365  -51.9695 C.2       14 UNK         0.5000 
     83 O          -2.1809  -21.3943  -53.1568 O.2       14 UNK        -0.5000 
     84 N          -2.9556  -21.0165  -51.0608 N.am      15 UNK        -0.5000 
     85 CA         -4.3710  -21.2179  -51.3554 C.3       15 UNK         0.1400 
     86 CB         -5.2290  -20.2893  -50.4836 C.3       15 UNK        -0.1800 
     87 C          -4.7521  -22.6866  -51.1368 C.2       15 UNK         0.5000 
     88 O          -5.4291  -23.2694  -51.9870 O.2       15 UNK        -0.5000 
     89 N          -4.2922  -23.2555  -50.0121 N.am      16 UNK        -0.5000 
     90 CA         -4.4542  -24.6534  -49.5987 C.3       16 UNK         0.1400 
     91 CB         -3.5931  -25.5716  -50.4905 C.3       16 UNK        -0.1800 
     92 C          -5.9316  -25.0889  -49.5391 C.2       16 UNK         0.5000 
     93 O          -6.2977  -26.1158  -50.1092 O.2       16 UNK        -0.5000 
     94 N          -6.7694  -24.2554  -48.9028 N.am      17 UNK        -0.5000 
     95 CA         -8.2312  -24.3952  -48.8070 C.3       17 UNK         0.1400 
     96 CB         -8.6096  -25.6082  -47.9312 C.3       17 UNK        -0.1800 
     97 C          -8.9238  -24.4092  -50.1902 C.2       17 UNK         0.5000 
     98 O          -9.9096  -25.1206  -50.3883 O.2       17 UNK        -0.5000 
     99 N          -8.3631  -23.6227  -51.1203 N.am      18 UNK        -0.5000 
    100 CA        -8.7301  -23.4744  -52.5311 C.3       18 UNK         0.1400 
    101 CB       -10.1911  -23.0066  -52.6966 C.3       18 UNK        -0.1800 
    102 C         -8.3861  -24.6962  -53.4102 C.2       18 UNK         0.5000 
    103 O         -8.8663  -24.7699  -54.5422 O.2       18 UNK        -0.5000 
    104 N         -7.5384  -25.6138  -52.9182 N.am      19 UNK        -0.5000 
    105 CA        -6.9973  -26.7194  -53.7139 C.3       19 UNK         0.1400 
    106 CB        -6.4610  -27.8229  -52.7903 C.3       19 UNK        -0.1800 
    107 C         -5.8968  -26.2434  -54.6802 C.2       19 UNK         0.5000 
    108 O         -5.8190  -26.7458  -55.8020 O.2       19 UNK        -0.5000 
    109 N         -5.0820  -25.2779  -54.2334 N.am      20 UNK        -0.5000 
    110 CA        -4.0529  -24.6180  -55.0386 C.3       20 UNK         0.1400 
    111 CB        -2.7806  -24.4551  -54.1946 C.3       20 UNK        -0.1800 
    112 C         -4.5537  -23.2604  -55.5627 C.2       20 UNK         0.5000 
    113 O         -4.2229  -22.8826  -56.6882 O.2       20 UNK        -0.5000 
    114 N         -5.3631  -22.5686  -54.7446 N.am      21 UNK        -0.5000 
    115 CA        -6.1083  -21.3387  -55.0398 C.3       21 UNK         0.1400 
    116 CB        -7.2568  -21.6460  -56.0224 C.3       21 UNK        -0.1800 
    117 C         -5.2439  -20.1458  -55.5044 C.2       21 UNK         0.5000 
    118 O         -5.7552  -19.2577  -56.1889 O.2       21 UNK        -0.5000 
    119 N         -3.9584  -20.1396  -55.1264 N.am      22 UNK        -0.5000 
    120 CA        -2.9530  -19.1249  -55.4865 C.3       22 UNK         0.1400 
    121 C         -2.5980  -19.0879  -57.0050 C.2       22 UNK         0.5000 
    122 N         -2.8691  -20.1412  -57.7691 N.am      22 UNK        -0.7600 
    123 O         -2.0408  -18.1098  -57.4964 O.2       22 UNK        -0.5000 
    124 C124       -3.2639  -17.7241  -54.8846 C.3       23 UNK        -0.0398 
    125 S125       -3.4343  -17.8060  -53.0678 S.3       23 UNK        -0.2404 
    126 C126       -2.8159  -16.1805  -52.5400 C.3       23 UNK        -0.0205 
    127 H127        8.0471  -16.8999  -47.5121 H         1 UNK         0.0600 
    128 H128        7.2452  -16.7066  -49.0737 H         1 UNK         0.0600 
    129 H129        7.0802  -18.2198  -48.1787 H         1 UNK         0.0600 
    130 H130        5.4314  -15.4412  -48.9370 H         1 UNK         0.3000 
    131 H131        3.3724  -15.8419  -46.9622 H         1 UNK         0.0600 
    132 H132        3.2624  -15.1136  -49.5566 H         1 UNK         0.0800 
    133 H133        3.3808  -13.5123  -48.9171 H         1 UNK         0.0800 
    134 H134        0.9963  -16.9390  -48.2694 H         1 UNK         0.0800 
    135 H135        1.3974  -16.4127  -49.8818 H         1 UNK         0.0800 
    136 H136       -0.3110  -16.0421  -51.4831 H         1 UNK         0.1150 
    137 H137       -4.4269  -16.4036  -50.3512 H         1 UNK         0.1150 
    138 H138       -1.3711  -16.3870  -47.3451 H         1 UNK         0.1150 
    139 H139       -3.7826  -16.0235  -46.7442 H         1 UNK         0.0800 
    140 H140       -4.9970  -16.0412  -47.9878 H         1 UNK         0.0800 
    141 H141       -3.4773  -19.3462  -45.3795 H         1 UNK         0.0800 
    142 H142       -2.6598  -17.8735  -45.7873 H         1 UNK         0.0800 
    143 H143       -1.8999  -19.1405  -47.9846 H         1 UNK         0.0600 
    144 H144       -0.6728  -19.0647  -45.4078 H         1 UNK         0.3000 
    145 H145        2.4252  -20.4850  -46.2906 H         1 UNK         0.0600 
    146 H146        3.3443  -18.2483  -45.7468 H         1 UNK         0.0600 
    147 H147        2.7147  -18.2943  -47.3806 H         1 UNK         0.0600 
    148 H148        1.7896  -17.4993  -46.1041 H         1 UNK         0.0600 
    149 H149        1.2416  -18.8758  -44.1103 H         1 UNK         0.3000 
    150 H150        0.7132  -21.7840  -42.0801 H         1 UNK         0.0600 
    151 H151        3.0658  -20.9544  -41.7719 H         1 UNK         0.0600 
    152 H152        1.9843  -20.3707  -40.5179 H         1 UNK         0.0600 
    153 H153        2.4807  -19.2959  -41.8242 H         1 UNK         0.0600 
    154 H154       -0.0284  -19.2682  -41.3577 H         1 UNK         0.3000 
    155 H155       -3.3601  -19.2516  -42.6730 H         1 UNK         0.0600 
    156 H156       -2.0205  -19.5309  -39.9224 H         1 UNK         0.0600 
    157 H157       -3.0029  -20.7833  -40.6722 H         1 UNK         0.0600 
    158 H158       -3.7299  -19.2512  -40.2376 H         1 UNK         0.0600 
    159 H159       -1.1534  -17.5115  -42.2431 H         1 UNK         0.3000 
    160 H160       -3.2411  -14.6552  -42.0111 H         1 UNK         0.0600 
    161 H161       -1.6697  -13.8619  -40.2577 H         1 UNK         0.0600 
    162 H162       -1.1616  -15.5180  -39.9312 H         1 UNK         0.0600 
    163 H163       -2.8105  -15.0137  -39.5799 H         1 UNK         0.0600 
    164 H164       -0.4221  -14.8492  -42.2081 H         1 UNK         0.3000 
    165 H165       -0.0889  -15.5819  -45.6285 H         1 UNK         0.0600 
    166 H166       -0.2337  -12.7472  -44.4486 H         1 UNK         0.0600 
    167 H167        0.7453  -13.1964  -45.8368 H         1 UNK         0.0600 
    168 H168       -1.0039  -13.2953  -45.9341 H         1 UNK         0.0600 
    169 H169        1.7707  -14.3194  -44.0160 H         1 UNK         0.3000 
    170 H170        2.5986  -16.6721  -41.5905 H         1 UNK         0.0600 
    171 H171        3.8071  -17.7747  -43.4481 H         1 UNK         0.0600 
    172 H172        4.1896  -16.2108  -44.1614 H         1 UNK         0.0600 
    173 H173        4.8830  -16.6692  -42.6081 H         1 UNK         0.0600 
    174 H174        3.9519  -14.3331  -42.4972 H         1 UNK         0.3000 
    175 H175        2.0995  -11.8982  -41.7022 H         1 UNK         0.0600 
    176 H176        3.0852  -12.6720  -38.9101 H         1 UNK         0.0600 
    177 H177        2.8154  -11.0198  -39.4654 H         1 UNK         0.0600 
    178 H178        1.4700  -12.1403  -39.3474 H         1 UNK         0.0600 
    179 H179        4.1771  -11.5499  -42.3079 H         1 UNK         0.3000 
    180 H180        6.7244  -11.1036  -41.3137 H         1 UNK         0.0600 
    181 H181        7.6933  -13.9837  -41.7008 H         1 UNK         0.0600 
    182 H182        8.0174  -12.9430  -40.3223 H         1 UNK         0.0600 
    183 H183        8.6915  -12.5432  -41.8931 H         1 UNK         0.0600 
    184 H184        6.5056  -10.9972  -43.5084 H         1 UNK         0.3000 
    185 H185        5.3589  -11.5908  -45.5734 H         1 UNK         0.0600 
    186 H186        7.8346  -11.2174  -45.4561 H         1 UNK         0.0600 
    187 H187        8.1220  -12.8561  -46.0261 H         1 UNK         0.0600 
    188 H188        7.3547  -11.6690  -47.0805 H         1 UNK         0.0600 
    189 H189        6.1577  -13.8728  -47.0861 H         1 UNK         0.3000 
    190 H190       -1.6214  -21.5067  -45.3578 H         1 UNK         0.3000 
    191 H191       -3.1932  -23.5874  -46.4244 H         1 UNK         0.0600 
    192 H192       -0.7088  -23.6853  -44.6314 H         1 UNK         0.0600 
    193 H193       -1.8575  -25.0020  -44.8467 H         1 UNK         0.0600 
    194 H194       -2.3749  -23.5059  -44.0850 H         1 UNK         0.0600 
    195 H195       -0.1611  -22.4004  -47.6191 H         1 UNK         0.3000 
    196 H196        0.3234  -24.8732  -49.2289 H         1 UNK         0.0600 
    197 H197        2.5386  -23.8609  -49.6781 H         1 UNK         0.0600 
    198 H198        2.2843  -24.0537  -47.9502 H         1 UNK         0.0600 
    199 H199        2.1366  -22.4623  -48.6905 H         1 UNK         0.0600 
    200 H200        0.0094  -21.2850  -49.4573 H         1 UNK         0.3000 
    201 H201        0.1311  -21.1942  -52.2892 H         1 UNK         0.0600 
    202 H202        0.7483  -19.2892  -50.8361 H         1 UNK         0.0600 
    203 H203       -0.9149  -19.1357  -50.2774 H         1 UNK         0.0600 
    204 H204       -0.5163  -18.8102  -51.9593 H         1 UNK         0.0600 
    205 H205       -2.7140  -20.8788  -50.0856 H         1 UNK         0.3000 
    206 H206       -4.5695  -20.9630  -52.3970 H         1 UNK         0.0600 
    207 H207       -4.9466  -19.2459  -50.6265 H         1 UNK         0.0600 
    208 H208       -6.2846  -20.3788  -50.7423 H         1 UNK         0.0600 
    209 H209       -5.1320  -20.5155  -49.4219 H         1 UNK         0.0600 
    210 H210       -3.7659  -22.6641  -49.3734 H         1 UNK         0.3000 
    211 H211       -4.0792  -24.7260  -48.5787 H         1 UNK         0.0600 
    212 H212       -3.9428  -25.5825  -51.5224 H         1 UNK         0.0600 
    213 H213       -3.6125  -26.5993  -50.1265 H         1 UNK         0.0600 
    214 H214       -2.5516  -25.2501  -50.4946 H         1 UNK         0.0600 
    215 H215       -6.3795  -23.4236  -48.4818 H         1 UNK         0.3000 
    216 H216       -8.5924  -23.4997  -48.2994 H         1 UNK         0.0600 
    217 H217       -9.6833  -25.6338  -47.7417 H         1 UNK         0.0600 
    218 H218       -8.1117  -25.5655  -46.9625 H         1 UNK         0.0600 
    219 H219       -8.3400  -26.5522  -48.4057 H         1 UNK         0.0600 
    220 H220       -7.5199  -23.1338  -50.8552 H         1 UNK         0.3000 
    221 H221       -8.0976  -22.6687  -52.9050 H         1 UNK         0.0600 
    222 H222      -10.9019  -23.7930  -52.4426 H         1 UNK         0.0600 
    223 H223      -10.4036  -22.1430  -52.0665 H         1 UNK         0.0600 
    224 H224      -10.3914  -22.7105  -53.7270 H         1 UNK         0.0600 
    225 H225       -7.1919  -25.5197  -51.9704 H         1 UNK         0.3000 
    226 H226       -7.8068  -27.1488  -54.3082 H         1 UNK         0.0600 
    227 H227       -7.2166  -28.1409  -52.0717 H         1 UNK         0.0600 
    228 H228       -6.1682  -28.7012  -53.3667 H         1 UNK         0.0600 
    229 H229       -5.5835  -27.4941  -52.2332 H         1 UNK         0.0600 
    230 H230       -5.2421  -24.8997  -53.3074 H         1 UNK         0.3000 
    231 H231       -3.7986  -25.2300  -55.9065 H         1 UNK         0.0600 
    232 H232       -2.3570  -25.4247  -53.9331 H         1 UNK         0.0600 
    233 H233       -2.9754  -23.9211  -53.2653 H         1 UNK         0.0600 
    234 H234       -2.0146  -23.9003  -54.7380 H         1 UNK         0.0600 
    235 H235       -5.5023  -22.9401  -53.8097 H         1 UNK         0.3000 
    236 H236       -6.5580  -21.0260  -54.0967 H         1 UNK         0.0600 
    237 H237       -6.8793  -21.9130  -57.0099 H         1 UNK         0.0600 
    238 H238       -7.8725  -22.4711  -55.6665 H         1 UNK         0.0600 
    239 H239       -7.9150  -20.7850  -56.1439 H         1 UNK         0.0600 
    240 H240       -3.6035  -20.8954  -54.5510 H         1 UNK         0.3000 
    241 H241       -2.0286  -19.4637  -55.0183 H         1 UNK         0.0600 
    242 H242       -3.3204  -20.9593  -57.3785 H         1 UNK         0.3800 
    243 H243       -2.6299  -20.1205  -58.7478 H         1 UNK         0.3800 
    244 H244       -4.1764  -17.3055  -55.3100 H         1 UNK         0.0800 
    245 H245       -2.4634  -17.0251  -55.1300 H         1 UNK         0.0800 
    246 H246       -3.5899  -15.4280  -52.6967 H         1 UNK         0.0800 
    247 H247       -1.9654  -15.8884  -53.1575 H         1 UNK         0.0800 
@<TRIPOS>BOND
     1    1    2 1    
     2    1  127 1    
     3    1  128 1    
     4    1  129 1    
     5    2    3 2    
     6    2    4 am   BACKBONE|DICT|INTERRES
     7    4    5 1    
     8    4  130 1    
     9    5    6 1    
    10    5   65 1    
    11    5  131 1    
    12    6    7 1    
    13    6  132 1    
    14    6  133 1    
    15    7    8 1    
    16    8    9 1    
    17    8  134 1    
    18    8  135 1    
    19    9   10 ar   
    20    9   14 ar   
    21   10   11 ar   
    22   10  136 1    
    23   11   12 ar   
    24   11  126 1    
    25   12   13 ar   
    26   12  137 1    
    27   13   14 ar   
    28   13   15 1    
    29   14  138 1    
    30   15   16 1    
    31   15  139 1    
    32   15  140 1    
    33   16   17 1    
    34   17   18 1    
    35   17  141 1    
    36   17  142 1    
    37   18   19 1    
    38   18   67 1    
    39   18  143 1    
    40   19   20 am   BACKBONE|DICT|INTERRES
    41   19  144 1    
    42   20   21 2    
    43   20   22 1    
    44   22   23 1    
    45   22   24 1    
    46   22  145 1    
    47   23  146 1    
    48   23  147 1    
    49   23  148 1    
    50   24   25 am   BACKBONE|DICT|INTERRES
    51   24  149 1    
    52   25   26 2    
    53   25   27 1    
    54   27   28 1    
    55   27   29 1    
    56   27  150 1    
    57   28  151 1    
    58   28  152 1    
    59   28  153 1    
    60   29   30 am   BACKBONE|DICT|INTERRES
    61   29  154 1    
    62   30   31 2    
    63   30   32 1    
    64   32   33 1    
    65   32   34 1    
    66   32  155 1    
    67   33  156 1    
    68   33  157 1    
    69   33  158 1    
    70   34   35 am   BACKBONE|DICT|INTERRES
    71   34  159 1    
    72   35   36 2    
    73   35   37 1    
    74   37   38 1    
    75   37   39 1    
    76   37  160 1    
    77   38  161 1    
    78   38  162 1    
    79   38  163 1    
    80   39   40 am   BACKBONE|DICT|INTERRES
    81   39  164 1    
    82   40   41 2    
    83   40   42 1    
    84   42   43 1    
    85   42   44 1    
    86   42  165 1    
    87   43  166 1    
    88   43  167 1    
    89   43  168 1    
    90   44   45 am   BACKBONE|DICT|INTERRES
    91   44  169 1    
    92   45   46 2    
    93   45   47 1    
    94   47   48 1    
    95   47   49 1    
    96   47  170 1    
    97   48  171 1    
    98   48  172 1    
    99   48  173 1    
   100   49   50 am   BACKBONE|DICT|INTERRES
   101   49  174 1    
   102   50   51 2    
   103   50   52 1    
   104   52   53 1    
   105   52   54 1    
   106   52  175 1    
   107   53  176 1    
   108   53  177 1    
   109   53  178 1    
   110   54   55 am   BACKBONE|DICT|INTERRES
   111   54  179 1    
   112   55   56 2    
   113   55   57 1    
   114   57   58 1    
   115   57   59 1    
   116   57  180 1    
   117   58  181 1    
   118   58  182 1    
   119   58  183 1    
   120   59   60 am   BACKBONE|DICT|INTERRES
   121   59  184 1    
   122   60   61 2    
   123   60   62 1    
   124   62   63 1    
   125   62   64 1    
   126   62  185 1    
   127   63  186 1    
   128   63  187 1    
   129   63  188 1    
   130   64   65 am   BACKBONE|DICT|INTERRES
   131   64  189 1    
   132   65   66 2    
   133   67   68 2    
   134   67   69 am   BACKBONE|DICT|INTERRES
   135   69   70 1    
   136   69  190 1    
   137   70   71 1    
   138   70   72 1    
   139   70  191 1    
   140   71  192 1    
   141   71  193 1    
   142   71  194 1    
   143   72   73 2    
   144   72   74 am   BACKBONE|DICT|INTERRES
   145   74   75 1    
   146   74  195 1    
   147   75   76 1    
   148   75   77 1    
   149   75  196 1    
   150   76  197 1    
   151   76  198 1    
   152   76  199 1    
   153   77   78 2    
   154   77   79 am   BACKBONE|DICT|INTERRES
   155   79   80 1    
   156   79  200 1    
   157   80   81 1    
   158   80   82 1    
   159   80  201 1    
   160   81  202 1    
   161   81  203 1    
   162   81  204 1    
   163   82   83 2    
   164   82   84 am   BACKBONE|DICT|INTERRES
   165   84   85 1    
   166   84  205 1    
   167   85   86 1    
   168   85   87 1    
   169   85  206 1    
   170   86  207 1    
   171   86  208 1    
   172   86  209 1    
   173   87   88 2    
   174   87   89 am   BACKBONE|DICT|INTERRES
   175   89   90 1    
   176   89  210 1    
   177   90   91 1    
   178   90   92 1    
   179   90  211 1    
   180   91  212 1    
   181   91  213 1    
   182   91  214 1    
   183   92   93 2    
   184   92   94 am   BACKBONE|DICT|INTERRES
   185   94   95 1    
   186   94  215 1    
   187   95   96 1    
   188   95   97 1    
   189   95  216 1    
   190   96  217 1    
   191   96  218 1    
   192   96  219 1    
   193   97   98 2    
   194   97   99 am   BACKBONE|DICT|INTERRES
   195   99  100 1    
   196   99  220 1    
   197  100  101 1    
   198  100  102 1    
   199  100  221 1    
   200  101  222 1    
   201  101  223 1    
   202  101  224 1    
   203  102  103 2    
   204  102  104 am   BACKBONE|DICT|INTERRES
   205  104  105 1    
   206  104  225 1    
   207  105  106 1    
   208  105  107 1    
   209  105  226 1    
   210  106  227 1    
   211  106  228 1    
   212  106  229 1    
   213  107  108 2    
   214  107  109 am   BACKBONE|DICT|INTERRES
   215  109  110 1    
   216  109  230 1    
   217  110  111 1    
   218  110  112 1    
   219  110  231 1    
   220  111  232 1    
   221  111  233 1    
   222  111  234 1    
   223  112  113 2    
   224  112  114 am   BACKBONE|DICT|INTERRES
   225  114  115 1    
   226  114  235 1    
   227  115  116 1    
   228  115  117 1    
   229  115  236 1    
   230  116  237 1    
   231  116  238 1    
   232  116  239 1    
   233  117  118 2    
   234  117  119 am   BACKBONE|DICT|INTERRES
   235  119  120 1    
   236  119  240 1    
   237  120  121 1    
   238  120  124 1    
   239  120  241 1    
   240  121  122 am   BACKBONE|DICT|INTERRES
   241  121  123 2    
   242  122  242 1    
   243  122  243 1    
   244  124  125 1    
   245  124  244 1    
   246  124  245 1    
   247  125  126 1    
   248  126  246 1    
   249  126  247 1    
@<TRIPOS>SUBSTRUCTURE
     1 UNK         1 GROUP             0       ****    0 ROOT    
