@<TRIPOS>MOLECULE
3R540
247   249    1
SMALL
USER_CHARGES


@<TRIPOS>ATOM
      1 CA          2.8294  -12.7313  -51.1820 C.3       0 UNK        -0.1800 
      2 C           4.0859  -13.1815  -50.4389 C.2       0 UNK         0.5000 
      3 O           5.1807  -13.0044  -50.9702 O.2       0 UNK        -0.5000 
      4 N           4.0147  -13.7792  -49.2393 N.am      1 UNK        -0.5000 
      5 CA          2.8628  -14.0424  -48.3651 C.3       1 UNK         0.1400 
      6 C6          1.6805  -14.7717  -49.0632 C.3       23 UNK        -0.0398 
      7 S7          0.6278  -15.7034  -47.9019 S.3       23 UNK        -0.2404 
      8 C8         -0.4782  -16.5719  -49.0603 C.3       23 UNK        -0.0205 
      9 C9          0.0466  -17.8805  -49.6598 C.ar      23 UNK        -0.0193 
     10 C10        -0.7663  -18.5271  -50.5929 C.ar      23 UNK        -0.1150 
     11 C11        -0.3611  -19.7127  -51.2153 C.ar      23 UNK        -0.0193 
     12 C12         0.8760  -20.2661  -50.8757 C.ar      23 UNK        -0.1150 
     13 C13         1.6999  -19.6493  -49.9293 C.ar      23 UNK        -0.0193 
     14 C14         1.2794  -18.4593  -49.3228 C.ar      23 UNK        -0.1150 
     15 C15         3.0663  -20.2440  -49.6042 C.3       23 UNK        -0.0205 
     16 S16         2.9752  -21.8876  -48.8152 S.3       23 UNK        -0.2404 
     17 C17         2.4082  -21.4646  -47.1331 C.3       23 UNK        -0.0398 
     18 CA          1.2629  -22.3672  -46.6096 C.3       11 UNK         0.1400 
     19 N           1.0146  -22.1589  -45.1783 N.am      11 UNK        -0.5000 
     20 C           0.1538  -22.8655  -44.4296 C.2       10 UNK         0.5000 
     21 O          -0.4762  -23.8363  -44.8447 O.2       10 UNK        -0.5000 
     22 CA         -0.0928  -22.3767  -42.9907 C.3       10 UNK         0.1400 
     23 CB          0.9941  -22.8967  -42.0389 C.3       10 UNK        -0.1800 
     24 N          -0.1828  -20.9187  -42.9021 N.am      10 UNK        -0.5000 
     25 C          -1.1409  -20.1819  -43.4844 C.2       9 UNK         0.5000 
     26 O          -2.0962  -20.6665  -44.0916 O.2       9 UNK        -0.5000 
     27 CA         -0.9709  -18.6503  -43.4316 C.3       9 UNK         0.1400 
     28 CB         -1.4594  -18.0817  -42.0914 C.3       9 UNK        -0.1800 
     29 N           0.4143  -18.2390  -43.6636 N.am      9 UNK        -0.5000 
     30 C           1.0828  -18.4498  -44.8060 C.2       8 UNK         0.5000 
     31 O           0.5687  -18.9344  -45.8127 O.2       8 UNK        -0.5000 
     32 CA          2.5912  -18.1433  -44.7983 C.3       8 UNK         0.1400 
     33 CB          2.8703  -16.6653  -45.0888 C.3       8 UNK        -0.1800 
     34 N           3.2046  -18.5097  -43.5238 N.am      8 UNK        -0.5000 
     35 C           3.4813  -19.7685  -43.1604 C.2       7 UNK         0.5000 
     36 O           3.2656  -20.7449  -43.8775 O.2       7 UNK        -0.5000 
     37 CA          4.0685  -19.9720  -41.7513 C.3       7 UNK         0.1400 
     38 CB          5.5982  -19.8387  -41.7810 C.3       7 UNK        -0.1800 
     39 N           3.5203  -19.0352  -40.7688 N.am      7 UNK        -0.5000 
     40 C           2.2486  -19.0451  -40.3459 C.2       6 UNK         0.5000 
     41 O           1.4137  -19.8688  -40.7168 O.2       6 UNK        -0.5000 
     42 CA          1.8263  -17.9157  -39.3878 C.3       6 UNK         0.1400 
     43 CB          2.1260  -18.3026  -37.9321 C.3       6 UNK        -0.1800 
     44 N           2.4517  -16.6233  -39.6867 N.am      6 UNK        -0.5000 
     45 C           2.3158  -15.9587  -40.8415 C.2       5 UNK         0.5000 
     46 O           1.6813  -16.3890  -41.8057 O.2       5 UNK        -0.5000 
     47 CA          3.0059  -14.5902  -40.9352 C.3       5 UNK         0.1400 
     48 CB          3.8718  -14.4735  -42.1999 C.3       5 UNK        -0.1800 
     49 N           1.9976  -13.5368  -40.9463 N.am      5 UNK        -0.5000 
     50 C           1.4529  -12.9985  -39.8471 C.2       4 UNK         0.5000 
     51 O           1.7769  -13.3187  -38.7025 O.2       4 UNK        -0.5000 
     52 CA          0.3821  -11.9079  -40.0467 C.3       4 UNK         0.1400 
     53 CB          0.9935  -10.5144  -39.8322 C.3       4 UNK        -0.1800 
     54 N          -0.2455  -11.9453  -41.3680 N.am      4 UNK        -0.5000 
     55 C          -1.1818  -12.8264  -41.7456 C.2       3 UNK         0.5000 
     56 O          -1.6410  -13.6964  -41.0051 O.2       3 UNK        -0.5000 
     57 CA         -1.6895  -12.7150  -43.1972 C.3       3 UNK         0.1400 
     58 CB         -2.9809  -11.8843  -43.2523 C.3       3 UNK        -0.1800 
     59 N          -0.7063  -12.1340  -44.1189 N.am      3 UNK        -0.5000 
     60 C           0.4195  -12.7520  -44.4948 C.2       2 UNK         0.5000 
     61 O           0.7624  -13.8586  -44.0763 O.2       2 UNK        -0.5000 
     62 CA          1.3324  -12.0094  -45.4762 C.3       2 UNK         0.1400 
     63 CB          2.4391  -11.2485  -44.7242 C.3       2 UNK        -0.1800 
     64 N           1.9137  -13.0074  -46.3644 N.am      2 UNK        -0.5000 
     65 C           2.4220  -12.7852  -47.5796 C.2       1 UNK         0.5000 
     66 O           2.5387  -11.6603  -48.0702 O.2       1 UNK        -0.5000 
     67 C          -0.0310  -22.2104  -47.4352 C.2       11 UNK         0.5000 
     68 O          -0.3628  -23.1066  -48.2104 O.2       11 UNK        -0.5000 
     69 N          -0.7668  -21.1144  -47.2022 N.am      12 UNK        -0.5000 
     70 CA         -2.0508  -20.8190  -47.8383 C.3       12 UNK         0.1400 
     71 CB         -2.5385  -19.4397  -47.3731 C.3       12 UNK        -0.1800 
     72 C          -3.1233  -21.8879  -47.5620 C.2       12 UNK         0.5000 
     73 O          -3.8509  -22.2723  -48.4794 O.2       12 UNK        -0.5000 
     74 N          -3.1839  -22.3627  -46.3105 N.am      13 UNK        -0.5000 
     75 CA         -4.0750  -23.4345  -45.8731 C.3       13 UNK         0.1400 
     76 CB         -4.0709  -23.5126  -44.3388 C.3       13 UNK        -0.1800 
     77 C          -3.7136  -24.7947  -46.4969 C.2       13 UNK         0.5000 
     78 O          -4.6044  -25.4866  -46.9900 O.2       13 UNK        -0.5000 
     79 N          -2.4192  -25.1439  -46.4836 N.am      14 UNK        -0.5000 
     80 CA         -1.8833  -26.3926  -47.0299 C.3       14 UNK         0.1400 
     81 CB         -0.4160  -26.5530  -46.6039 C.3       14 UNK        -0.1800 
     82 C          -2.0145  -26.4874  -48.5597 C.2       14 UNK         0.5000 
     83 O          -2.3650  -27.5499  -49.0747 O.2       14 UNK        -0.5000 
     84 N          -1.7499  -25.3739  -49.2554 N.am      15 UNK        -0.5000 
     85 CA         -1.8933  -25.2488  -50.7060 C.3       15 UNK         0.1400 
     86 CB         -1.1179  -24.0092  -51.1767 C.3       15 UNK        -0.1800 
     87 C          -3.3602  -25.1626  -51.1682 C.2       15 UNK         0.5000 
     88 O          -3.6265  -25.4247  -52.3407 O.2       15 UNK        -0.5000 
     89 N          -4.2666  -24.7888  -50.2508 N.am      16 UNK        -0.5000 
     90 CA         -5.6842  -24.4857  -50.4622 C.3       16 UNK         0.1400 
     91 CB         -6.4658  -25.7304  -50.9318 C.3       16 UNK        -0.1800 
     92 C          -5.8392  -23.2781  -51.4034 C.2       16 UNK         0.5000 
     93 O          -6.3437  -23.4149  -52.5189 O.2       16 UNK        -0.5000 
     94 N          -5.3507  -22.1208  -50.9361 N.am      17 UNK        -0.5000 
     95 CA         -5.1732  -20.8716  -51.6834 C.3       17 UNK         0.1400 
     96 CB         -4.7606  -19.7575  -50.7095 C.3       17 UNK        -0.1800 
     97 C          -6.3621  -20.4140  -52.5489 C.2       17 UNK         0.5000 
     98 O          -6.1506  -19.9480  -53.6699 O.2       17 UNK        -0.5000 
     99 N          -7.5852  -20.5900  -52.0319 N.am      18 UNK        -0.5000 
    100 CA        -8.8358  -20.2613  -52.7192 C.3       18 UNK         0.1400 
    101 CB        -9.9981  -20.3712  -51.7207 C.3       18 UNK        -0.1800 
    102 C         -9.1101  -21.1309  -53.9632 C.2       18 UNK         0.5000 
    103 O         -9.7522  -20.6538  -54.8996 O.2       18 UNK        -0.5000 
    104 N         -8.6203  -22.3775  -53.9563 N.am      19 UNK        -0.5000 
    105 CA        -8.7035  -23.3078  -55.0809 C.3       19 UNK         0.1400 
    106 CB        -8.8514  -24.7406  -54.5443 C.3       19 UNK        -0.1800 
    107 C         -7.4676  -23.1944  -55.9893 C.2       19 UNK         0.5000 
    108 O         -7.6014  -23.3071  -57.2084 O.2       19 UNK        -0.5000 
    109 N         -6.2912  -22.9728  -55.3845 N.am      20 UNK        -0.5000 
    110 CA        -5.0062  -22.8432  -56.0742 C.3       20 UNK         0.1400 
    111 CB        -3.8699  -22.8766  -55.0411 C.3       20 UNK        -0.1800 
    112 C         -4.8950  -21.5752  -56.9402 C.2       20 UNK         0.5000 
    113 O         -4.2265  -21.6147  -57.9738 O.2       20 UNK        -0.5000 
    114 N         -5.5381  -20.4825  -56.4977 N.am      21 UNK        -0.5000 
    115 CA        -5.5311  -19.1462  -57.1066 C.3       21 UNK         0.1400 
    116 CB        -6.2265  -19.1592  -58.4840 C.3       21 UNK        -0.1800 
    117 C         -4.1200  -18.5174  -57.1374 C.2       21 UNK         0.5000 
    118 O         -3.7466  -17.8522  -58.1052 O.2       21 UNK        -0.5000 
    119 N         -3.3627  -18.7544  -56.0610 N.am      22 UNK        -0.5000 
    120 CA        -1.9948  -18.2640  -55.8220 C.3       22 UNK         0.1400 
    121 C         -1.8782  -16.7403  -55.5157 C.2       22 UNK         0.5000 
    122 N         -2.9659  -16.0241  -55.2571 N.am      22 UNK        -0.7600 
    123 O         -0.7782  -16.1945  -55.5292 O.2       22 UNK        -0.5000 
    124 C124       -1.2764  -19.1227  -54.7438 C.3       23 UNK        -0.0398 
    125 S125       -2.2853  -19.3296  -53.2379 S.3       23 UNK        -0.2404 
    126 C126       -1.2664  -20.4371  -52.2084 C.3       23 UNK        -0.0205 
    127 H127        3.0931  -12.0374  -51.9803 H         1 UNK         0.0600 
    128 H128        2.1243  -12.2175  -50.5322 H         1 UNK         0.0600 
    129 H129        2.3323  -13.5862  -51.6398 H         1 UNK         0.0600 
    130 H130        4.8961  -14.0369  -48.8182 H         1 UNK         0.3000 
    131 H131        3.2743  -14.7315  -47.6268 H         1 UNK         0.0600 
    132 H132        2.0643  -15.4814  -49.7976 H         1 UNK         0.0800 
    133 H133        1.0444  -14.0744  -49.6086 H         1 UNK         0.0800 
    134 H134       -1.4121  -16.7742  -48.5373 H         1 UNK         0.0800 
    135 H135       -0.7375  -15.8904  -49.8719 H         1 UNK         0.0800 
    136 H136       -1.7284  -18.0972  -50.8321 H         1 UNK         0.1150 
    137 H137        1.1992  -21.1868  -51.3412 H         1 UNK         0.1150 
    138 H138        1.9230  -17.9882  -48.5952 H         1 UNK         0.1150 
    139 H139        3.6311  -20.3380  -50.5326 H         1 UNK         0.0800 
    140 H140        3.6437  -19.5719  -48.9676 H         1 UNK         0.0800 
    141 H141        2.1151  -20.4171  -47.1095 H         1 UNK         0.0800 
    142 H142        3.2727  -21.5485  -46.4737 H         1 UNK         0.0800 
    143 H143        1.5869  -23.4047  -46.7158 H         1 UNK         0.0600 
    144 H144        1.5394  -21.4138  -44.7343 H         1 UNK         0.3000 
    145 H145       -1.0498  -22.7871  -42.6623 H         1 UNK         0.0600 
    146 H146        1.0517  -23.9854  -42.0716 H         1 UNK         0.0600 
    147 H147        1.9787  -22.5087  -42.2976 H         1 UNK         0.0600 
    148 H148        0.7830  -22.6133  -41.0077 H         1 UNK         0.0600 
    149 H149        0.5299  -20.4504  -42.3506 H         1 UNK         0.3000 
    150 H150       -1.5828  -18.2199  -44.2270 H         1 UNK         0.0600 
    151 H151       -1.3696  -16.9951  -42.0678 H         1 UNK         0.0600 
    152 H152       -0.8910  -18.4817  -41.2520 H         1 UNK         0.0600 
    153 H153       -2.5088  -18.3271  -41.9241 H         1 UNK         0.0600 
    154 H154        0.8915  -17.7666  -42.9007 H         1 UNK         0.3000 
    155 H155        3.0643  -18.7315  -45.5872 H         1 UNK         0.0600 
    156 H156        2.6702  -16.4460  -46.1339 H         1 UNK         0.0600 
    157 H157        3.9123  -16.4061  -44.9011 H         1 UNK         0.0600 
    158 H158        2.2415  -16.0122  -44.4852 H         1 UNK         0.0600 
    159 H159        3.3390  -17.7659  -42.8548 H         1 UNK         0.3000 
    160 H160        3.8207  -20.9861  -41.4309 H         1 UNK         0.0600 
    161 H161        6.0368  -20.5402  -42.4919 H         1 UNK         0.0600 
    162 H162        6.0318  -20.0543  -40.8043 H         1 UNK         0.0600 
    163 H163        5.9108  -18.8356  -42.0740 H         1 UNK         0.0600 
    164 H164        4.1424  -18.3242  -40.4136 H         1 UNK         0.3000 
    165 H165        0.7468  -17.7881  -39.4893 H         1 UNK         0.0600 
    166 H166        1.7430  -17.5541  -37.2381 H         1 UNK         0.0600 
    167 H167        1.6547  -19.2524  -37.6757 H         1 UNK         0.0600 
    168 H168        3.1970  -18.4089  -37.7550 H         1 UNK         0.0600 
    169 H169        2.9706  -16.1916  -38.9352 H         1 UNK         0.3000 
    170 H170        3.6645  -14.4633  -40.0732 H         1 UNK         0.0600 
    171 H171        4.4515  -13.5505  -42.1913 H         1 UNK         0.0600 
    172 H172        4.5780  -15.3014  -42.2731 H         1 UNK         0.0600 
    173 H173        3.2672  -14.4718  -43.1059 H         1 UNK         0.0600 
    174 H174        1.6135  -13.2965  -41.8496 H         1 UNK         0.3000 
    175 H175       -0.3891  -12.0616  -39.2888 H         1 UNK         0.0600 
    176 H176        1.7694  -10.2975  -40.5675 H         1 UNK         0.0600 
    177 H177        0.2346   -9.7350  -39.9037 H         1 UNK         0.0600 
    178 H178        1.4469  -10.4341  -38.8432 H         1 UNK         0.0600 
    179 H179        0.0640  -11.2581  -42.0390 H         1 UNK         0.3000 
    180 H180       -1.9206  -13.7262  -43.5398 H         1 UNK         0.0600 
    181 H181       -3.3954  -11.8655  -44.2604 H         1 UNK         0.0600 
    182 H182       -2.8107  -10.8536  -42.9386 H         1 UNK         0.0600 
    183 H183       -3.7444  -12.3051  -42.5966 H         1 UNK         0.0600 
    184 H184       -0.9239  -11.2231  -44.4977 H         1 UNK         0.3000 
    185 H185        0.7330  -11.3091  -46.0619 H         1 UNK         0.0600 
    186 H186        3.0637  -11.9243  -44.1383 H         1 UNK         0.0600 
    187 H187        3.0878  -10.7081  -45.4135 H         1 UNK         0.0600 
    188 H188        2.0135  -10.5152  -44.0383 H         1 UNK         0.0600 
    189 H189        1.8071  -13.9562  -46.0250 H         1 UNK         0.3000 
    190 H190       -0.3998  -20.4067  -46.5710 H         1 UNK         0.3000 
    191 H191       -1.8768  -20.7838  -48.9147 H         1 UNK         0.0600 
    192 H192       -2.8651  -19.4524  -46.3334 H         1 UNK         0.0600 
    193 H193       -3.3787  -19.0955  -47.9763 H         1 UNK         0.0600 
    194 H194       -1.7458  -18.6992  -47.4530 H         1 UNK         0.0600 
    195 H195       -2.5807  -21.9507  -45.6059 H         1 UNK         0.3000 
    196 H196       -5.0872  -23.1796  -46.1943 H         1 UNK         0.0600 
    197 H197       -4.7526  -24.2870  -43.9854 H         1 UNK         0.0600 
    198 H198       -4.3911  -22.5692  -43.8961 H         1 UNK         0.0600 
    199 H199       -3.0798  -23.7438  -43.9481 H         1 UNK         0.0600 
    200 H200       -1.7485  -24.5291  -46.0276 H         1 UNK         0.3000 
    201 H201       -2.4532  -27.2174  -46.5972 H         1 UNK         0.0600 
    202 H202       -0.3227  -26.5844  -45.5183 H         1 UNK         0.0600 
    203 H203        0.2001  -25.7299  -46.9685 H         1 UNK         0.0600 
    204 H204        0.0069  -27.4797  -46.9938 H         1 UNK         0.0600 
    205 H205       -1.4052  -24.5518  -48.7628 H         1 UNK         0.3000 
    206 H206       -1.4497  -26.1284  -51.1771 H         1 UNK         0.0600 
    207 H207       -1.2085  -23.8687  -52.2546 H         1 UNK         0.0600 
    208 H208       -1.4908  -23.1075  -50.6914 H         1 UNK         0.0600 
    209 H209       -0.0560  -24.0955  -50.9457 H         1 UNK         0.0600 
    210 H210       -3.9200  -24.5796  -49.3241 H         1 UNK         0.3000 
    211 H211       -6.0869  -24.1897  -49.4923 H         1 UNK         0.0600 
    212 H212       -6.1471  -26.0711  -51.9172 H         1 UNK         0.0600 
    213 H213       -7.5329  -25.5149  -50.9948 H         1 UNK         0.0600 
    214 H214       -6.3405  -26.5584  -50.2341 H         1 UNK         0.0600 
    215 H215       -4.9174  -22.1407  -50.0151 H         1 UNK         0.3000 
    216 H216       -4.3448  -21.0513  -52.3646 H         1 UNK         0.0600 
    217 H217       -4.6529  -18.8017  -51.2241 H         1 UNK         0.0600 
    218 H218       -3.8003  -19.9803  -50.2470 H         1 UNK         0.0600 
    219 H219       -5.4951  -19.6240  -49.9147 H         1 UNK         0.0600 
    220 H220       -7.6626  -20.9960  -51.1110 H         1 UNK         0.3000 
    221 H221       -8.7705  -19.2238  -53.0538 H         1 UNK         0.0600 
    222 H222      -10.0980  -21.3847  -51.3300 H         1 UNK         0.0600 
    223 H223       -9.8581  -19.6967  -50.8758 H         1 UNK         0.0600 
    224 H224      -10.9452  -20.1063  -52.1927 H         1 UNK         0.0600 
    225 H225       -8.0411  -22.6730  -53.1772 H         1 UNK         0.3000 
    226 H226       -9.5865  -23.0834  -55.6830 H         1 UNK         0.0600 
    227 H227       -9.7435  -24.8387  -53.9257 H         1 UNK         0.0600 
    228 H228       -8.9429  -25.4552  -55.3632 H         1 UNK         0.0600 
    229 H229       -7.9926  -25.0405  -53.9426 H         1 UNK         0.0600 
    230 H230       -6.2676  -22.9627  -54.3688 H         1 UNK         0.3000 
    231 H231       -4.8928  -23.7070  -56.7324 H         1 UNK         0.0600 
    232 H232       -3.9090  -22.0166  -54.3744 H         1 UNK         0.0600 
    233 H233       -3.9171  -23.7781  -54.4312 H         1 UNK         0.0600 
    234 H234       -2.8955  -22.8648  -55.5309 H         1 UNK         0.0600 
    235 H235       -6.0036  -20.5412  -55.5971 H         1 UNK         0.3000 
    236 H236       -6.1273  -18.5141  -56.4470 H         1 UNK         0.0600 
    237 H237       -5.6541  -19.7185  -59.2244 H         1 UNK         0.0600 
    238 H238       -7.2186  -19.6061  -58.4193 H         1 UNK         0.0600 
    239 H239       -6.3517  -18.1458  -58.8669 H         1 UNK         0.0600 
    240 H240       -3.7620  -19.2927  -55.3050 H         1 UNK         0.3000 
    241 H241       -1.4459  -18.4056  -56.7548 H         1 UNK         0.0600 
    242 H242       -2.8781  -15.0382  -55.0678 H         1 UNK         0.3800 
    243 H243       -3.8727  -16.4610  -55.2360 H         1 UNK         0.3800 
    244 H244       -1.0751  -20.1141  -55.1516 H         1 UNK         0.0800 
    245 H245       -0.3039  -18.7052  -54.4765 H         1 UNK         0.0800 
    246 H246       -1.9428  -21.0710  -51.6366 H         1 UNK         0.0800 
    247 H247       -0.6875  -21.1027  -52.8504 H         1 UNK         0.0800 
@<TRIPOS>BOND
     1    1    2 1    
     2    1  127 1    
     3    1  128 1    
     4    1  129 1    
     5    2    3 2    
     6    2    4 am   BACKBONE|DICT|INTERRES
     7    4    5 1    
     8    4  130 1    
     9    5    6 1    
    10    5   65 1    
    11    5  131 1    
    12    6    7 1    
    13    6  132 1    
    14    6  133 1    
    15    7    8 1    
    16    8    9 1    
    17    8  134 1    
    18    8  135 1    
    19    9   10 ar   
    20    9   14 ar   
    21   10   11 ar   
    22   10  136 1    
    23   11   12 ar   
    24   11  126 1    
    25   12   13 ar   
    26   12  137 1    
    27   13   14 ar   
    28   13   15 1    
    29   14  138 1    
    30   15   16 1    
    31   15  139 1    
    32   15  140 1    
    33   16   17 1    
    34   17   18 1    
    35   17  141 1    
    36   17  142 1    
    37   18   19 1    
    38   18   67 1    
    39   18  143 1    
    40   19   20 am   BACKBONE|DICT|INTERRES
    41   19  144 1    
    42   20   21 2    
    43   20   22 1    
    44   22   23 1    
    45   22   24 1    
    46   22  145 1    
    47   23  146 1    
    48   23  147 1    
    49   23  148 1    
    50   24   25 am   BACKBONE|DICT|INTERRES
    51   24  149 1    
    52   25   26 2    
    53   25   27 1    
    54   27   28 1    
    55   27   29 1    
    56   27  150 1    
    57   28  151 1    
    58   28  152 1    
    59   28  153 1    
    60   29   30 am   BACKBONE|DICT|INTERRES
    61   29  154 1    
    62   30   31 2    
    63   30   32 1    
    64   32   33 1    
    65   32   34 1    
    66   32  155 1    
    67   33  156 1    
    68   33  157 1    
    69   33  158 1    
    70   34   35 am   BACKBONE|DICT|INTERRES
    71   34  159 1    
    72   35   36 2    
    73   35   37 1    
    74   37   38 1    
    75   37   39 1    
    76   37  160 1    
    77   38  161 1    
    78   38  162 1    
    79   38  163 1    
    80   39   40 am   BACKBONE|DICT|INTERRES
    81   39  164 1    
    82   40   41 2    
    83   40   42 1    
    84   42   43 1    
    85   42   44 1    
    86   42  165 1    
    87   43  166 1    
    88   43  167 1    
    89   43  168 1    
    90   44   45 am   BACKBONE|DICT|INTERRES
    91   44  169 1    
    92   45   46 2    
    93   45   47 1    
    94   47   48 1    
    95   47   49 1    
    96   47  170 1    
    97   48  171 1    
    98   48  172 1    
    99   48  173 1    
   100   49   50 am   BACKBONE|DICT|INTERRES
   101   49  174 1    
   102   50   51 2    
   103   50   52 1    
   104   52   53 1    
   105   52   54 1    
   106   52  175 1    
   107   53  176 1    
   108   53  177 1    
   109   53  178 1    
   110   54   55 am   BACKBONE|DICT|INTERRES
   111   54  179 1    
   112   55   56 2    
   113   55   57 1    
   114   57   58 1    
   115   57   59 1    
   116   57  180 1    
   117   58  181 1    
   118   58  182 1    
   119   58  183 1    
   120   59   60 am   BACKBONE|DICT|INTERRES
   121   59  184 1    
   122   60   61 2    
   123   60   62 1    
   124   62   63 1    
   125   62   64 1    
   126   62  185 1    
   127   63  186 1    
   128   63  187 1    
   129   63  188 1    
   130   64   65 am   BACKBONE|DICT|INTERRES
   131   64  189 1    
   132   65   66 2    
   133   67   68 2    
   134   67   69 am   BACKBONE|DICT|INTERRES
   135   69   70 1    
   136   69  190 1    
   137   70   71 1    
   138   70   72 1    
   139   70  191 1    
   140   71  192 1    
   141   71  193 1    
   142   71  194 1    
   143   72   73 2    
   144   72   74 am   BACKBONE|DICT|INTERRES
   145   74   75 1    
   146   74  195 1    
   147   75   76 1    
   148   75   77 1    
   149   75  196 1    
   150   76  197 1    
   151   76  198 1    
   152   76  199 1    
   153   77   78 2    
   154   77   79 am   BACKBONE|DICT|INTERRES
   155   79   80 1    
   156   79  200 1    
   157   80   81 1    
   158   80   82 1    
   159   80  201 1    
   160   81  202 1    
   161   81  203 1    
   162   81  204 1    
   163   82   83 2    
   164   82   84 am   BACKBONE|DICT|INTERRES
   165   84   85 1    
   166   84  205 1    
   167   85   86 1    
   168   85   87 1    
   169   85  206 1    
   170   86  207 1    
   171   86  208 1    
   172   86  209 1    
   173   87   88 2    
   174   87   89 am   BACKBONE|DICT|INTERRES
   175   89   90 1    
   176   89  210 1    
   177   90   91 1    
   178   90   92 1    
   179   90  211 1    
   180   91  212 1    
   181   91  213 1    
   182   91  214 1    
   183   92   93 2    
   184   92   94 am   BACKBONE|DICT|INTERRES
   185   94   95 1    
   186   94  215 1    
   187   95   96 1    
   188   95   97 1    
   189   95  216 1    
   190   96  217 1    
   191   96  218 1    
   192   96  219 1    
   193   97   98 2    
   194   97   99 am   BACKBONE|DICT|INTERRES
   195   99  100 1    
   196   99  220 1    
   197  100  101 1    
   198  100  102 1    
   199  100  221 1    
   200  101  222 1    
   201  101  223 1    
   202  101  224 1    
   203  102  103 2    
   204  102  104 am   BACKBONE|DICT|INTERRES
   205  104  105 1    
   206  104  225 1    
   207  105  106 1    
   208  105  107 1    
   209  105  226 1    
   210  106  227 1    
   211  106  228 1    
   212  106  229 1    
   213  107  108 2    
   214  107  109 am   BACKBONE|DICT|INTERRES
   215  109  110 1    
   216  109  230 1    
   217  110  111 1    
   218  110  112 1    
   219  110  231 1    
   220  111  232 1    
   221  111  233 1    
   222  111  234 1    
   223  112  113 2    
   224  112  114 am   BACKBONE|DICT|INTERRES
   225  114  115 1    
   226  114  235 1    
   227  115  116 1    
   228  115  117 1    
   229  115  236 1    
   230  116  237 1    
   231  116  238 1    
   232  116  239 1    
   233  117  118 2    
   234  117  119 am   BACKBONE|DICT|INTERRES
   235  119  120 1    
   236  119  240 1    
   237  120  121 1    
   238  120  124 1    
   239  120  241 1    
   240  121  122 am   BACKBONE|DICT|INTERRES
   241  121  123 2    
   242  122  242 1    
   243  122  243 1    
   244  124  125 1    
   245  124  244 1    
   246  124  245 1    
   247  125  126 1    
   248  126  246 1    
   249  126  247 1    
@<TRIPOS>SUBSTRUCTURE
     1 UNK         1 GROUP             0       ****    0 ROOT    
