@<TRIPOS>MOLECULE
3R540
247   249    1
SMALL
USER_CHARGES


@<TRIPOS>ATOM
      1 CA         -2.0681  -14.5003  -48.8158 C.3       0 UNK        -0.1800 
      2 C          -0.9106  -14.5155  -47.8327 C.2       0 UNK         0.5000 
      3 O          -0.6371  -13.5020  -47.1908 O.2       0 UNK        -0.5000 
      4 N          -0.2374  -15.6645  -47.6924 N.am      1 UNK        -0.5000 
      5 CA          0.9488  -15.8607  -46.8436 C.3       1 UNK         0.1400 
      6 C6          1.6016  -17.2497  -47.0490 C.3       23 UNK        -0.0398 
      7 S7          2.0940  -17.5646  -48.7834 S.3       23 UNK        -0.2404 
      8 C8          1.0487  -18.9781  -49.2724 C.3       23 UNK        -0.0205 
      9 C9         -0.4176  -18.5936  -49.3651 C.ar      23 UNK        -0.0193 
     10 C10        -0.9352  -18.0523  -50.5421 C.ar      23 UNK        -0.1150 
     11 C11        -2.2733  -17.6522  -50.6108 C.ar      23 UNK        -0.0193 
     12 C12        -3.0929  -17.8104  -49.4885 C.ar      23 UNK        -0.1150 
     13 C13        -2.5923  -18.3574  -48.3025 C.ar      23 UNK        -0.0193 
     14 C14        -1.2537  -18.7650  -48.2624 C.ar      23 UNK        -0.1150 
     15 C15        -3.5230  -18.4500  -47.0918 C.3       23 UNK        -0.0205 
     16 S16        -2.7460  -19.0274  -45.5398 S.3       23 UNK        -0.2404 
     17 C17        -3.1692  -20.8008  -45.5353 C.3       23 UNK        -0.0398 
     18 CA         -2.1631  -21.7133  -46.2809 C.3       11 UNK         0.1400 
     19 N          -0.7740  -21.5673  -45.8248 N.am      11 UNK        -0.5000 
     20 C           0.2807  -22.1179  -46.4511 C.2       10 UNK         0.5000 
     21 O           0.1916  -22.7126  -47.5235 O.2       10 UNK        -0.5000 
     22 CA          1.6522  -22.0658  -45.7493 C.3       10 UNK         0.1400 
     23 CB          2.5488  -20.9705  -46.3389 C.3       10 UNK        -0.1800 
     24 N           1.5414  -21.8983  -44.3021 N.am      10 UNK        -0.5000 
     25 C           1.0970  -22.8595  -43.4776 C.2       9 UNK         0.5000 
     26 O           0.7781  -23.9834  -43.8673 O.2       9 UNK        -0.5000 
     27 CA          0.9362  -22.5035  -41.9855 C.3       9 UNK         0.1400 
     28 CB          2.1491  -22.9973  -41.1840 C.3       9 UNK        -0.1800 
     29 N           0.7555  -21.0703  -41.7449 N.am      9 UNK        -0.5000 
     30 C          -0.2800  -20.3413  -42.1853 C.2       8 UNK         0.5000 
     31 O          -1.2422  -20.8251  -42.7806 O.2       8 UNK        -0.5000 
     32 CA         -0.1899  -18.8145  -41.9933 C.3       8 UNK         0.1400 
     33 CB         -0.9790  -18.3647  -40.7562 C.3       8 UNK        -0.1800 
     34 N           1.1867  -18.3189  -41.8999 N.am      8 UNK        -0.5000 
     35 C           2.0800  -18.3705  -42.8952 C.2       7 UNK         0.5000 
     36 O           1.8086  -18.8216  -44.0081 O.2       7 UNK        -0.5000 
     37 CA          3.5118  -17.8873  -42.5813 C.3       7 UNK         0.1400 
     38 CB          4.4250  -17.9155  -43.8207 C.3       7 UNK        -0.1800 
     39 N           3.5679  -16.5458  -42.0018 N.am      7 UNK        -0.5000 
     40 C           3.2491  -16.1878  -40.7503 C.2       6 UNK         0.5000 
     41 O           2.7715  -16.9695  -39.9264 O.2       6 UNK        -0.5000 
     42 CA          3.5335  -14.7255  -40.3383 C.3       6 UNK         0.1400 
     43 CB          4.5466  -14.6758  -39.1829 C.3       6 UNK        -0.1800 
     44 N           4.0534  -13.9194  -41.4480 N.am      6 UNK        -0.5000 
     45 C           3.2882  -13.3176  -42.3656 C.2       5 UNK         0.5000 
     46 O           2.0594  -13.2608  -42.2905 O.2       5 UNK        -0.5000 
     47 CA          4.0180  -12.7042  -43.5729 C.3       5 UNK         0.1400 
     48 CB          4.9713  -13.7089  -44.2531 C.3       5 UNK        -0.1800 
     49 N           3.0215  -12.2604  -44.5371 N.am      5 UNK        -0.5000 
     50 C           3.1670  -11.2861  -45.4390 C.2       4 UNK         0.5000 
     51 O           4.2050  -10.6389  -45.5841 O.2       4 UNK        -0.5000 
     52 CA          1.9521  -10.9816  -46.3374 C.3       4 UNK         0.1400 
     53 CB          2.1441  -11.6102  -47.7265 C.3       4 UNK        -0.1800 
     54 N           0.6821  -11.4542  -45.7823 N.am      4 UNK        -0.5000 
     55 C           0.0467  -10.9072  -44.7368 C.2       3 UNK         0.5000 
     56 O           0.4622   -9.9233  -44.1237 O.2       3 UNK        -0.5000 
     57 CA         -1.2648  -11.5755  -44.2973 C.3       3 UNK         0.1400 
     58 CB         -2.4292  -11.1151  -45.1887 C.3       3 UNK        -0.1800 
     59 N          -1.1613  -13.0338  -44.3608 N.am      3 UNK        -0.5000 
     60 C          -1.1162  -13.8452  -43.2953 C.2       2 UNK         0.5000 
     61 O          -1.1865  -13.4474  -42.1318 O.2       2 UNK        -0.5000 
     62 CA         -1.0326  -15.3637  -43.5560 C.3       2 UNK         0.1400 
     63 CB         -2.4179  -15.9914  -43.3269 C.3       2 UNK        -0.1800 
     64 N          -0.5730  -15.7123  -44.9028 N.am      2 UNK        -0.5000 
     65 C           0.6903  -15.6000  -45.3409 C.2       1 UNK         0.5000 
     66 O           1.6326  -15.2673  -44.6243 O.2       1 UNK        -0.5000 
     67 C          -2.6240  -23.1801  -46.1632 C.2       11 UNK         0.5000 
     68 O          -3.2700  -23.6930  -47.0771 O.2       11 UNK        -0.5000 
     69 N          -2.2566  -23.8331  -45.0499 N.am      12 UNK        -0.5000 
     70 CA         -2.5337  -25.2447  -44.7886 C.3       12 UNK         0.1400 
     71 CB         -2.2935  -25.5589  -43.3043 C.3       12 UNK        -0.1800 
     72 C          -1.7074  -26.1712  -45.6961 C.2       12 UNK         0.5000 
     73 O          -2.2472  -27.1568  -46.1976 O.2       12 UNK        -0.5000 
     74 N          -0.4384  -25.8123  -45.9448 N.am      13 UNK        -0.5000 
     75 CA          0.4469  -26.5009  -46.8915 C.3       13 UNK         0.1400 
     76 CB          1.8661  -25.9242  -46.7888 C.3       13 UNK        -0.1800 
     77 C          -0.0635  -26.4292  -48.3454 C.2       13 UNK         0.5000 
     78 O           0.0520  -27.4093  -49.0813 O.2       13 UNK        -0.5000 
     79 N          -0.6649  -25.2891  -48.7122 N.am      14 UNK        -0.5000 
     80 CA         -1.3589  -25.0638  -49.9814 C.3       14 UNK         0.1400 
     81 CB         -1.4382  -23.5487  -50.2399 C.3       14 UNK        -0.1800 
     82 C          -2.7675  -25.6940  -50.0375 C.2       14 UNK         0.5000 
     83 O          -3.4362  -25.5572  -51.0611 O.2       14 UNK        -0.5000 
     84 N          -3.2196  -26.3339  -48.9466 N.am      15 UNK        -0.5000 
     85 CA         -4.5343  -26.9624  -48.7633 C.3       15 UNK         0.1400 
     86 CB         -4.6620  -28.2146  -49.6553 C.3       15 UNK        -0.1800 
     87 C          -5.7103  -25.9767  -48.9400 C.2       15 UNK         0.5000 
     88 O          -6.7796  -26.3672  -49.4117 O.2       15 UNK        -0.5000 
     89 N          -5.4724  -24.7073  -48.5766 N.am      16 UNK        -0.5000 
     90 CA         -6.3567  -23.5477  -48.7158 C.3       16 UNK         0.1400 
     91 CB         -7.6084  -23.7017  -47.8277 C.3       16 UNK        -0.1800 
     92 C          -6.7061  -23.1794  -50.1757 C.2       16 UNK         0.5000 
     93 O          -7.6489  -22.4154  -50.3939 O.2       16 UNK        -0.5000 
     94 N          -5.9372  -23.6768  -51.1577 N.am      17 UNK        -0.5000 
     95 CA         -6.1090  -23.3978  -52.5862 C.3       17 UNK         0.1400 
     96 CB         -5.4952  -24.5445  -53.4084 C.3       17 UNK        -0.1800 
     97 C          -5.5251  -22.0226  -52.9674 C.2       17 UNK         0.5000 
     98 O          -4.6293  -21.9335  -53.8097 O.2       17 UNK        -0.5000 
     99 N          -6.0446  -20.9634  -52.3338 N.am      18 UNK        -0.5000 
    100 CA        -5.6027  -19.5756  -52.4840 C.3       18 UNK         0.1400 
    101 CB        -6.3976  -18.6839  -51.5196 C.3       18 UNK        -0.1800 
    102 C         -5.6987  -19.0447  -53.9267 C.2       18 UNK         0.5000 
    103 O         -4.8384  -18.2738  -54.3496 O.2       18 UNK        -0.5000 
    104 N         -6.7093  -19.5109  -54.6727 N.am      19 UNK        -0.5000 
    105 CA        -6.9129  -19.2016  -56.0894 C.3       19 UNK         0.1400 
    106 CB        -8.2813  -19.7464  -56.5264 C.3       19 UNK        -0.1800 
    107 C         -5.7981  -19.7429  -57.0081 C.2       19 UNK         0.5000 
    108 O         -5.5726  -19.1730  -58.0762 O.2       19 UNK        -0.5000 
    109 N         -5.1227  -20.8189  -56.5809 N.am      20 UNK        -0.5000 
    110 CA        -3.9631  -21.3874  -57.2609 C.3       20 UNK         0.1400 
    111 CB        -3.9664  -22.9165  -57.0989 C.3       20 UNK        -0.1800 
    112 C         -2.6669  -20.7747  -56.7093 C.2       20 UNK         0.5000 
    113 O         -1.8440  -20.2952  -57.4901 O.2       20 UNK        -0.5000 
    114 N         -2.5188  -20.7779  -55.3758 N.am      21 UNK        -0.5000 
    115 CA        -1.3164  -20.3421  -54.6581 C.3       21 UNK         0.1400 
    116 CB        -1.4694  -20.6766  -53.1663 C.3       21 UNK        -0.1800 
    117 C         -0.9522  -18.8575  -54.8584 C.2       21 UNK         0.5000 
    118 O          0.2341  -18.5262  -54.8598 O.2       21 UNK        -0.5000 
    119 N         -1.9667  -18.0076  -55.0507 N.am      22 UNK        -0.5000 
    120 CA        -1.8378  -16.5768  -55.3708 C.3       22 UNK         0.1400 
    121 C         -2.2914  -16.2604  -56.8275 C.2       22 UNK         0.5000 
    122 N         -2.4307  -17.2421  -57.7120 N.am      22 UNK        -0.7600 
    123 O         -2.5022  -15.1021  -57.1775 O.2       22 UNK        -0.5000 
    124 C124       -2.5566  -15.6853  -54.3198 C.3       23 UNK        -0.0398 
    125 S125       -1.8003  -15.7991  -52.6613 S.3       23 UNK        -0.2404 
    126 C126       -2.8480  -17.0796  -51.8993 C.3       23 UNK        -0.0205 
    127 H127       -2.3607  -13.4766  -49.0493 H         1 UNK         0.0600 
    128 H128       -2.9308  -15.0164  -48.3955 H         1 UNK         0.0600 
    129 H129       -1.7853  -14.9887  -49.7468 H         1 UNK         0.0600 
    130 H130       -0.5044  -16.4633  -48.2533 H         1 UNK         0.3000 
    131 H131        1.6779  -15.1108  -47.1568 H         1 UNK         0.0600 
    132 H132        0.9398  -18.0362  -46.6908 H         1 UNK         0.0800 
    133 H133        2.5052  -17.3315  -46.4429 H         1 UNK         0.0800 
    134 H134        1.1802  -19.8019  -48.5720 H         1 UNK         0.0800 
    135 H135        1.3903  -19.3490  -50.2398 H         1 UNK         0.0800 
    136 H136       -0.2922  -17.9320  -51.4029 H         1 UNK         0.1150 
    137 H137       -4.1267  -17.4973  -49.5335 H         1 UNK         0.1150 
    138 H138       -0.8379  -19.2005  -47.3681 H         1 UNK         0.1150 
    139 H139       -4.3775  -19.0795  -47.3420 H         1 UNK         0.0800 
    140 H140       -3.9266  -17.4547  -46.9008 H         1 UNK         0.0800 
    141 H141       -4.1714  -20.9225  -45.9498 H         1 UNK         0.0800 
    142 H142       -3.2498  -21.1022  -44.4897 H         1 UNK         0.0800 
    143 H143       -2.1932  -21.4474  -47.3397 H         1 UNK         0.0600 
    144 H144       -0.6419  -21.1060  -44.9338 H         1 UNK         0.3000 
    145 H145        2.1506  -23.0187  -45.9304 H         1 UNK         0.0600 
    146 H146        3.5053  -20.9168  -45.8190 H         1 UNK         0.0600 
    147 H147        2.7623  -21.1687  -47.3896 H         1 UNK         0.0600 
    148 H148        2.0792  -19.9919  -46.2779 H         1 UNK         0.0600 
    149 H149        1.7422  -20.9746  -43.9384 H         1 UNK         0.3000 
    150 H150        0.0471  -23.0215  -41.6200 H         1 UNK         0.0600 
    151 H151        2.2974  -24.0694  -41.3211 H         1 UNK         0.0600 
    152 H152        2.0143  -22.8237  -40.1163 H         1 UNK         0.0600 
    153 H153        3.0673  -22.4966  -41.4937 H         1 UNK         0.0600 
    154 H154        1.5019  -20.5934  -41.2612 H         1 UNK         0.3000 
    155 H155       -0.6400  -18.3632  -42.8777 H         1 UNK         0.0600 
    156 H156       -0.5552  -18.7743  -39.8385 H         1 UNK         0.0600 
    157 H157       -2.0178  -18.6924  -40.8158 H         1 UNK         0.0600 
    158 H158       -0.9866  -17.2782  -40.6672 H         1 UNK         0.0600 
    159 H159        1.4907  -17.9319  -41.0109 H         1 UNK         0.3000 
    160 H160        3.9244  -18.5882  -41.8529 H         1 UNK         0.0600 
    161 H161        4.0796  -17.2212  -44.5872 H         1 UNK         0.0600 
    162 H162        4.4569  -18.9106  -44.2665 H         1 UNK         0.0600 
    163 H163        5.4493  -17.6462  -43.5626 H         1 UNK         0.0600 
    164 H164        3.8849  -15.8172  -42.6225 H         1 UNK         0.3000 
    165 H165        2.5934  -14.2978  -39.9834 H         1 UNK         0.0600 
    166 H166        4.7263  -13.6500  -38.8602 H         1 UNK         0.0600 
    167 H167        4.1807  -15.2267  -38.3155 H         1 UNK         0.0600 
    168 H168        5.5050  -15.1115  -39.4681 H         1 UNK         0.0600 
    169 H169        5.0574  -13.9068  -41.5583 H         1 UNK         0.3000 
    170 H170        4.5855  -11.8434  -43.2138 H         1 UNK         0.0600 
    171 H171        5.7676  -14.0296  -43.5813 H         1 UNK         0.0600 
    172 H172        4.4389  -14.5999  -44.5887 H         1 UNK         0.0600 
    173 H173        5.4538  -13.2661  -45.1245 H         1 UNK         0.0600 
    174 H174        2.1210  -12.7133  -44.4356 H         1 UNK         0.3000 
    175 H175        1.8927   -9.8978  -46.4561 H         1 UNK         0.0600 
    176 H176        2.2068  -12.6974  -47.6693 H         1 UNK         0.0600 
    177 H177        1.3179  -11.3580  -48.3914 H         1 UNK         0.0600 
    178 H178        3.0610  -11.2516  -48.1959 H         1 UNK         0.0600 
    179 H179        0.2443  -12.2345  -46.2679 H         1 UNK         0.3000 
    180 H180       -1.4749  -11.2475  -43.2773 H         1 UNK         0.0600 
    181 H181       -3.3738  -11.5412  -44.8507 H         1 UNK         0.0600 
    182 H182       -2.2841  -11.4082  -46.2293 H         1 UNK         0.0600 
    183 H183       -2.5343  -10.0297  -45.1640 H         1 UNK         0.0600 
    184 H184       -1.0800  -13.4352  -45.2889 H         1 UNK         0.3000 
    185 H185       -0.3321  -15.7841  -42.8314 H         1 UNK         0.0600 
    186 H186       -2.3946  -17.0736  -43.4291 H         1 UNK         0.0600 
    187 H187       -2.7845  -15.7756  -42.3225 H         1 UNK         0.0600 
    188 H188       -3.1545  -15.6075  -44.0339 H         1 UNK         0.0600 
    189 H189       -1.2816  -15.9980  -45.5624 H         1 UNK         0.3000 
    190 H190       -1.7016  -23.3457  -44.3611 H         1 UNK         0.3000 
    191 H191       -3.5893  -25.4260  -45.0032 H         1 UNK         0.0600 
    192 H192       -2.5508  -26.5952  -43.0814 H         1 UNK         0.0600 
    193 H193       -2.9080  -24.9270  -42.6630 H         1 UNK         0.0600 
    194 H194       -1.2519  -25.4141  -43.0186 H         1 UNK         0.0600 
    195 H195       -0.0504  -25.0237  -45.4385 H         1 UNK         0.3000 
    196 H196        0.4850  -27.5526  -46.6002 H         1 UNK         0.0600 
    197 H197        1.9164  -24.9113  -47.1866 H         1 UNK         0.0600 
    198 H198        2.2161  -25.9029  -45.7564 H         1 UNK         0.0600 
    199 H199        2.5702  -26.5300  -47.3602 H         1 UNK         0.0600 
    200 H200       -0.6482  -24.5034  -48.0707 H         1 UNK         0.3000 
    201 H201       -0.7728  -25.5143  -50.7848 H         1 UNK         0.0600 
    202 H202       -2.0098  -23.0373  -49.4648 H         1 UNK         0.0600 
    203 H203       -1.9198  -23.3356  -51.1948 H         1 UNK         0.0600 
    204 H204       -0.4450  -23.1005  -50.2721 H         1 UNK         0.0600 
    205 H205       -2.6092  -26.3860  -48.1404 H         1 UNK         0.3000 
    206 H206       -4.5729  -27.2923  -47.7244 H         1 UNK         0.0600 
    207 H207       -3.8232  -28.8937  -49.5021 H         1 UNK         0.0600 
    208 H208       -5.5725  -28.7688  -49.4252 H         1 UNK         0.0600 
    209 H209       -4.6953  -27.9556  -50.7141 H         1 UNK         0.0600 
    210 H210       -4.5627  -24.4943  -48.1717 H         1 UNK         0.3000 
    211 H211       -5.7879  -22.7008  -48.3296 H         1 UNK         0.0600 
    212 H212       -8.1851  -22.7765  -47.7983 H         1 UNK         0.0600 
    213 H213       -7.3352  -23.9431  -46.8005 H         1 UNK         0.0600 
    214 H214       -8.2711  -24.4865  -48.1930 H         1 UNK         0.0600 
    215 H215       -5.1630  -24.2851  -50.9156 H         1 UNK         0.3000 
    216 H216       -7.1769  -23.3711  -52.8123 H         1 UNK         0.0600 
    217 H217       -4.4108  -24.5843  -53.3008 H         1 UNK         0.0600 
    218 H218       -5.7117  -24.4207  -54.4701 H         1 UNK         0.0600 
    219 H219       -5.8980  -25.5107  -53.1039 H         1 UNK         0.0600 
    220 H220       -6.7692  -21.1446  -51.6460 H         1 UNK         0.3000 
    221 H221       -4.5540  -19.5424  -52.1887 H         1 UNK         0.0600 
    222 H222       -6.2361  -18.9832  -50.4838 H         1 UNK         0.0600 
    223 H223       -7.4687  -18.7310  -51.7197 H         1 UNK         0.0600 
    224 H224       -6.0939  -17.6402  -51.6069 H         1 UNK         0.0600 
    225 H225       -7.3668  -20.1464  -54.2455 H         1 UNK         0.3000 
    226 H226       -6.9258  -18.1149  -56.1966 H         1 UNK         0.0600 
    227 H227       -8.3353  -20.8306  -56.4196 H         1 UNK         0.0600 
    228 H228       -9.0874  -19.3091  -55.9369 H         1 UNK         0.0600 
    229 H229       -8.4802  -19.5094  -57.5725 H         1 UNK         0.0600 
    230 H230       -5.3330  -21.1953  -55.6651 H         1 UNK         0.3000 
    231 H231       -4.0130  -21.1687  -58.3298 H         1 UNK         0.0600 
    232 H232       -3.9074  -23.2197  -56.0533 H         1 UNK         0.0600 
    233 H233       -3.1169  -23.3634  -57.6169 H         1 UNK         0.0600 
    234 H234       -4.8711  -23.3536  -57.5216 H         1 UNK         0.0600 
    235 H235       -3.2556  -21.1895  -54.8073 H         1 UNK         0.3000 
    236 H236       -0.4810  -20.9285  -55.0462 H         1 UNK         0.0600 
    237 H237       -1.5963  -21.7487  -53.0183 H         1 UNK         0.0600 
    238 H238       -0.5878  -20.3722  -52.6007 H         1 UNK         0.0600 
    239 H239       -2.3314  -20.1779  -52.7262 H         1 UNK         0.0600 
    240 H240       -2.9193  -18.3555  -55.0125 H         1 UNK         0.3000 
    241 H241       -0.7836  -16.2958  -55.3547 H         1 UNK         0.0600 
    242 H242       -2.7251  -17.0220  -58.6501 H         1 UNK         0.3800 
    243 H243       -2.2137  -18.2004  -57.4689 H         1 UNK         0.3800 
    244 H244       -3.6186  -15.9267  -54.2640 H         1 UNK         0.0800 
    245 H245       -2.5043  -14.6351  -54.6110 H         1 UNK         0.0800 
    246 H246       -2.9651  -17.9028  -52.5974 H         1 UNK         0.0800 
    247 H247       -3.8416  -16.6618  -51.7335 H         1 UNK         0.0800 
@<TRIPOS>BOND
     1    1    2 1    
     2    1  127 1    
     3    1  128 1    
     4    1  129 1    
     5    2    3 2    
     6    2    4 am   BACKBONE|DICT|INTERRES
     7    4    5 1    
     8    4  130 1    
     9    5    6 1    
    10    5   65 1    
    11    5  131 1    
    12    6    7 1    
    13    6  132 1    
    14    6  133 1    
    15    7    8 1    
    16    8    9 1    
    17    8  134 1    
    18    8  135 1    
    19    9   10 ar   
    20    9   14 ar   
    21   10   11 ar   
    22   10  136 1    
    23   11   12 ar   
    24   11  126 1    
    25   12   13 ar   
    26   12  137 1    
    27   13   14 ar   
    28   13   15 1    
    29   14  138 1    
    30   15   16 1    
    31   15  139 1    
    32   15  140 1    
    33   16   17 1    
    34   17   18 1    
    35   17  141 1    
    36   17  142 1    
    37   18   19 1    
    38   18   67 1    
    39   18  143 1    
    40   19   20 am   BACKBONE|DICT|INTERRES
    41   19  144 1    
    42   20   21 2    
    43   20   22 1    
    44   22   23 1    
    45   22   24 1    
    46   22  145 1    
    47   23  146 1    
    48   23  147 1    
    49   23  148 1    
    50   24   25 am   BACKBONE|DICT|INTERRES
    51   24  149 1    
    52   25   26 2    
    53   25   27 1    
    54   27   28 1    
    55   27   29 1    
    56   27  150 1    
    57   28  151 1    
    58   28  152 1    
    59   28  153 1    
    60   29   30 am   BACKBONE|DICT|INTERRES
    61   29  154 1    
    62   30   31 2    
    63   30   32 1    
    64   32   33 1    
    65   32   34 1    
    66   32  155 1    
    67   33  156 1    
    68   33  157 1    
    69   33  158 1    
    70   34   35 am   BACKBONE|DICT|INTERRES
    71   34  159 1    
    72   35   36 2    
    73   35   37 1    
    74   37   38 1    
    75   37   39 1    
    76   37  160 1    
    77   38  161 1    
    78   38  162 1    
    79   38  163 1    
    80   39   40 am   BACKBONE|DICT|INTERRES
    81   39  164 1    
    82   40   41 2    
    83   40   42 1    
    84   42   43 1    
    85   42   44 1    
    86   42  165 1    
    87   43  166 1    
    88   43  167 1    
    89   43  168 1    
    90   44   45 am   BACKBONE|DICT|INTERRES
    91   44  169 1    
    92   45   46 2    
    93   45   47 1    
    94   47   48 1    
    95   47   49 1    
    96   47  170 1    
    97   48  171 1    
    98   48  172 1    
    99   48  173 1    
   100   49   50 am   BACKBONE|DICT|INTERRES
   101   49  174 1    
   102   50   51 2    
   103   50   52 1    
   104   52   53 1    
   105   52   54 1    
   106   52  175 1    
   107   53  176 1    
   108   53  177 1    
   109   53  178 1    
   110   54   55 am   BACKBONE|DICT|INTERRES
   111   54  179 1    
   112   55   56 2    
   113   55   57 1    
   114   57   58 1    
   115   57   59 1    
   116   57  180 1    
   117   58  181 1    
   118   58  182 1    
   119   58  183 1    
   120   59   60 am   BACKBONE|DICT|INTERRES
   121   59  184 1    
   122   60   61 2    
   123   60   62 1    
   124   62   63 1    
   125   62   64 1    
   126   62  185 1    
   127   63  186 1    
   128   63  187 1    
   129   63  188 1    
   130   64   65 am   BACKBONE|DICT|INTERRES
   131   64  189 1    
   132   65   66 2    
   133   67   68 2    
   134   67   69 am   BACKBONE|DICT|INTERRES
   135   69   70 1    
   136   69  190 1    
   137   70   71 1    
   138   70   72 1    
   139   70  191 1    
   140   71  192 1    
   141   71  193 1    
   142   71  194 1    
   143   72   73 2    
   144   72   74 am   BACKBONE|DICT|INTERRES
   145   74   75 1    
   146   74  195 1    
   147   75   76 1    
   148   75   77 1    
   149   75  196 1    
   150   76  197 1    
   151   76  198 1    
   152   76  199 1    
   153   77   78 2    
   154   77   79 am   BACKBONE|DICT|INTERRES
   155   79   80 1    
   156   79  200 1    
   157   80   81 1    
   158   80   82 1    
   159   80  201 1    
   160   81  202 1    
   161   81  203 1    
   162   81  204 1    
   163   82   83 2    
   164   82   84 am   BACKBONE|DICT|INTERRES
   165   84   85 1    
   166   84  205 1    
   167   85   86 1    
   168   85   87 1    
   169   85  206 1    
   170   86  207 1    
   171   86  208 1    
   172   86  209 1    
   173   87   88 2    
   174   87   89 am   BACKBONE|DICT|INTERRES
   175   89   90 1    
   176   89  210 1    
   177   90   91 1    
   178   90   92 1    
   179   90  211 1    
   180   91  212 1    
   181   91  213 1    
   182   91  214 1    
   183   92   93 2    
   184   92   94 am   BACKBONE|DICT|INTERRES
   185   94   95 1    
   186   94  215 1    
   187   95   96 1    
   188   95   97 1    
   189   95  216 1    
   190   96  217 1    
   191   96  218 1    
   192   96  219 1    
   193   97   98 2    
   194   97   99 am   BACKBONE|DICT|INTERRES
   195   99  100 1    
   196   99  220 1    
   197  100  101 1    
   198  100  102 1    
   199  100  221 1    
   200  101  222 1    
   201  101  223 1    
   202  101  224 1    
   203  102  103 2    
   204  102  104 am   BACKBONE|DICT|INTERRES
   205  104  105 1    
   206  104  225 1    
   207  105  106 1    
   208  105  107 1    
   209  105  226 1    
   210  106  227 1    
   211  106  228 1    
   212  106  229 1    
   213  107  108 2    
   214  107  109 am   BACKBONE|DICT|INTERRES
   215  109  110 1    
   216  109  230 1    
   217  110  111 1    
   218  110  112 1    
   219  110  231 1    
   220  111  232 1    
   221  111  233 1    
   222  111  234 1    
   223  112  113 2    
   224  112  114 am   BACKBONE|DICT|INTERRES
   225  114  115 1    
   226  114  235 1    
   227  115  116 1    
   228  115  117 1    
   229  115  236 1    
   230  116  237 1    
   231  116  238 1    
   232  116  239 1    
   233  117  118 2    
   234  117  119 am   BACKBONE|DICT|INTERRES
   235  119  120 1    
   236  119  240 1    
   237  120  121 1    
   238  120  124 1    
   239  120  241 1    
   240  121  122 am   BACKBONE|DICT|INTERRES
   241  121  123 2    
   242  122  242 1    
   243  122  243 1    
   244  124  125 1    
   245  124  244 1    
   246  124  245 1    
   247  125  126 1    
   248  126  246 1    
   249  126  247 1    
@<TRIPOS>SUBSTRUCTURE
     1 UNK         1 GROUP             0       ****    0 ROOT    
