@<TRIPOS>MOLECULE
3R540
247   249    1
SMALL
USER_CHARGES


@<TRIPOS>ATOM
      1 CA         -4.1244  -10.9907  -47.1614 C.3       0 UNK        -0.1800 
      2 C          -3.0805  -12.0118  -46.7369 C.2       0 UNK         0.5000 
      3 O          -2.2875  -11.7413  -45.8357 O.2       0 UNK        -0.5000 
      4 N          -3.0862  -13.1964  -47.3608 N.am      1 UNK        -0.5000 
      5 CA         -2.1120  -14.2791  -47.1452 C.3       1 UNK         0.1400 
      6 C6         -2.1579  -15.3393  -48.2717 C.3       23 UNK        -0.0398 
      7 S7         -1.8881  -14.6050  -49.9209 S.3       23 UNK        -0.2404 
      8 C8         -0.0741  -14.4462  -49.9646 C.3       23 UNK        -0.0205 
      9 C9          0.6036  -15.7747  -50.2537 C.ar      23 UNK        -0.0193 
     10 C10         0.7167  -16.2255  -51.5705 C.ar      23 UNK        -0.1150 
     11 C11         1.3332  -17.4471  -51.8548 C.ar      23 UNK        -0.0193 
     12 C12         1.8553  -18.2112  -50.8059 C.ar      23 UNK        -0.1150 
     13 C13         1.7577  -17.7647  -49.4846 C.ar      23 UNK        -0.0193 
     14 C14         1.1315  -16.5452  -49.2148 C.ar      23 UNK        -0.1150 
     15 C15         2.3656  -18.5825  -48.3571 C.3       23 UNK        -0.0205 
     16 S16         1.3070  -19.9699  -47.8452 S.3       23 UNK        -0.2404 
     17 C17         0.0622  -19.1311  -46.8060 C.3       23 UNK        -0.0398 
     18 CA         -1.2936  -19.8721  -46.8347 C.3       11 UNK         0.1400 
     19 N          -1.2112  -21.2284  -46.2801 N.am      11 UNK        -0.5000 
     20 C          -2.1872  -22.1433  -46.3848 C.2       10 UNK         0.5000 
     21 O          -3.2117  -21.9570  -47.0417 O.2       10 UNK        -0.5000 
     22 CA         -2.0435  -23.4489  -45.5736 C.3       10 UNK         0.1400 
     23 CB         -1.5414  -24.5937  -46.4621 C.3       10 UNK        -0.1800 
     24 N          -1.1628  -23.3268  -44.4106 N.am      10 UNK        -0.5000 
     25 C          -1.3561  -22.5029  -43.3708 C.2       9 UNK         0.5000 
     26 O          -2.3609  -21.8048  -43.2401 O.2       9 UNK        -0.5000 
     27 CA         -0.2180  -22.3876  -42.3371 C.3       9 UNK         0.1400 
     28 CB         -0.5555  -23.2053  -41.0819 C.3       9 UNK        -0.1800 
     29 N           1.1018  -22.7940  -42.8359 N.am      9 UNK        -0.5000 
     30 C           1.7434  -22.2518  -43.8809 C.2       8 UNK         0.5000 
     31 O           1.2709  -21.3519  -44.5795 O.2       8 UNK        -0.5000 
     32 CA          3.1001  -22.8901  -44.2358 C.3       8 UNK         0.1400 
     33 CB          2.8813  -24.2457  -44.9285 C.3       8 UNK        -0.1800 
     34 N           3.9238  -22.0579  -45.1123 N.am      8 UNK        -0.5000 
     35 C           4.4562  -20.8718  -44.7945 C.2       7 UNK         0.5000 
     36 O           4.3184  -20.3338  -43.6941 O.2       7 UNK        -0.5000 
     37 CA          5.3156  -20.1804  -45.8680 C.3       7 UNK         0.1400 
     38 CB          5.2631  -20.8425  -47.2626 C.3       7 UNK        -0.1800 
     39 N           4.9278  -18.7764  -45.9642 N.am      7 UNK        -0.5000 
     40 C           5.7622  -17.7646  -46.2293 C.2       6 UNK         0.5000 
     41 O           6.9660  -17.9190  -46.4422 O.2       6 UNK        -0.5000 
     42 CA          5.1744  -16.3376  -46.2892 C.3       6 UNK         0.1400 
     43 CB          5.2116  -15.8027  -47.7304 C.3       6 UNK        -0.1800 
     44 N           3.8038  -16.2010  -45.7919 N.am      6 UNK        -0.5000 
     45 C           3.4030  -16.3269  -44.5223 C.2       5 UNK         0.5000 
     46 O           4.1527  -16.6239  -43.5918 O.2       5 UNK        -0.5000 
     47 CA          1.9168  -16.0129  -44.2663 C.3       5 UNK         0.1400 
     48 CB          1.4129  -16.5517  -42.9165 C.3       5 UNK        -0.1800 
     49 N           1.6822  -14.5715  -44.3201 N.am      5 UNK        -0.5000 
     50 C           1.5987  -13.8351  -45.4349 C.2       4 UNK         0.5000 
     51 O           1.7011  -14.3100  -46.5676 O.2       4 UNK        -0.5000 
     52 CA          1.3400  -12.3268  -45.2416 C.3       4 UNK         0.1400 
     53 CB          1.1788  -11.5744  -46.5751 C.3       4 UNK        -0.1800 
     54 N           0.1504  -12.0940  -44.4236 N.am      4 UNK        -0.5000 
     55 C           0.1031  -12.1183  -43.0851 C.2       3 UNK         0.5000 
     56 O           1.0859  -12.3224  -42.3718 O.2       3 UNK        -0.5000 
     57 CA         -1.2846  -11.9496  -42.4487 C.3       3 UNK         0.1400 
     58 CB         -1.7830  -10.5011  -42.5764 C.3       3 UNK        -0.1800 
     59 N          -2.2349  -12.8565  -43.0898 N.am      3 UNK        -0.5000 
     60 C          -2.4843  -14.1063  -42.6748 C.2       2 UNK         0.5000 
     61 O          -2.0275  -14.5867  -41.6374 O.2       2 UNK        -0.5000 
     62 CA         -3.3808  -14.9790  -43.5738 C.3       2 UNK         0.1400 
     63 CB         -4.8523  -14.8866  -43.1456 C.3       2 UNK        -0.1800 
     64 N          -3.2644  -14.6399  -44.9907 N.am      2 UNK        -0.5000 
     65 C          -2.1986  -14.9350  -45.7488 C.2       1 UNK         0.5000 
     66 O          -1.2820  -15.6622  -45.3687 O.2       1 UNK        -0.5000 
     67 C          -2.4009  -19.0330  -46.1588 C.2       11 UNK         0.5000 
     68 O          -2.9647  -18.1542  -46.8082 O.2       11 UNK        -0.5000 
     69 N          -2.7241  -19.3456  -44.8959 N.am      12 UNK        -0.5000 
     70 CA         -3.8456  -18.7694  -44.1640 C.3       12 UNK         0.1400 
     71 CB         -3.4569  -18.6050  -42.6828 C.3       12 UNK        -0.1800 
     72 C          -5.0898  -19.6591  -44.3090 C.2       12 UNK         0.5000 
     73 O          -6.1316  -19.1818  -44.7572 O.2       12 UNK        -0.5000 
     74 N          -4.9555  -20.9374  -43.9278 N.am      13 UNK        -0.5000 
     75 CA         -6.0562  -21.8916  -43.7715 C.3       13 UNK         0.1400 
     76 CB         -5.5377  -23.1365  -43.0355 C.3       13 UNK        -0.1800 
     77 C          -6.7530  -22.2908  -45.0845 C.2       13 UNK         0.5000 
     78 O          -7.9536  -22.5643  -45.0671 O.2       13 UNK        -0.5000 
     79 N          -5.9998  -22.3098  -46.1895 N.am      14 UNK        -0.5000 
     80 CA         -6.4835  -22.6148  -47.5370 C.3       14 UNK         0.1400 
     81 CB         -5.8529  -23.9400  -47.9974 C.3       14 UNK        -0.1800 
     82 C          -6.2034  -21.4467  -48.5044 C.2       14 UNK         0.5000 
     83 O          -6.2551  -21.6310  -49.7218 O.2       14 UNK        -0.5000 
     84 N          -5.9087  -20.2614  -47.9442 N.am      15 UNK        -0.5000 
     85 CA         -5.7096  -18.9707  -48.6141 C.3       15 UNK         0.1400 
     86 CB         -7.0606  -18.4535  -49.1499 C.3       15 UNK        -0.1800 
     87 C          -4.6148  -18.9652  -49.7049 C.2       15 UNK         0.5000 
     88 O          -4.6775  -18.1381  -50.6153 O.2       15 UNK        -0.5000 
     89 N          -3.6661  -19.9129  -49.6325 N.am      16 UNK        -0.5000 
     90 CA         -2.5768  -20.2031  -50.5794 C.3       16 UNK         0.1400 
     91 CB         -1.6506  -18.9884  -50.7593 C.3       16 UNK        -0.1800 
     92 C          -3.0379  -20.7531  -51.9482 C.2       16 UNK         0.5000 
     93 O          -2.3517  -21.5997  -52.5261 O.2       16 UNK        -0.5000 
     94 N          -4.1966  -20.2927  -52.4321 N.am      17 UNK        -0.5000 
     95 CA         -4.8360  -20.7063  -53.6758 C.3       17 UNK         0.1400 
     96 CB         -6.0278  -19.7821  -53.9681 C.3       17 UNK        -0.1800 
     97 C          -5.2689  -22.1807  -53.6486 C.2       17 UNK         0.5000 
     98 O          -4.8500  -22.9507  -54.5134 O.2       17 UNK        -0.5000 
     99 N          -6.0560  -22.5643  -52.6318 N.am      18 UNK        -0.5000 
    100 CA        -6.5305  -23.9403  -52.4476 C.3       18 UNK         0.1400 
    101 CB        -7.8278  -23.9447  -51.6236 C.3       18 UNK        -0.1800 
    102 C         -5.4565  -24.8620  -51.8370 C.2       18 UNK         0.5000 
    103 O         -5.5947  -26.0830  -51.9118 O.2       18 UNK        -0.5000 
    104 N         -4.3825  -24.2692  -51.2930 N.am      19 UNK        -0.5000 
    105 CA        -3.1562  -24.9660  -50.8949 C.3       19 UNK         0.1400 
    106 CB        -2.3064  -24.0351  -50.0149 C.3       19 UNK        -0.1800 
    107 C         -2.3152  -25.4244  -52.1043 C.2       19 UNK         0.5000 
    108 O         -1.4161  -26.2472  -51.9303 O.2       19 UNK        -0.5000 
    109 N         -2.5988  -24.8568  -53.2883 N.am      20 UNK        -0.5000 
    110 CA        -1.8805  -25.0161  -54.5544 C.3       20 UNK         0.1400 
    111 CB        -1.9182  -26.4785  -55.0457 C.3       20 UNK        -0.1800 
    112 C         -0.4568  -24.4214  -54.5164 C.2       20 UNK         0.5000 
    113 O          0.4100  -24.8592  -55.2749 O.2       20 UNK        -0.5000 
    114 N         -0.2430  -23.4147  -53.6552 N.am      21 UNK        -0.5000 
    115 CA         1.0049  -22.6541  -53.5759 C.3       21 UNK         0.1400 
    116 CB         1.0985  -21.9640  -52.2055 C.3       21 UNK        -0.1800 
    117 C          1.1018  -21.6234  -54.7145 C.2       21 UNK         0.5000 
    118 O          2.1932  -21.3829  -55.2317 O.2       21 UNK        -0.5000 
    119 N         -0.0474  -21.0523  -55.0904 N.am      22 UNK        -0.5000 
    120 CA        -0.1999  -20.0484  -56.1534 C.3       22 UNK         0.1400 
    121 C         -1.6402  -19.9976  -56.7429 C.2       22 UNK         0.5000 
    122 N         -2.4480  -21.0422  -56.5997 N.am      22 UNK        -0.7600 
    123 O         -2.0317  -19.0155  -57.3675 O.2       22 UNK        -0.5000 
    124 C124        0.3850  -18.6583  -55.7715 C.3       23 UNK        -0.0398 
    125 S125       -0.1534  -18.0403  -54.1380 S.3       23 UNK        -0.2404 
    126 C126        1.4586  -17.9268  -53.2934 C.3       23 UNK        -0.0205 
    127 H127       -4.7608  -11.3699  -47.9612 H         1 UNK         0.0600 
    128 H128       -3.6358  -10.0832  -47.5159 H         1 UNK         0.0600 
    129 H129       -4.7587  -10.7291  -46.3146 H         1 UNK         0.0600 
    130 H130       -3.7577  -13.3616  -48.0974 H         1 UNK         0.3000 
    131 H131       -1.1235  -13.8198  -47.1762 H         1 UNK         0.0600 
    132 H132       -1.4176  -16.1225  -48.1060 H         1 UNK         0.0800 
    133 H133       -3.1266  -15.8419  -48.2804 H         1 UNK         0.0800 
    134 H134        0.1935  -13.7292  -50.7420 H         1 UNK         0.0800 
    135 H135        0.2930  -14.0227  -49.0289 H         1 UNK         0.0800 
    136 H136        0.3137  -15.6288  -52.3768 H         1 UNK         0.1150 
    137 H137        2.3427  -19.1530  -51.0140 H         1 UNK         0.1150 
    138 H138        1.0574  -16.1918  -48.1969 H         1 UNK         0.1150 
    139 H139        3.3300  -18.9723  -48.6840 H         1 UNK         0.0800 
    140 H140        2.5699  -17.9512  -47.4942 H         1 UNK         0.0800 
    141 H141       -0.0627  -18.1084  -47.1635 H         1 UNK         0.0800 
    142 H142        0.4437  -19.0558  -45.7865 H         1 UNK         0.0800 
    143 H143       -1.5817  -19.9753  -47.8795 H         1 UNK         0.0600 
    144 H144       -0.3825  -21.4341  -45.7300 H         1 UNK         0.3000 
    145 H145       -3.0364  -23.7154  -45.2087 H         1 UNK         0.0600 
    146 H146       -1.4051  -25.5108  -45.8887 H         1 UNK         0.0600 
    147 H147       -2.2645  -24.8155  -47.2463 H         1 UNK         0.0600 
    148 H148       -0.5912  -24.3498  -46.9393 H         1 UNK         0.0600 
    149 H149       -0.3059  -23.8584  -44.4370 H         1 UNK         0.3000 
    150 H150       -0.1512  -21.3355  -42.0531 H         1 UNK         0.0600 
    151 H151       -0.6054  -24.2731  -41.2989 H         1 UNK         0.0600 
    152 H152       -1.5210  -22.9087  -40.6695 H         1 UNK         0.0600 
    153 H153        0.1890  -23.0546  -40.3000 H         1 UNK         0.0600 
    154 H154        1.5519  -23.5429  -42.3291 H         1 UNK         0.3000 
    155 H155        3.6537  -23.0518  -43.3087 H         1 UNK         0.0600 
    156 H156        2.3281  -24.1348  -45.8624 H         1 UNK         0.0600 
    157 H157        2.3188  -24.9313  -44.2935 H         1 UNK         0.0600 
    158 H158        3.8310  -24.7297  -45.1575 H         1 UNK         0.0600 
    159 H159        4.0620  -22.4040  -46.0499 H         1 UNK         0.3000 
    160 H160        6.3435  -20.2416  -45.5046 H         1 UNK         0.0600 
    161 H161        4.2448  -20.9061  -47.6459 H         1 UNK         0.0600 
    162 H162        5.6737  -21.8524  -47.2356 H         1 UNK         0.0600 
    163 H163        5.8542  -20.2817  -47.9868 H         1 UNK         0.0600 
    164 H164        3.9724  -18.5668  -45.7154 H         1 UNK         0.3000 
    165 H165        5.8151  -15.7033  -45.6735 H         1 UNK         0.0600 
    166 H166        4.8741  -14.7669  -47.7763 H         1 UNK         0.0600 
    167 H167        6.2241  -15.8301  -48.1351 H         1 UNK         0.0600 
    168 H168        4.5770  -16.3908  -48.3946 H         1 UNK         0.0600 
    169 H169        3.1244  -15.8392  -46.4521 H         1 UNK         0.3000 
    170 H170        1.3326  -16.4971  -45.0521 H         1 UNK         0.0600 
    171 H171        1.5744  -17.6279  -42.8415 H         1 UNK         0.0600 
    172 H172        1.9230  -16.0804  -42.0756 H         1 UNK         0.0600 
    173 H173        0.3428  -16.3748  -42.8010 H         1 UNK         0.0600 
    174 H174        1.6011  -14.0905  -43.4323 H         1 UNK         0.3000 
    175 H175        2.2124  -11.9129  -44.7320 H         1 UNK         0.0600 
    176 H176        2.0627  -11.6944  -47.2027 H         1 UNK         0.0600 
    177 H177        0.3207  -11.9337  -47.1432 H         1 UNK         0.0600 
    178 H178        1.0428  -10.5057  -46.4087 H         1 UNK         0.0600 
    179 H179       -0.7167  -11.9421  -44.9347 H         1 UNK         0.3000 
    180 H180       -1.2029  -12.1826  -41.3848 H         1 UNK         0.0600 
    181 H181       -1.8899  -10.1942  -43.6173 H         1 UNK         0.0600 
    182 H182       -1.0887   -9.8079  -42.0999 H         1 UNK         0.0600 
    183 H183       -2.7512  -10.3762  -42.0915 H         1 UNK         0.0600 
    184 H184       -2.6003  -12.5549  -43.9853 H         1 UNK         0.3000 
    185 H185       -3.0489  -16.0067  -43.4439 H         1 UNK         0.0600 
    186 H186       -4.9705  -15.1596  -42.0961 H         1 UNK         0.0600 
    187 H187       -5.2454  -13.8768  -43.2692 H         1 UNK         0.0600 
    188 H188       -5.4756  -15.5651  -43.7286 H         1 UNK         0.0600 
    189 H189       -3.9798  -14.0451  -45.3821 H         1 UNK         0.3000 
    190 H190       -2.2538  -20.1222  -44.4474 H         1 UNK         0.3000 
    191 H191       -4.0853  -17.7834  -44.5666 H         1 UNK         0.0600 
    192 H192       -2.5242  -18.0514  -42.5750 H         1 UNK         0.0600 
    193 H193       -4.2283  -18.0585  -42.1392 H         1 UNK         0.0600 
    194 H194       -3.3211  -19.5621  -42.1790 H         1 UNK         0.0600 
    195 H195       -4.0441  -21.2502  -43.5985 H         1 UNK         0.3000 
    196 H196       -6.8100  -21.4184  -43.1387 H         1 UNK         0.0600 
    197 H197       -6.3434  -23.8499  -42.8573 H         1 UNK         0.0600 
    198 H198       -5.1161  -22.8739  -42.0651 H         1 UNK         0.0600 
    199 H199       -4.7650  -23.6506  -43.6065 H         1 UNK         0.0600 
    200 H200       -5.0148  -22.0745  -46.1298 H         1 UNK         0.3000 
    201 H201       -7.5673  -22.7438  -47.5363 H         1 UNK         0.0600 
    202 H202       -6.1951  -24.2231  -48.9908 H         1 UNK         0.0600 
    203 H203       -6.1217  -24.7534  -47.3238 H         1 UNK         0.0600 
    204 H204       -4.7669  -23.8819  -48.0250 H         1 UNK         0.0600 
    205 H205       -5.8990  -20.2226  -46.9340 H         1 UNK         0.3000 
    206 H206       -5.3765  -18.2752  -47.8436 H         1 UNK         0.0600 
    207 H207       -7.8181  -18.4453  -48.3661 H         1 UNK         0.0600 
    208 H208       -6.9734  -17.4321  -49.5221 H         1 UNK         0.0600 
    209 H209       -7.4316  -19.0709  -49.9688 H         1 UNK         0.0600 
    210 H210       -3.7449  -20.5653  -48.8618 H         1 UNK         0.3000 
    211 H211       -1.9857  -20.9895  -50.1101 H         1 UNK         0.0600 
    212 H212       -2.1391  -18.1680  -51.2854 H         1 UNK         0.0600 
    213 H213       -0.7753  -19.2645  -51.3444 H         1 UNK         0.0600 
    214 H214       -1.2934  -18.6045  -49.8042 H         1 UNK         0.0600 
    215 H215       -4.6525  -19.5570  -51.9016 H         1 UNK         0.3000 
    216 H216       -4.1083  -20.5839  -54.4786 H         1 UNK         0.0600 
    217 H217       -6.5293  -20.0708  -54.8928 H         1 UNK         0.0600 
    218 H218       -5.7019  -18.7483  -54.0849 H         1 UNK         0.0600 
    219 H219       -6.7686  -19.8093  -53.1679 H         1 UNK         0.0600 
    220 H220       -6.2971  -21.9027  -51.9022 H         1 UNK         0.3000 
    221 H221       -6.7741  -24.3532  -53.4291 H         1 UNK         0.0600 
    222 H222       -7.6858  -23.5397  -50.6242 H         1 UNK         0.0600 
    223 H223       -8.6037  -23.3558  -52.1128 H         1 UNK         0.0600 
    224 H224       -8.2141  -24.9584  -51.5113 H         1 UNK         0.0600 
    225 H225       -4.3694  -23.2607  -51.2566 H         1 UNK         0.3000 
    226 H226       -3.4318  -25.8461  -50.3103 H         1 UNK         0.0600 
    227 H227       -1.5170  -24.5976  -49.5160 H         1 UNK         0.0600 
    228 H228       -1.8134  -23.2626  -50.6021 H         1 UNK         0.0600 
    229 H229       -2.8987  -23.5422  -49.2471 H         1 UNK         0.0600 
    230 H230       -3.3565  -24.1865  -53.3166 H         1 UNK         0.3000 
    231 H231       -2.4315  -24.4182  -55.2814 H         1 UNK         0.0600 
    232 H232       -1.3068  -27.1336  -54.4248 H         1 UNK         0.0600 
    233 H233       -1.5428  -26.5566  -56.0666 H         1 UNK         0.0600 
    234 H234       -2.9362  -26.8682  -55.0454 H         1 UNK         0.0600 
    235 H235       -1.0174  -23.0745  -53.0954 H         1 UNK         0.3000 
    236 H236        1.8474  -23.3429  -53.6671 H         1 UNK         0.0600 
    237 H237        1.0309  -22.6868  -51.3923 H         1 UNK         0.0600 
    238 H238        2.0492  -21.4407  -52.0986 H         1 UNK         0.0600 
    239 H239        0.3053  -21.2301  -52.0676 H         1 UNK         0.0600 
    240 H240       -0.8860  -21.2634  -54.5671 H         1 UNK         0.3000 
    241 H241        0.3917  -20.4052  -56.9984 H         1 UNK         0.0600 
    242 H242       -2.1352  -21.8934  -56.1660 H         1 UNK         0.3800 
    243 H243       -3.3682  -21.0028  -57.0086 H         1 UNK         0.3800 
    244 H244        1.4734  -18.7231  -55.7846 H         1 UNK         0.0800 
    245 H245        0.1446  -17.9061  -56.5241 H         1 UNK         0.0800 
    246 H246        1.9446  -18.9030  -53.3294 H         1 UNK         0.0800 
    247 H247        2.1032  -17.2356  -53.8379 H         1 UNK         0.0800 
@<TRIPOS>BOND
     1    1    2 1    
     2    1  127 1    
     3    1  128 1    
     4    1  129 1    
     5    2    3 2    
     6    2    4 am   BACKBONE|DICT|INTERRES
     7    4    5 1    
     8    4  130 1    
     9    5    6 1    
    10    5   65 1    
    11    5  131 1    
    12    6    7 1    
    13    6  132 1    
    14    6  133 1    
    15    7    8 1    
    16    8    9 1    
    17    8  134 1    
    18    8  135 1    
    19    9   10 ar   
    20    9   14 ar   
    21   10   11 ar   
    22   10  136 1    
    23   11   12 ar   
    24   11  126 1    
    25   12   13 ar   
    26   12  137 1    
    27   13   14 ar   
    28   13   15 1    
    29   14  138 1    
    30   15   16 1    
    31   15  139 1    
    32   15  140 1    
    33   16   17 1    
    34   17   18 1    
    35   17  141 1    
    36   17  142 1    
    37   18   19 1    
    38   18   67 1    
    39   18  143 1    
    40   19   20 am   BACKBONE|DICT|INTERRES
    41   19  144 1    
    42   20   21 2    
    43   20   22 1    
    44   22   23 1    
    45   22   24 1    
    46   22  145 1    
    47   23  146 1    
    48   23  147 1    
    49   23  148 1    
    50   24   25 am   BACKBONE|DICT|INTERRES
    51   24  149 1    
    52   25   26 2    
    53   25   27 1    
    54   27   28 1    
    55   27   29 1    
    56   27  150 1    
    57   28  151 1    
    58   28  152 1    
    59   28  153 1    
    60   29   30 am   BACKBONE|DICT|INTERRES
    61   29  154 1    
    62   30   31 2    
    63   30   32 1    
    64   32   33 1    
    65   32   34 1    
    66   32  155 1    
    67   33  156 1    
    68   33  157 1    
    69   33  158 1    
    70   34   35 am   BACKBONE|DICT|INTERRES
    71   34  159 1    
    72   35   36 2    
    73   35   37 1    
    74   37   38 1    
    75   37   39 1    
    76   37  160 1    
    77   38  161 1    
    78   38  162 1    
    79   38  163 1    
    80   39   40 am   BACKBONE|DICT|INTERRES
    81   39  164 1    
    82   40   41 2    
    83   40   42 1    
    84   42   43 1    
    85   42   44 1    
    86   42  165 1    
    87   43  166 1    
    88   43  167 1    
    89   43  168 1    
    90   44   45 am   BACKBONE|DICT|INTERRES
    91   44  169 1    
    92   45   46 2    
    93   45   47 1    
    94   47   48 1    
    95   47   49 1    
    96   47  170 1    
    97   48  171 1    
    98   48  172 1    
    99   48  173 1    
   100   49   50 am   BACKBONE|DICT|INTERRES
   101   49  174 1    
   102   50   51 2    
   103   50   52 1    
   104   52   53 1    
   105   52   54 1    
   106   52  175 1    
   107   53  176 1    
   108   53  177 1    
   109   53  178 1    
   110   54   55 am   BACKBONE|DICT|INTERRES
   111   54  179 1    
   112   55   56 2    
   113   55   57 1    
   114   57   58 1    
   115   57   59 1    
   116   57  180 1    
   117   58  181 1    
   118   58  182 1    
   119   58  183 1    
   120   59   60 am   BACKBONE|DICT|INTERRES
   121   59  184 1    
   122   60   61 2    
   123   60   62 1    
   124   62   63 1    
   125   62   64 1    
   126   62  185 1    
   127   63  186 1    
   128   63  187 1    
   129   63  188 1    
   130   64   65 am   BACKBONE|DICT|INTERRES
   131   64  189 1    
   132   65   66 2    
   133   67   68 2    
   134   67   69 am   BACKBONE|DICT|INTERRES
   135   69   70 1    
   136   69  190 1    
   137   70   71 1    
   138   70   72 1    
   139   70  191 1    
   140   71  192 1    
   141   71  193 1    
   142   71  194 1    
   143   72   73 2    
   144   72   74 am   BACKBONE|DICT|INTERRES
   145   74   75 1    
   146   74  195 1    
   147   75   76 1    
   148   75   77 1    
   149   75  196 1    
   150   76  197 1    
   151   76  198 1    
   152   76  199 1    
   153   77   78 2    
   154   77   79 am   BACKBONE|DICT|INTERRES
   155   79   80 1    
   156   79  200 1    
   157   80   81 1    
   158   80   82 1    
   159   80  201 1    
   160   81  202 1    
   161   81  203 1    
   162   81  204 1    
   163   82   83 2    
   164   82   84 am   BACKBONE|DICT|INTERRES
   165   84   85 1    
   166   84  205 1    
   167   85   86 1    
   168   85   87 1    
   169   85  206 1    
   170   86  207 1    
   171   86  208 1    
   172   86  209 1    
   173   87   88 2    
   174   87   89 am   BACKBONE|DICT|INTERRES
   175   89   90 1    
   176   89  210 1    
   177   90   91 1    
   178   90   92 1    
   179   90  211 1    
   180   91  212 1    
   181   91  213 1    
   182   91  214 1    
   183   92   93 2    
   184   92   94 am   BACKBONE|DICT|INTERRES
   185   94   95 1    
   186   94  215 1    
   187   95   96 1    
   188   95   97 1    
   189   95  216 1    
   190   96  217 1    
   191   96  218 1    
   192   96  219 1    
   193   97   98 2    
   194   97   99 am   BACKBONE|DICT|INTERRES
   195   99  100 1    
   196   99  220 1    
   197  100  101 1    
   198  100  102 1    
   199  100  221 1    
   200  101  222 1    
   201  101  223 1    
   202  101  224 1    
   203  102  103 2    
   204  102  104 am   BACKBONE|DICT|INTERRES
   205  104  105 1    
   206  104  225 1    
   207  105  106 1    
   208  105  107 1    
   209  105  226 1    
   210  106  227 1    
   211  106  228 1    
   212  106  229 1    
   213  107  108 2    
   214  107  109 am   BACKBONE|DICT|INTERRES
   215  109  110 1    
   216  109  230 1    
   217  110  111 1    
   218  110  112 1    
   219  110  231 1    
   220  111  232 1    
   221  111  233 1    
   222  111  234 1    
   223  112  113 2    
   224  112  114 am   BACKBONE|DICT|INTERRES
   225  114  115 1    
   226  114  235 1    
   227  115  116 1    
   228  115  117 1    
   229  115  236 1    
   230  116  237 1    
   231  116  238 1    
   232  116  239 1    
   233  117  118 2    
   234  117  119 am   BACKBONE|DICT|INTERRES
   235  119  120 1    
   236  119  240 1    
   237  120  121 1    
   238  120  124 1    
   239  120  241 1    
   240  121  122 am   BACKBONE|DICT|INTERRES
   241  121  123 2    
   242  122  242 1    
   243  122  243 1    
   244  124  125 1    
   245  124  244 1    
   246  124  245 1    
   247  125  126 1    
   248  126  246 1    
   249  126  247 1    
@<TRIPOS>SUBSTRUCTURE
     1 UNK         1 GROUP             0       ****    0 ROOT    
