@<TRIPOS>MOLECULE
3R540
247   249    1
SMALL
USER_CHARGES


@<TRIPOS>ATOM
      1 CA         -3.9834  -12.8822  -48.7065 C.3       0 UNK        -0.1800 
      2 C          -2.8752  -13.0441  -47.6778 C.2       0 UNK         0.5000 
      3 O          -2.9972  -12.5447  -46.5590 O.2       0 UNK        -0.5000 
      4 N          -1.7973  -13.7529  -48.0399 N.am      1 UNK        -0.5000 
      5 CA         -0.6168  -13.9846  -47.1967 C.3       1 UNK         0.1400 
      6 C6          0.5559  -14.6270  -47.9796 C.3       23 UNK        -0.0398 
      7 S7          0.1329  -16.1724  -48.8558 S.3       23 UNK        -0.2404 
      8 C8          1.7827  -16.6982  -49.4126 C.3       23 UNK        -0.0205 
      9 C9          1.6978  -17.8637  -50.3869 C.ar      23 UNK        -0.0193 
     10 C10         1.3789  -17.6236  -51.7256 C.ar      23 UNK        -0.1150 
     11 C11         1.3232  -18.6773  -52.6395 C.ar      23 UNK        -0.0193 
     12 C12         1.5656  -19.9810  -52.2014 C.ar      23 UNK        -0.1150 
     13 C13         1.8863  -20.2461  -50.8669 C.ar      23 UNK        -0.0193 
     14 C14         1.9603  -19.1723  -49.9652 C.ar      23 UNK        -0.1150 
     15 C15         2.1543  -21.7058  -50.4805 C.3       23 UNK        -0.0205 
     16 S16         2.4880  -22.0441  -48.7162 S.3       23 UNK        -0.2404 
     17 C17         0.8703  -21.6669  -47.9734 C.3       23 UNK        -0.0398 
     18 CA          0.1699  -22.8890  -47.3404 C.3       11 UNK         0.1400 
     19 N           0.9770  -23.5188  -46.2903 N.am      11 UNK        -0.5000 
     20 C           0.6603  -24.6604  -45.6631 C.2       10 UNK         0.5000 
     21 O          -0.3505  -25.3174  -45.9057 O.2       10 UNK        -0.5000 
     22 CA          1.6009  -25.1063  -44.5313 C.3       10 UNK         0.1400 
     23 CB          2.8286  -25.8327  -45.0996 C.3       10 UNK        -0.1800 
     24 N           2.0420  -23.9919  -43.6914 N.am      10 UNK        -0.5000 
     25 C           1.2440  -23.2038  -42.9608 C.2       9 UNK         0.5000 
     26 O           0.0185  -23.3197  -42.9291 O.2       9 UNK        -0.5000 
     27 CA          1.9193  -22.0667  -42.1730 C.3       9 UNK         0.1400 
     28 CB          2.7526  -22.6033  -40.9937 C.3       9 UNK        -0.1800 
     29 N           2.6915  -21.1483  -43.0195 N.am      9 UNK        -0.5000 
     30 C           3.8140  -21.3785  -43.7219 C.2       8 UNK         0.5000 
     31 O           4.4102  -22.4568  -43.7182 O.2       8 UNK        -0.5000 
     32 CA          4.3262  -20.2274  -44.6112 C.3       8 UNK         0.1400 
     33 CB          5.0669  -20.7356  -45.8614 C.3       8 UNK        -0.1800 
     34 N           3.2089  -19.3827  -45.0301 N.am      8 UNK        -0.5000 
     35 C           3.1257  -18.0593  -44.8641 C.2       7 UNK         0.5000 
     36 O           4.0476  -17.3570  -44.4473 O.2       7 UNK        -0.5000 
     37 CA          1.7656  -17.4064  -45.1870 C.3       7 UNK         0.1400 
     38 CB          0.7890  -18.3133  -45.9655 C.3       7 UNK        -0.1800 
     39 N           1.1101  -16.9029  -43.9806 N.am      7 UNK        -0.5000 
     40 C           0.8215  -17.5799  -42.8586 C.2       6 UNK         0.5000 
     41 O           1.0535  -18.7813  -42.7093 O.2       6 UNK        -0.5000 
     42 CA          0.1232  -16.7860  -41.7311 C.3       6 UNK         0.1400 
     43 CB          0.4852  -17.3128  -40.3264 C.3       6 UNK        -0.1800 
     44 N           0.3104  -15.3273  -41.8238 N.am      6 UNK        -0.5000 
     45 C           1.4731  -14.6653  -41.7122 C.2       5 UNK         0.5000 
     46 O           2.5454  -15.2207  -41.4703 O.2       5 UNK        -0.5000 
     47 CA          1.4525  -13.1377  -41.9095 C.3       5 UNK         0.1400 
     48 CB          2.7290  -12.6307  -42.6133 C.3       5 UNK        -0.1800 
     49 N           0.2760  -12.6545  -42.6414 N.am      5 UNK        -0.5000 
     50 C          -0.2292  -11.4224  -42.4800 C.2       4 UNK         0.5000 
     51 O           0.1341  -10.6458  -41.5950 O.2       4 UNK        -0.5000 
     52 CA         -1.2896  -10.9512  -43.4908 C.3       4 UNK         0.1400 
     53 CB         -0.6293  -10.5713  -44.8246 C.3       4 UNK        -0.1800 
     54 N          -2.3469  -11.9291  -43.7313 N.am      4 UNK        -0.5000 
     55 C          -3.2984  -12.2500  -42.8439 C.2       3 UNK         0.5000 
     56 O          -3.3578  -11.7927  -41.7020 O.2       3 UNK        -0.5000 
     57 CA         -4.3679  -13.2488  -43.3167 C.3       3 UNK         0.1400 
     58 CB         -5.4918  -12.5285  -44.0780 C.3       3 UNK        -0.1800 
     59 N          -3.7898  -14.2875  -44.1674 N.am      3 UNK        -0.5000 
     60 C          -3.1260  -15.3481  -43.6920 C.2       2 UNK         0.5000 
     61 O          -2.9880  -15.5836  -42.4924 O.2       2 UNK        -0.5000 
     62 CA         -2.4852  -16.2926  -44.7237 C.3       2 UNK         0.1400 
     63 CB         -3.4853  -17.3728  -45.1576 C.3       2 UNK        -0.1800 
     64 N          -1.9598  -15.5942  -45.8989 N.am      2 UNK        -0.5000 
     65 C          -0.9309  -14.7327  -45.8812 C.2       1 UNK         0.5000 
     66 O          -0.2709  -14.4801  -44.8700 O.2       1 UNK        -0.5000 
     67 C          -1.2125  -22.4488  -46.8230 C.2       11 UNK         0.5000 
     68 O          -2.1951  -22.5590  -47.5563 O.2       11 UNK        -0.5000 
     69 N          -1.2576  -21.9399  -45.5837 N.am      12 UNK        -0.5000 
     70 CA         -2.4830  -21.4954  -44.9235 C.3       12 UNK         0.1400 
     71 CB         -2.1303  -20.5868  -43.7349 C.3       12 UNK        -0.1800 
     72 C          -3.3494  -22.6885  -44.4872 C.2       12 UNK         0.5000 
     73 O          -4.5640  -22.6544  -44.6809 O.2       12 UNK        -0.5000 
     74 N          -2.7047  -23.7391  -43.9588 N.am      13 UNK        -0.5000 
     75 CA         -3.3361  -25.0026  -43.5723 C.3       13 UNK         0.1400 
     76 CB         -2.3172  -25.8704  -42.8182 C.3       13 UNK        -0.1800 
     77 C          -3.9269  -25.7692  -44.7714 C.2       13 UNK         0.5000 
     78 O          -5.0335  -26.2997  -44.6690 O.2       13 UNK        -0.5000 
     79 N          -3.1938  -25.7876  -45.8933 N.am      14 UNK        -0.5000 
     80 CA         -3.6197  -26.3843  -47.1618 C.3       14 UNK         0.1400 
     81 CB         -2.3801  -26.6073  -48.0432 C.3       14 UNK        -0.1800 
     82 C          -4.6576  -25.5367  -47.9245 C.2       14 UNK         0.5000 
     83 O          -5.2848  -26.0525  -48.8502 O.2       14 UNK        -0.5000 
     84 N          -4.7925  -24.2557  -47.5482 N.am      15 UNK        -0.5000 
     85 CA         -5.5947  -23.2114  -48.1958 C.3       15 UNK         0.1400 
     86 CB         -7.1013  -23.5332  -48.1161 C.3       15 UNK        -0.1800 
     87 C          -5.1133  -22.8894  -49.6284 C.2       15 UNK         0.5000 
     88 O          -5.9154  -22.5196  -50.4863 O.2       15 UNK        -0.5000 
     89 N          -3.8006  -23.0297  -49.8508 N.am      16 UNK        -0.5000 
     90 CA         -3.1073  -22.6908  -51.0920 C.3       16 UNK         0.1400 
     91 CB         -1.8962  -23.6233  -51.2500 C.3       16 UNK        -0.1800 
     92 C          -2.6485  -21.2219  -51.1064 C.2       16 UNK         0.5000 
     93 O          -2.4811  -20.6560  -52.1855 O.2       16 UNK        -0.5000 
     94 N          -2.4518  -20.6458  -49.9111 N.am      17 UNK        -0.5000 
     95 CA         -2.0076  -19.2780  -49.6463 C.3       17 UNK         0.1400 
     96 CB         -2.0410  -19.0529  -48.1275 C.3       17 UNK        -0.1800 
     97 C          -2.8492  -18.2119  -50.3712 C.2       17 UNK         0.5000 
     98 O          -3.9764  -17.9401  -49.9532 O.2       17 UNK        -0.5000 
     99 N          -2.2828  -17.6513  -51.4492 N.am      18 UNK        -0.5000 
    100 CA        -2.8704  -16.6401  -52.3365 C.3       18 UNK         0.1400 
    101 CB        -3.0679  -15.3090  -51.5821 C.3       18 UNK        -0.1800 
    102 C         -4.1485  -17.1119  -53.0698 C.2       18 UNK         0.5000 
    103 O         -4.9520  -16.2789  -53.4945 O.2       18 UNK        -0.5000 
    104 N         -4.3169  -18.4329  -53.2083 N.am      19 UNK        -0.5000 
    105 CA        -5.4395  -19.0738  -53.8885 C.3       19 UNK         0.1400 
    106 CB        -5.7687  -20.3781  -53.1411 C.3       19 UNK        -0.1800 
    107 C         -5.1038  -19.3466  -55.3668 C.2       19 UNK         0.5000 
    108 O         -4.0322  -18.9708  -55.8475 O.2       19 UNK        -0.5000 
    109 N         -6.0097  -20.0506  -56.0620 N.am      20 UNK        -0.5000 
    110 CA        -5.8422  -20.5139  -57.4467 C.3       20 UNK         0.1400 
    111 CB        -7.1321  -21.2136  -57.9005 C.3       20 UNK        -0.1800 
    112 C         -4.6237  -21.4398  -57.6541 C.2       20 UNK         0.5000 
    113 O         -4.0858  -21.5003  -58.7608 O.2       20 UNK        -0.5000 
    114 N         -4.1744  -22.0920  -56.5709 N.am      21 UNK        -0.5000 
    115 CA        -2.9381  -22.8719  -56.4748 C.3       21 UNK         0.1400 
    116 CB        -2.8337  -23.4477  -55.0534 C.3       21 UNK        -0.1800 
    117 C         -1.6616  -22.0738  -56.8180 C.2       21 UNK         0.5000 
    118 O         -0.6729  -22.6761  -57.2385 O.2       21 UNK        -0.5000 
    119 N         -1.7081  -20.7445  -56.6571 N.am      22 UNK        -0.5000 
    120 CA        -0.6461  -19.8109  -57.0602 C.3       22 UNK         0.1400 
    121 C         -0.5696  -19.5565  -58.5960 C.2       22 UNK         0.5000 
    122 N         -1.5152  -20.0184  -59.4077 N.am      22 UNK        -0.7600 
    123 O          0.3775  -18.9312  -59.0651 O.2       22 UNK        -0.5000 
    124 C124       -0.7329  -18.4693  -56.2874 C.3       23 UNK        -0.0398 
    125 S125       -0.7260  -18.6925  -54.4770 S.3       23 UNK        -0.2404 
    126 C126        1.0262  -18.4115  -54.1051 C.3       23 UNK        -0.0205 
    127 H127       -4.8107  -13.5533  -48.4762 H         1 UNK         0.0600 
    128 H128       -3.6307  -13.0997  -49.7143 H         1 UNK         0.0600 
    129 H129       -4.3589  -11.8589  -48.6956 H         1 UNK         0.0600 
    130 H130       -1.7541  -14.1595  -48.9634 H         1 UNK         0.3000 
    131 H131       -0.2714  -12.9959  -46.8930 H         1 UNK         0.0600 
    132 H132        0.9121  -13.9167  -48.7271 H         1 UNK         0.0800 
    133 H133        1.4070  -14.8034  -47.3205 H         1 UNK         0.0800 
    134 H134        2.3908  -16.9649  -48.5471 H         1 UNK         0.0800 
    135 H135        2.2866  -15.8602  -49.8967 H         1 UNK         0.0800 
    136 H136        1.1865  -16.6125  -52.0569 H         1 UNK         0.1150 
    137 H137        1.5128  -20.7952  -52.9110 H         1 UNK         0.1150 
    138 H138        2.2282  -19.3404  -48.9340 H         1 UNK         0.1150 
    139 H139        1.3078  -22.3184  -50.7953 H         1 UNK         0.0800 
    140 H140        3.0141  -22.0562  -51.0531 H         1 UNK         0.0800 
    141 H141        0.2305  -21.2206  -48.7364 H         1 UNK         0.0800 
    142 H142        1.0330  -20.8953  -47.2229 H         1 UNK         0.0800 
    143 H143        0.0040  -23.6339  -48.1216 H         1 UNK         0.0600 
    144 H144        1.8436  -23.0629  -46.0482 H         1 UNK         0.3000 
    145 H145        1.0509  -25.8047  -43.8975 H         1 UNK         0.0600 
    146 H146        3.4570  -26.2266  -44.3007 H         1 UNK         0.0600 
    147 H147        2.5297  -26.6762  -45.7235 H         1 UNK         0.0600 
    148 H148        3.4419  -25.1704  -45.7121 H         1 UNK         0.0600 
    149 H149        3.0343  -23.7709  -43.6941 H         1 UNK         0.3000 
    150 H150        1.1146  -21.4637  -41.7488 H         1 UNK         0.0600 
    151 H151        2.1346  -23.2043  -40.3256 H         1 UNK         0.0600 
    152 H152        3.1680  -21.7861  -40.4040 H         1 UNK         0.0600 
    153 H153        3.5798  -23.2324  -41.3227 H         1 UNK         0.0600 
    154 H154        2.2809  -20.2188  -43.0764 H         1 UNK         0.3000 
    155 H155        5.0295  -19.6569  -44.0015 H         1 UNK         0.0600 
    156 H156        5.9537  -21.3085  -45.5880 H         1 UNK         0.0600 
    157 H157        5.3983  -19.9066  -46.4869 H         1 UNK         0.0600 
    158 H158        4.4326  -21.3807  -46.4693 H         1 UNK         0.0600 
    159 H159        2.3899  -19.8694  -45.3601 H         1 UNK         0.3000 
    160 H160        1.9824  -16.5380  -45.8089 H         1 UNK         0.0600 
    161 H161        1.2150  -18.6098  -46.9228 H         1 UNK         0.0600 
    162 H162       -0.1349  -17.7811  -46.1842 H         1 UNK         0.0600 
    163 H163        0.5184  -19.2129  -45.4125 H         1 UNK         0.0600 
    164 H164        0.8554  -15.9220  -44.0100 H         1 UNK         0.3000 
    165 H165       -0.9413  -16.9694  -41.8654 H         1 UNK         0.0600 
    166 H166       -0.0178  -16.7390  -39.5481 H         1 UNK         0.0600 
    167 H167        0.1785  -18.3529  -40.2093 H         1 UNK         0.0600 
    168 H168        1.5579  -17.2698  -40.1373 H         1 UNK         0.0600 
    169 H169       -0.5278  -14.7926  -42.0067 H         1 UNK         0.3000 
    170 H170        1.4370  -12.7251  -40.8987 H         1 UNK         0.0600 
    171 H171        3.6279  -12.9201  -42.0678 H         1 UNK         0.0600 
    172 H172        2.8110  -13.0339  -43.6234 H         1 UNK         0.0600 
    173 H173        2.7399  -11.5432  -42.6857 H         1 UNK         0.0600 
    174 H174       -0.0473  -13.2325  -43.4132 H         1 UNK         0.3000 
    175 H175       -1.7576  -10.0513  -43.0856 H         1 UNK         0.0600 
    176 H176       -0.0921  -11.4125  -45.2605 H         1 UNK         0.0600 
    177 H177       -1.3672  -10.2289  -45.5507 H         1 UNK         0.0600 
    178 H178        0.0902   -9.7636  -44.6850 H         1 UNK         0.0600 
    179 H179       -2.4185  -12.3051  -44.6712 H         1 UNK         0.3000 
    180 H180       -4.8085  -13.7147  -42.4324 H         1 UNK         0.0600 
    181 H181       -5.1216  -12.0284  -44.9734 H         1 UNK         0.0600 
    182 H182       -5.9617  -11.7700  -43.4506 H         1 UNK         0.0600 
    183 H183       -6.2715  -13.2268  -44.3823 H         1 UNK         0.0600 
    184 H184       -3.8059  -14.1188  -45.1642 H         1 UNK         0.3000 
    185 H185       -1.6546  -16.7957  -44.2308 H         1 UNK         0.0600 
    186 H186       -3.9770  -17.8244  -44.2947 H         1 UNK         0.0600 
    187 H187       -4.2634  -16.9710  -45.8074 H         1 UNK         0.0600 
    188 H188       -2.9796  -18.1775  -45.6856 H         1 UNK         0.0600 
    189 H189       -2.4491  -15.7321  -46.7709 H         1 UNK         0.3000 
    190 H190       -0.4185  -21.9394  -45.0238 H         1 UNK         0.3000 
    191 H191       -3.0641  -20.9046  -45.6351 H         1 UNK         0.0600 
    192 H192       -1.5599  -19.7161  -44.0586 H         1 UNK         0.0600 
    193 H193       -3.0329  -20.2188  -43.2458 H         1 UNK         0.0600 
    194 H194       -1.5403  -21.1099  -42.9821 H         1 UNK         0.0600 
    195 H195       -1.7062  -23.6623  -43.7887 H         1 UNK         0.3000 
    196 H196       -4.1561  -24.7702  -42.8896 H         1 UNK         0.0600 
    197 H197       -2.7693  -26.8065  -42.4882 H         1 UNK         0.0600 
    198 H198       -1.9434  -25.3583  -41.9314 H         1 UNK         0.0600 
    199 H199       -1.4604  -26.1214  -43.4441 H         1 UNK         0.0600 
    200 H200       -2.2548  -25.3977  -45.8720 H         1 UNK         0.3000 
    201 H201       -4.0734  -27.3558  -46.9554 H         1 UNK         0.0600 
    202 H202       -1.6546  -27.2526  -47.5476 H         1 UNK         0.0600 
    203 H203       -1.8833  -25.6659  -48.2820 H         1 UNK         0.0600 
    204 H204       -2.6481  -27.0854  -48.9863 H         1 UNK         0.0600 
    205 H205       -4.2211  -23.9398  -46.7765 H         1 UNK         0.3000 
    206 H206       -5.4242  -22.3043  -47.6141 H         1 UNK         0.0600 
    207 H207       -7.4022  -23.7552  -47.0922 H         1 UNK         0.0600 
    208 H208       -7.6992  -22.6856  -48.4527 H         1 UNK         0.0600 
    209 H209       -7.3689  -24.3874  -48.7384 H         1 UNK         0.0600 
    210 H210       -3.2170  -23.2708  -49.0564 H         1 UNK         0.3000 
    211 H211       -3.7765  -22.8476  -51.9402 H         1 UNK         0.0600 
    212 H212       -1.3555  -23.4092  -52.1730 H         1 UNK         0.0600 
    213 H213       -2.2066  -24.6676  -51.2895 H         1 UNK         0.0600 
    214 H214       -1.1922  -23.5137  -50.4242 H         1 UNK         0.0600 
    215 H215       -2.6297  -21.2141  -49.0927 H         1 UNK         0.3000 
    216 H216       -0.9734  -19.1887  -49.9826 H         1 UNK         0.0600 
    217 H217       -1.8841  -18.0041  -47.8789 H         1 UNK         0.0600 
    218 H218       -1.2658  -19.6230  -47.6210 H         1 UNK         0.0600 
    219 H219       -3.0039  -19.3451  -47.7075 H         1 UNK         0.0600 
    220 H220       -1.3794  -17.9995  -51.7420 H         1 UNK         0.3000 
    221 H221       -2.1314  -16.4584  -53.1171 H         1 UNK         0.0600 
    222 H222       -3.8435  -15.3878  -50.8200 H         1 UNK         0.0600 
    223 H223       -2.1454  -14.9945  -51.0944 H         1 UNK         0.0600 
    224 H224       -3.3605  -14.5101  -52.2643 H         1 UNK         0.0600 
    225 H225       -3.5801  -19.0508  -52.8824 H         1 UNK         0.3000 
    226 H226       -6.3157  -18.4237  -53.8532 H         1 UNK         0.0600 
    227 H227       -5.8854  -20.1990  -52.0718 H         1 UNK         0.0600 
    228 H228       -6.7021  -20.8183  -53.4923 H         1 UNK         0.0600 
    229 H229       -4.9847  -21.1249  -53.2683 H         1 UNK         0.0600 
    230 H230       -6.8690  -20.3208  -55.6056 H         1 UNK         0.3000 
    231 H231       -5.6897  -19.6332  -58.0738 H         1 UNK         0.0600 
    232 H232       -7.3511  -22.0897  -57.2887 H         1 UNK         0.0600 
    233 H233       -7.0520  -21.5479  -58.9358 H         1 UNK         0.0600 
    234 H234       -7.9878  -20.5406  -57.8440 H         1 UNK         0.0600 
    235 H235       -4.6911  -21.9744  -55.7129 H         1 UNK         0.3000 
    236 H236       -3.0113  -23.6992  -57.1832 H         1 UNK         0.0600 
    237 H237       -3.6944  -24.0716  -54.8121 H         1 UNK         0.0600 
    238 H238       -1.9432  -24.0686  -54.9465 H         1 UNK         0.0600 
    239 H239       -2.7711  -22.6548  -54.3068 H         1 UNK         0.0600 
    240 H240       -2.5540  -20.3123  -56.3009 H         1 UNK         0.3000 
    241 H241        0.3072  -20.2706  -56.7927 H         1 UNK         0.0600 
    242 H242       -1.4409  -19.8457  -60.3977 H         1 UNK         0.3800 
    243 H243       -2.3076  -20.5413  -59.0521 H         1 UNK         0.3800 
    244 H244        0.0895  -17.8080  -56.5656 H         1 UNK         0.0800 
    245 H245       -1.6474  -17.9385  -56.5563 H         1 UNK         0.0800 
    246 H246        1.6398  -19.0639  -54.7284 H         1 UNK         0.0800 
    247 H247        1.2947  -17.3872  -54.3684 H         1 UNK         0.0800 
@<TRIPOS>BOND
     1    1    2 1    
     2    1  127 1    
     3    1  128 1    
     4    1  129 1    
     5    2    3 2    
     6    2    4 am   BACKBONE|DICT|INTERRES
     7    4    5 1    
     8    4  130 1    
     9    5    6 1    
    10    5   65 1    
    11    5  131 1    
    12    6    7 1    
    13    6  132 1    
    14    6  133 1    
    15    7    8 1    
    16    8    9 1    
    17    8  134 1    
    18    8  135 1    
    19    9   10 ar   
    20    9   14 ar   
    21   10   11 ar   
    22   10  136 1    
    23   11   12 ar   
    24   11  126 1    
    25   12   13 ar   
    26   12  137 1    
    27   13   14 ar   
    28   13   15 1    
    29   14  138 1    
    30   15   16 1    
    31   15  139 1    
    32   15  140 1    
    33   16   17 1    
    34   17   18 1    
    35   17  141 1    
    36   17  142 1    
    37   18   19 1    
    38   18   67 1    
    39   18  143 1    
    40   19   20 am   BACKBONE|DICT|INTERRES
    41   19  144 1    
    42   20   21 2    
    43   20   22 1    
    44   22   23 1    
    45   22   24 1    
    46   22  145 1    
    47   23  146 1    
    48   23  147 1    
    49   23  148 1    
    50   24   25 am   BACKBONE|DICT|INTERRES
    51   24  149 1    
    52   25   26 2    
    53   25   27 1    
    54   27   28 1    
    55   27   29 1    
    56   27  150 1    
    57   28  151 1    
    58   28  152 1    
    59   28  153 1    
    60   29   30 am   BACKBONE|DICT|INTERRES
    61   29  154 1    
    62   30   31 2    
    63   30   32 1    
    64   32   33 1    
    65   32   34 1    
    66   32  155 1    
    67   33  156 1    
    68   33  157 1    
    69   33  158 1    
    70   34   35 am   BACKBONE|DICT|INTERRES
    71   34  159 1    
    72   35   36 2    
    73   35   37 1    
    74   37   38 1    
    75   37   39 1    
    76   37  160 1    
    77   38  161 1    
    78   38  162 1    
    79   38  163 1    
    80   39   40 am   BACKBONE|DICT|INTERRES
    81   39  164 1    
    82   40   41 2    
    83   40   42 1    
    84   42   43 1    
    85   42   44 1    
    86   42  165 1    
    87   43  166 1    
    88   43  167 1    
    89   43  168 1    
    90   44   45 am   BACKBONE|DICT|INTERRES
    91   44  169 1    
    92   45   46 2    
    93   45   47 1    
    94   47   48 1    
    95   47   49 1    
    96   47  170 1    
    97   48  171 1    
    98   48  172 1    
    99   48  173 1    
   100   49   50 am   BACKBONE|DICT|INTERRES
   101   49  174 1    
   102   50   51 2    
   103   50   52 1    
   104   52   53 1    
   105   52   54 1    
   106   52  175 1    
   107   53  176 1    
   108   53  177 1    
   109   53  178 1    
   110   54   55 am   BACKBONE|DICT|INTERRES
   111   54  179 1    
   112   55   56 2    
   113   55   57 1    
   114   57   58 1    
   115   57   59 1    
   116   57  180 1    
   117   58  181 1    
   118   58  182 1    
   119   58  183 1    
   120   59   60 am   BACKBONE|DICT|INTERRES
   121   59  184 1    
   122   60   61 2    
   123   60   62 1    
   124   62   63 1    
   125   62   64 1    
   126   62  185 1    
   127   63  186 1    
   128   63  187 1    
   129   63  188 1    
   130   64   65 am   BACKBONE|DICT|INTERRES
   131   64  189 1    
   132   65   66 2    
   133   67   68 2    
   134   67   69 am   BACKBONE|DICT|INTERRES
   135   69   70 1    
   136   69  190 1    
   137   70   71 1    
   138   70   72 1    
   139   70  191 1    
   140   71  192 1    
   141   71  193 1    
   142   71  194 1    
   143   72   73 2    
   144   72   74 am   BACKBONE|DICT|INTERRES
   145   74   75 1    
   146   74  195 1    
   147   75   76 1    
   148   75   77 1    
   149   75  196 1    
   150   76  197 1    
   151   76  198 1    
   152   76  199 1    
   153   77   78 2    
   154   77   79 am   BACKBONE|DICT|INTERRES
   155   79   80 1    
   156   79  200 1    
   157   80   81 1    
   158   80   82 1    
   159   80  201 1    
   160   81  202 1    
   161   81  203 1    
   162   81  204 1    
   163   82   83 2    
   164   82   84 am   BACKBONE|DICT|INTERRES
   165   84   85 1    
   166   84  205 1    
   167   85   86 1    
   168   85   87 1    
   169   85  206 1    
   170   86  207 1    
   171   86  208 1    
   172   86  209 1    
   173   87   88 2    
   174   87   89 am   BACKBONE|DICT|INTERRES
   175   89   90 1    
   176   89  210 1    
   177   90   91 1    
   178   90   92 1    
   179   90  211 1    
   180   91  212 1    
   181   91  213 1    
   182   91  214 1    
   183   92   93 2    
   184   92   94 am   BACKBONE|DICT|INTERRES
   185   94   95 1    
   186   94  215 1    
   187   95   96 1    
   188   95   97 1    
   189   95  216 1    
   190   96  217 1    
   191   96  218 1    
   192   96  219 1    
   193   97   98 2    
   194   97   99 am   BACKBONE|DICT|INTERRES
   195   99  100 1    
   196   99  220 1    
   197  100  101 1    
   198  100  102 1    
   199  100  221 1    
   200  101  222 1    
   201  101  223 1    
   202  101  224 1    
   203  102  103 2    
   204  102  104 am   BACKBONE|DICT|INTERRES
   205  104  105 1    
   206  104  225 1    
   207  105  106 1    
   208  105  107 1    
   209  105  226 1    
   210  106  227 1    
   211  106  228 1    
   212  106  229 1    
   213  107  108 2    
   214  107  109 am   BACKBONE|DICT|INTERRES
   215  109  110 1    
   216  109  230 1    
   217  110  111 1    
   218  110  112 1    
   219  110  231 1    
   220  111  232 1    
   221  111  233 1    
   222  111  234 1    
   223  112  113 2    
   224  112  114 am   BACKBONE|DICT|INTERRES
   225  114  115 1    
   226  114  235 1    
   227  115  116 1    
   228  115  117 1    
   229  115  236 1    
   230  116  237 1    
   231  116  238 1    
   232  116  239 1    
   233  117  118 2    
   234  117  119 am   BACKBONE|DICT|INTERRES
   235  119  120 1    
   236  119  240 1    
   237  120  121 1    
   238  120  124 1    
   239  120  241 1    
   240  121  122 am   BACKBONE|DICT|INTERRES
   241  121  123 2    
   242  122  242 1    
   243  122  243 1    
   244  124  125 1    
   245  124  244 1    
   246  124  245 1    
   247  125  126 1    
   248  126  246 1    
   249  126  247 1    
@<TRIPOS>SUBSTRUCTURE
     1 UNK         1 GROUP             0       ****    0 ROOT    
