@<TRIPOS>MOLECULE
3R540
247   249    1
SMALL
USER_CHARGES


@<TRIPOS>ATOM
      1 CA          5.9329  -13.5095  -49.3206 C.3       0 UNK        -0.1800 
      2 C           6.3301  -14.7598  -48.5398 C.2       0 UNK         0.5000 
      3 O           7.3726  -14.7410  -47.8897 O.2       0 UNK        -0.5000 
      4 N           5.5701  -15.8657  -48.5478 N.am      1 UNK        -0.5000 
      5 CA          4.2774  -16.1667  -49.1847 C.3       1 UNK         0.1400 
      6 C6          4.1747  -15.8142  -50.7070 C.3       23 UNK        -0.0398 
      7 S7          3.1028  -14.4086  -51.2043 S.3       23 UNK        -0.2404 
      8 C8          1.8490  -15.2045  -52.2610 C.3       23 UNK        -0.0205 
      9 C9          0.9536  -16.1521  -51.4777 C.ar      23 UNK        -0.0193 
     10 C10        -0.1163  -15.6569  -50.7261 C.ar      23 UNK        -0.1150 
     11 C11        -0.9261  -16.5261  -49.9880 C.ar      23 UNK        -0.0193 
     12 C12        -0.6637  -17.8982  -50.0122 C.ar      23 UNK        -0.1150 
     13 C13         0.4052  -18.4026  -50.7586 C.ar      23 UNK        -0.0193 
     14 C14         1.1991  -17.5271  -51.5009 C.ar      23 UNK        -0.1150 
     15 C15         0.7072  -19.8919  -50.7716 C.3       23 UNK        -0.0205 
     16 S16         2.0659  -20.3250  -49.6377 S.3       23 UNK        -0.2404 
     17 C17         1.3020  -20.0609  -48.0001 C.3       23 UNK        -0.0398 
     18 CA          0.7309  -21.3583  -47.3811 C.3       11 UNK         0.1400 
     19 N           0.5482  -21.2333  -45.9344 N.am      11 UNK        -0.5000 
     20 C           0.2628  -22.2537  -45.1144 C.2       10 UNK         0.5000 
     21 O           0.1654  -23.4220  -45.4866 O.2       10 UNK        -0.5000 
     22 CA         -0.0046  -21.9097  -43.6396 C.3       10 UNK         0.1400 
     23 CB          1.3153  -21.7403  -42.8732 C.3       10 UNK        -0.1800 
     24 N          -0.8362  -20.7159  -43.4778 N.am      10 UNK        -0.5000 
     25 C          -2.0981  -20.6085  -43.9193 C.2       9 UNK         0.5000 
     26 O          -2.7016  -21.5168  -44.4876 O.2       9 UNK        -0.5000 
     27 CA         -2.7953  -19.2507  -43.7344 C.3       9 UNK         0.1400 
     28 CB         -3.2923  -19.0853  -42.2908 C.3       9 UNK        -0.1800 
     29 N          -1.9418  -18.1208  -44.0965 N.am      9 UNK        -0.5000 
     30 C          -1.4480  -17.8958  -45.3234 C.2       8 UNK         0.5000 
     31 O          -1.6734  -18.6112  -46.3007 O.2       8 UNK        -0.5000 
     32 CA         -0.4953  -16.6946  -45.4607 C.3       8 UNK         0.1400 
     33 CB         -1.2708  -15.3683  -45.3906 C.3       8 UNK        -0.1800 
     34 N           0.5424  -16.6967  -44.4298 N.am      8 UNK        -0.5000 
     35 C           1.4374  -17.6765  -44.2373 C.2       7 UNK         0.5000 
     36 O           1.5260  -18.6820  -44.9410 O.2       7 UNK        -0.5000 
     37 CA          2.3492  -17.5325  -43.0079 C.3       7 UNK         0.1400 
     38 CB          3.5173  -16.5762  -43.2979 C.3       7 UNK        -0.1800 
     39 N           1.6075  -17.0760  -41.8306 N.am      7 UNK        -0.5000 
     40 C           0.6844  -17.8080  -41.1886 C.2       6 UNK         0.5000 
     41 O           0.3792  -18.9559  -41.5072 O.2       6 UNK        -0.5000 
     42 CA         -0.0497  -17.1305  -40.0176 C.3       6 UNK         0.1400 
     43 CB          0.7933  -17.2001  -38.7355 C.3       6 UNK        -0.1800 
     44 N          -0.3888  -15.7366  -40.3010 N.am      6 UNK        -0.5000 
     45 C          -1.2640  -15.3435  -41.2375 C.2       5 UNK         0.5000 
     46 O          -1.9176  -16.1201  -41.9330 O.2       5 UNK        -0.5000 
     47 CA         -1.3815  -13.8254  -41.4733 C.3       5 UNK         0.1400 
     48 CB         -2.4090  -13.2065  -40.5143 C.3       5 UNK        -0.1800 
     49 N          -0.1007  -13.1222  -41.3386 N.am      5 UNK        -0.5000 
     50 C           0.9702  -13.3579  -42.1063 C.2       4 UNK         0.5000 
     51 O           0.9876  -14.1948  -43.0160 O.2       4 UNK        -0.5000 
     52 CA          2.2454  -12.5696  -41.7780 C.3       4 UNK         0.1400 
     53 CB          2.9410  -13.1348  -40.5277 C.3       4 UNK        -0.1800 
     54 N           3.1283  -12.6964  -42.9254 N.am      4 UNK        -0.5000 
     55 C           4.0316  -11.8132  -43.3564 C.2       3 UNK         0.5000 
     56 O           4.3343  -10.7863  -42.7478 O.2       3 UNK        -0.5000 
     57 CA          4.6975  -12.1293  -44.7130 C.3       3 UNK         0.1400 
     58 CB          6.1031  -12.7122  -44.5008 C.3       3 UNK        -0.1800 
     59 N           3.9229  -13.0615  -45.5424 N.am      3 UNK        -0.5000 
     60 C           2.7373  -12.7868  -46.1078 C.2       2 UNK         0.5000 
     61 O           2.1803  -11.6920  -46.0220 O.2       2 UNK        -0.5000 
     62 CA          2.0999  -13.9270  -46.9178 C.3       2 UNK         0.1400 
     63 CB          0.8939  -13.4778  -47.7662 C.3       2 UNK        -0.1800 
     64 N           3.1187  -14.5278  -47.7707 N.am      2 UNK        -0.5000 
     65 C           3.0879  -15.7606  -48.2860 C.2       1 UNK         0.5000 
     66 O           2.2065  -16.5802  -48.0331 O.2       1 UNK        -0.5000 
     67 C          -0.5670  -21.8190  -48.0792 C.2       11 UNK         0.5000 
     68 O          -0.5241  -22.7495  -48.8850 O.2       11 UNK        -0.5000 
     69 N          -1.7038  -21.1971  -47.7331 N.am      12 UNK        -0.5000 
     70 CA         -3.0258  -21.5631  -48.2473 C.3       12 UNK         0.1400 
     71 CB         -4.0613  -20.5279  -47.7861 C.3       12 UNK        -0.1800 
     72 C          -3.4519  -22.9903  -47.8482 C.2       12 UNK         0.5000 
     73 O          -4.0200  -23.7059  -48.6745 O.2       12 UNK        -0.5000 
     74 N          -3.1353  -23.3909  -46.6081 N.am      13 UNK        -0.5000 
     75 CA         -3.3488  -24.7390  -46.0826 C.3       13 UNK         0.1400 
     76 CB         -3.1328  -24.7480  -44.5623 C.3       13 UNK        -0.1800 
     77 C          -2.4587  -25.7918  -46.7658 C.2       13 UNK         0.5000 
     78 O          -2.9473  -26.8781  -47.0740 O.2       13 UNK        -0.5000 
     79 N          -1.1899  -25.4507  -47.0354 N.am      14 UNK        -0.5000 
     80 CA         -0.2457  -26.2872  -47.7845 C.3       14 UNK         0.1400 
     81 CB          1.1631  -25.6803  -47.7059 C.3       14 UNK        -0.1800 
     82 C          -0.6719  -26.4973  -49.2505 C.2       14 UNK         0.5000 
     83 O          -0.4901  -27.5897  -49.7885 O.2       14 UNK        -0.5000 
     84 N          -1.2810  -25.4649  -49.8483 N.am      15 UNK        -0.5000 
     85 CA         -1.9228  -25.5061  -51.1639 C.3       15 UNK         0.1400 
     86 CB         -2.0102  -24.0713  -51.7065 C.3       15 UNK        -0.1800 
     87 C          -3.3181  -26.1724  -51.1469 C.2       15 UNK         0.5000 
     88 O          -3.9362  -26.2994  -52.2056 O.2       15 UNK        -0.5000 
     89 N          -3.8082  -26.5538  -49.9554 N.am      16 UNK        -0.5000 
     90 CA         -5.0913  -27.2049  -49.6580 C.3       16 UNK         0.1400 
     91 CB         -5.0990  -28.6381  -50.2281 C.3       16 UNK        -0.1800 
     92 C          -6.3288  -26.3942  -50.0991 C.2       16 UNK         0.5000 
     93 O          -7.3978  -26.9736  -50.2968 O.2       16 UNK        -0.5000 
     94 N          -6.1489  -25.0783  -50.2919 N.am      17 UNK        -0.5000 
     95 CA         -7.0730  -24.1226  -50.9147 C.3       17 UNK         0.1400 
     96 CB         -8.3117  -23.9047  -50.0225 C.3       17 UNK        -0.1800 
     97 C          -7.4552  -24.4573  -52.3790 C.2       17 UNK         0.5000 
     98 O          -8.3649  -23.8296  -52.9237 O.2       17 UNK        -0.5000 
     99 N          -6.7573  -25.4179  -53.0038 N.am      18 UNK        -0.5000 
    100 CA        -6.9372  -25.8206  -54.4008 C.3       18 UNK         0.1400 
    101 CB        -6.4843  -27.2804  -54.5566 C.3       18 UNK        -0.1800 
    102 C         -6.1551  -24.9049  -55.3598 C.2       18 UNK         0.5000 
    103 O         -6.5006  -24.8055  -56.5377 O.2       18 UNK        -0.5000 
    104 N         -5.1304  -24.2414  -54.8215 N.am      19 UNK        -0.5000 
    105 CA        -4.3493  -23.1786  -55.4319 C.3       19 UNK         0.1400 
    106 CB        -3.0289  -23.7656  -55.9614 C.3       19 UNK        -0.1800 
    107 C         -4.1132  -22.1054  -54.3561 C.2       19 UNK         0.5000 
    108 O         -4.5066  -22.2999  -53.2014 O.2       19 UNK        -0.5000 
    109 N         -3.4684  -21.0003  -54.7538 N.am      20 UNK        -0.5000 
    110 CA        -3.1152  -19.8502  -53.9140 C.3       20 UNK         0.1400 
    111 CB        -2.0757  -20.2454  -52.8463 C.3       20 UNK        -0.1800 
    112 C         -4.3561  -19.1567  -53.3170 C.2       20 UNK         0.5000 
    113 O         -4.4599  -18.9853  -52.1010 O.2       20 UNK        -0.5000 
    114 N         -5.2847  -18.7642  -54.1993 N.am      21 UNK        -0.5000 
    115 CA        -6.5118  -18.0306  -53.8776 C.3       21 UNK         0.1400 
    116 CB        -7.5184  -18.2276  -55.0255 C.3       21 UNK        -0.1800 
    117 C         -6.2278  -16.5408  -53.5785 C.2       21 UNK         0.5000 
    118 O         -6.7154  -15.6550  -54.2830 O.2       21 UNK        -0.5000 
    119 N         -5.4098  -16.2998  -52.5500 N.am      22 UNK        -0.5000 
    120 CA        -4.9589  -14.9808  -52.0817 C.3       22 UNK         0.1400 
    121 C         -6.0203  -14.1504  -51.2993 C.2       22 UNK         0.5000 
    122 N         -7.1719  -14.7049  -50.9402 N.am      22 UNK        -0.7600 
    123 O         -5.8003  -12.9730  -51.0276 O.2       22 UNK        -0.5000 
    124 C124       -3.6186  -15.0962  -51.3083 C.3       23 UNK        -0.0398 
    125 S125       -3.6912  -16.2448  -49.8882 S.3       23 UNK        -0.2404 
    126 C126       -2.0600  -15.9870  -49.1302 C.3       23 UNK        -0.0205 
    127 H127        6.1899  -13.6218  -50.3735 H         1 UNK         0.0600 
    128 H128        4.8747  -13.2786  -49.2429 H         1 UNK         0.0600 
    129 H129        6.4763  -12.6437  -48.9415 H         1 UNK         0.0600 
    130 H130        5.9138  -16.6365  -47.9918 H         1 UNK         0.3000 
    131 H131        4.2613  -17.2581  -49.1523 H         1 UNK         0.0600 
    132 H132        5.1665  -15.6433  -51.1255 H         1 UNK         0.0800 
    133 H133        3.8278  -16.6994  -51.2377 H         1 UNK         0.0800 
    134 H134        1.2368  -14.4292  -52.7238 H         1 UNK         0.0800 
    135 H135        2.3435  -15.7287  -53.0804 H         1 UNK         0.0800 
    136 H136       -0.3051  -14.5930  -50.7023 H         1 UNK         0.1150 
    137 H137       -1.2872  -18.5697  -49.4379 H         1 UNK         0.1150 
    138 H138        2.0203  -17.9201  -52.0831 H         1 UNK         0.1150 
    139 H139       -0.1863  -20.4665  -50.5285 H         1 UNK         0.0800 
    140 H140        0.9885  -20.1936  -51.7814 H         1 UNK         0.0800 
    141 H141        0.5550  -19.2683  -48.0303 H         1 UNK         0.0800 
    142 H142        2.0970  -19.6744  -47.3614 H         1 UNK         0.0800 
    143 H143        1.4712  -22.1479  -47.5276 H         1 UNK         0.0600 
    144 H144        0.6521  -20.3011  -45.5419 H         1 UNK         0.3000 
    145 H145       -0.5443  -22.7498  -43.1980 H         1 UNK         0.0600 
    146 H146        1.1361  -21.6017  -41.8070 H         1 UNK         0.0600 
    147 H147        1.9477  -22.6220  -42.9837 H         1 UNK         0.0600 
    148 H148        1.8824  -20.8813  -43.2322 H         1 UNK         0.0600 
    149 H149       -0.4184  -19.9376  -42.9756 H         1 UNK         0.3000 
    150 H150       -3.6639  -19.2327  -44.3958 H         1 UNK         0.0600 
    151 H151       -3.9375  -19.9157  -42.0014 H         1 UNK         0.0600 
    152 H152       -3.8714  -18.1687  -42.1769 H         1 UNK         0.0600 
    153 H153       -2.4650  -19.0477  -41.5814 H         1 UNK         0.0600 
    154 H154       -1.7286  -17.4620  -43.3532 H         1 UNK         0.3000 
    155 H155       -0.0031  -16.7602  -46.4332 H         1 UNK         0.0600 
    156 H156       -0.6028  -14.5120  -45.4675 H         1 UNK         0.0600 
    157 H157       -1.8188  -15.2689  -44.4544 H         1 UNK         0.0600 
    158 H158       -1.9984  -15.2898  -46.1974 H         1 UNK         0.0600 
    159 H159        0.5660  -15.8935  -43.8081 H         1 UNK         0.3000 
    160 H160        2.7665  -18.5163  -42.7831 H         1 UNK         0.0600 
    161 H161        3.1718  -15.5777  -43.5611 H         1 UNK         0.0600 
    162 H162        4.1178  -16.9418  -44.1318 H         1 UNK         0.0600 
    163 H163        4.1787  -16.4865  -42.4360 H         1 UNK         0.0600 
    164 H164        1.7585  -16.1229  -41.5386 H         1 UNK         0.3000 
    165 H165       -0.9791  -17.6777  -39.8457 H         1 UNK         0.0600 
    166 H166        1.7270  -16.6450  -38.8342 H         1 UNK         0.0600 
    167 H167        0.2487  -16.7928  -37.8835 H         1 UNK         0.0600 
    168 H168        1.0489  -18.2325  -38.4929 H         1 UNK         0.0600 
    169 H169        0.1018  -15.0295  -39.7743 H         1 UNK         0.3000 
    170 H170       -1.7367  -13.6777  -42.4952 H         1 UNK         0.0600 
    171 H171       -3.3770  -13.7006  -40.6083 H         1 UNK         0.0600 
    172 H172       -2.0947  -13.2950  -39.4736 H         1 UNK         0.0600 
    173 H173       -2.5634  -12.1492  -40.7304 H         1 UNK         0.0600 
    174 H174       -0.0423  -12.4253  -40.6099 H         1 UNK         0.3000 
    175 H175        1.9818  -11.5212  -41.6244 H         1 UNK         0.0600 
    176 H176        3.8584  -12.5883  -40.3082 H         1 UNK         0.0600 
    177 H177        2.3002  -13.0555  -39.6490 H         1 UNK         0.0600 
    178 H178        3.2025  -14.1864  -40.6530 H         1 UNK         0.0600 
    179 H179        2.8909  -13.4757  -43.5245 H         1 UNK         0.3000 
    180 H180        4.7940  -11.1880  -45.2580 H         1 UNK         0.0600 
    181 H181        6.0677  -13.6640  -43.9691 H         1 UNK         0.0600 
    182 H182        6.7241  -12.0324  -43.9159 H         1 UNK         0.0600 
    183 H183        6.6106  -12.8769  -45.4518 H         1 UNK         0.0600 
    184 H184        4.3142  -13.9845  -45.6624 H         1 UNK         0.3000 
    185 H185        1.7606  -14.6689  -46.1927 H         1 UNK         0.0600 
    186 H186        0.4050  -14.3345  -48.2271 H         1 UNK         0.0600 
    187 H187        0.1445  -12.9688  -47.1595 H         1 UNK         0.0600 
    188 H188        1.1957  -12.7954  -48.5613 H         1 UNK         0.0600 
    189 H189        3.8880  -13.9219  -48.0147 H         1 UNK         0.3000 
    190 H190       -1.6680  -20.4212  -47.0772 H         1 UNK         0.3000 
    191 H191       -2.9780  -21.5275  -49.3379 H         1 UNK         0.0600 
    192 H192       -3.8052  -19.5301  -48.1441 H         1 UNK         0.0600 
    193 H193       -5.0525  -20.7679  -48.1728 H         1 UNK         0.0600 
    194 H194       -4.1313  -20.4853  -46.6988 H         1 UNK         0.0600 
    195 H195       -2.7335  -22.7141  -45.9644 H         1 UNK         0.3000 
    196 H196       -4.3887  -25.0102  -46.2765 H         1 UNK         0.0600 
    197 H197       -3.3038  -25.7426  -44.1487 H         1 UNK         0.0600 
    198 H198       -3.8211  -24.0658  -44.0631 H         1 UNK         0.0600 
    199 H199       -2.1178  -24.4517  -44.2975 H         1 UNK         0.0600 
    200 H200       -0.8353  -24.5624  -46.6918 H         1 UNK         0.3000 
    201 H201       -0.2179  -27.2681  -47.3055 H         1 UNK         0.0600 
    202 H202        1.5010  -25.6021  -46.6725 H         1 UNK         0.0600 
    203 H203        1.1991  -24.6836  -48.1456 H         1 UNK         0.0600 
    204 H204        1.8856  -26.3002  -48.2381 H         1 UNK         0.0600 
    205 H205       -1.3203  -24.5785  -49.3546 H         1 UNK         0.3000 
    206 H206       -1.2943  -26.0872  -51.8414 H         1 UNK         0.0600 
    207 H207       -1.0305  -23.5936  -51.7292 H         1 UNK         0.0600 
    208 H208       -2.3968  -24.0642  -52.7249 H         1 UNK         0.0600 
    209 H209       -2.6705  -23.4498  -51.1008 H         1 UNK         0.0600 
    210 H210       -3.2322  -26.3813  -49.1412 H         1 UNK         0.3000 
    211 H211       -5.1545  -27.2787  -48.5721 H         1 UNK         0.0600 
    212 H212       -5.1074  -28.6389  -51.3186 H         1 UNK         0.0600 
    213 H213       -5.9776  -29.1908  -49.8934 H         1 UNK         0.0600 
    214 H214       -4.2228  -29.1968  -49.8987 H         1 UNK         0.0600 
    215 H215       -5.2468  -24.6942  -50.0266 H         1 UNK         0.3000 
    216 H216       -6.5299  -23.1773  -50.9608 H         1 UNK         0.0600 
    217 H217       -8.0222  -23.6496  -49.0031 H         1 UNK         0.0600 
    218 H218       -8.9429  -24.7926  -49.9809 H         1 UNK         0.0600 
    219 H219       -8.9262  -23.0856  -50.3978 H         1 UNK         0.0600 
    220 H220       -5.9929  -25.8615  -52.5069 H         1 UNK         0.3000 
    221 H221       -7.9956  -25.7589  -54.6622 H         1 UNK         0.0600 
    222 H222       -5.4261  -27.4011  -54.3205 H         1 UNK         0.0600 
    223 H223       -7.0509  -27.9407  -53.8997 H         1 UNK         0.0600 
    224 H224       -6.6352  -27.6292  -55.5789 H         1 UNK         0.0600 
    225 H225       -4.9746  -24.3403  -53.8260 H         1 UNK         0.3000 
    226 H226       -4.9086  -22.7220  -56.2511 H         1 UNK         0.0600 
    227 H227       -3.2160  -24.5505  -56.6944 H         1 UNK         0.0600 
    228 H228       -2.4234  -23.0039  -56.4533 H         1 UNK         0.0600 
    229 H229       -2.4291  -24.1969  -55.1594 H         1 UNK         0.0600 
    230 H230       -3.1928  -20.9300  -55.7234 H         1 UNK         0.3000 
    231 H231       -2.6418  -19.1188  -54.5707 H         1 UNK         0.0600 
    232 H232       -1.7473  -19.3626  -52.2995 H         1 UNK         0.0600 
    233 H233       -1.1938  -20.6984  -53.2987 H         1 UNK         0.0600 
    234 H234       -2.4788  -20.9476  -52.1161 H         1 UNK         0.0600 
    235 H235       -5.1150  -18.9346  -55.1797 H         1 UNK         0.3000 
    236 H236       -6.9512  -18.4629  -52.9761 H         1 UNK         0.0600 
    237 H237       -8.4612  -17.7233  -54.8099 H         1 UNK         0.0600 
    238 H238       -7.1398  -17.8296  -55.9678 H         1 UNK         0.0600 
    239 H239       -7.7442  -19.2837  -55.1740 H         1 UNK         0.0600 
    240 H240       -5.0385  -17.0981  -52.0423 H         1 UNK         0.3000 
    241 H241       -4.7489  -14.3895  -52.9749 H         1 UNK         0.0600 
    242 H242       -7.3609  -15.6711  -51.1516 H         1 UNK         0.3800 
    243 H243       -7.8540  -14.1564  -50.4405 H         1 UNK         0.3800 
    244 H244       -2.8437  -15.4531  -51.9880 H         1 UNK         0.0800 
    245 H245       -3.2826  -14.1167  -50.9634 H         1 UNK         0.0800 
    246 H246       -2.0472  -16.5048  -48.1716 H         1 UNK         0.0800 
    247 H247       -1.9186  -14.9275  -48.9124 H         1 UNK         0.0800 
@<TRIPOS>BOND
     1    1    2 1    
     2    1  127 1    
     3    1  128 1    
     4    1  129 1    
     5    2    3 2    
     6    2    4 am   BACKBONE|DICT|INTERRES
     7    4    5 1    
     8    4  130 1    
     9    5    6 1    
    10    5   65 1    
    11    5  131 1    
    12    6    7 1    
    13    6  132 1    
    14    6  133 1    
    15    7    8 1    
    16    8    9 1    
    17    8  134 1    
    18    8  135 1    
    19    9   10 ar   
    20    9   14 ar   
    21   10   11 ar   
    22   10  136 1    
    23   11   12 ar   
    24   11  126 1    
    25   12   13 ar   
    26   12  137 1    
    27   13   14 ar   
    28   13   15 1    
    29   14  138 1    
    30   15   16 1    
    31   15  139 1    
    32   15  140 1    
    33   16   17 1    
    34   17   18 1    
    35   17  141 1    
    36   17  142 1    
    37   18   19 1    
    38   18   67 1    
    39   18  143 1    
    40   19   20 am   BACKBONE|DICT|INTERRES
    41   19  144 1    
    42   20   21 2    
    43   20   22 1    
    44   22   23 1    
    45   22   24 1    
    46   22  145 1    
    47   23  146 1    
    48   23  147 1    
    49   23  148 1    
    50   24   25 am   BACKBONE|DICT|INTERRES
    51   24  149 1    
    52   25   26 2    
    53   25   27 1    
    54   27   28 1    
    55   27   29 1    
    56   27  150 1    
    57   28  151 1    
    58   28  152 1    
    59   28  153 1    
    60   29   30 am   BACKBONE|DICT|INTERRES
    61   29  154 1    
    62   30   31 2    
    63   30   32 1    
    64   32   33 1    
    65   32   34 1    
    66   32  155 1    
    67   33  156 1    
    68   33  157 1    
    69   33  158 1    
    70   34   35 am   BACKBONE|DICT|INTERRES
    71   34  159 1    
    72   35   36 2    
    73   35   37 1    
    74   37   38 1    
    75   37   39 1    
    76   37  160 1    
    77   38  161 1    
    78   38  162 1    
    79   38  163 1    
    80   39   40 am   BACKBONE|DICT|INTERRES
    81   39  164 1    
    82   40   41 2    
    83   40   42 1    
    84   42   43 1    
    85   42   44 1    
    86   42  165 1    
    87   43  166 1    
    88   43  167 1    
    89   43  168 1    
    90   44   45 am   BACKBONE|DICT|INTERRES
    91   44  169 1    
    92   45   46 2    
    93   45   47 1    
    94   47   48 1    
    95   47   49 1    
    96   47  170 1    
    97   48  171 1    
    98   48  172 1    
    99   48  173 1    
   100   49   50 am   BACKBONE|DICT|INTERRES
   101   49  174 1    
   102   50   51 2    
   103   50   52 1    
   104   52   53 1    
   105   52   54 1    
   106   52  175 1    
   107   53  176 1    
   108   53  177 1    
   109   53  178 1    
   110   54   55 am   BACKBONE|DICT|INTERRES
   111   54  179 1    
   112   55   56 2    
   113   55   57 1    
   114   57   58 1    
   115   57   59 1    
   116   57  180 1    
   117   58  181 1    
   118   58  182 1    
   119   58  183 1    
   120   59   60 am   BACKBONE|DICT|INTERRES
   121   59  184 1    
   122   60   61 2    
   123   60   62 1    
   124   62   63 1    
   125   62   64 1    
   126   62  185 1    
   127   63  186 1    
   128   63  187 1    
   129   63  188 1    
   130   64   65 am   BACKBONE|DICT|INTERRES
   131   64  189 1    
   132   65   66 2    
   133   67   68 2    
   134   67   69 am   BACKBONE|DICT|INTERRES
   135   69   70 1    
   136   69  190 1    
   137   70   71 1    
   138   70   72 1    
   139   70  191 1    
   140   71  192 1    
   141   71  193 1    
   142   71  194 1    
   143   72   73 2    
   144   72   74 am   BACKBONE|DICT|INTERRES
   145   74   75 1    
   146   74  195 1    
   147   75   76 1    
   148   75   77 1    
   149   75  196 1    
   150   76  197 1    
   151   76  198 1    
   152   76  199 1    
   153   77   78 2    
   154   77   79 am   BACKBONE|DICT|INTERRES
   155   79   80 1    
   156   79  200 1    
   157   80   81 1    
   158   80   82 1    
   159   80  201 1    
   160   81  202 1    
   161   81  203 1    
   162   81  204 1    
   163   82   83 2    
   164   82   84 am   BACKBONE|DICT|INTERRES
   165   84   85 1    
   166   84  205 1    
   167   85   86 1    
   168   85   87 1    
   169   85  206 1    
   170   86  207 1    
   171   86  208 1    
   172   86  209 1    
   173   87   88 2    
   174   87   89 am   BACKBONE|DICT|INTERRES
   175   89   90 1    
   176   89  210 1    
   177   90   91 1    
   178   90   92 1    
   179   90  211 1    
   180   91  212 1    
   181   91  213 1    
   182   91  214 1    
   183   92   93 2    
   184   92   94 am   BACKBONE|DICT|INTERRES
   185   94   95 1    
   186   94  215 1    
   187   95   96 1    
   188   95   97 1    
   189   95  216 1    
   190   96  217 1    
   191   96  218 1    
   192   96  219 1    
   193   97   98 2    
   194   97   99 am   BACKBONE|DICT|INTERRES
   195   99  100 1    
   196   99  220 1    
   197  100  101 1    
   198  100  102 1    
   199  100  221 1    
   200  101  222 1    
   201  101  223 1    
   202  101  224 1    
   203  102  103 2    
   204  102  104 am   BACKBONE|DICT|INTERRES
   205  104  105 1    
   206  104  225 1    
   207  105  106 1    
   208  105  107 1    
   209  105  226 1    
   210  106  227 1    
   211  106  228 1    
   212  106  229 1    
   213  107  108 2    
   214  107  109 am   BACKBONE|DICT|INTERRES
   215  109  110 1    
   216  109  230 1    
   217  110  111 1    
   218  110  112 1    
   219  110  231 1    
   220  111  232 1    
   221  111  233 1    
   222  111  234 1    
   223  112  113 2    
   224  112  114 am   BACKBONE|DICT|INTERRES
   225  114  115 1    
   226  114  235 1    
   227  115  116 1    
   228  115  117 1    
   229  115  236 1    
   230  116  237 1    
   231  116  238 1    
   232  116  239 1    
   233  117  118 2    
   234  117  119 am   BACKBONE|DICT|INTERRES
   235  119  120 1    
   236  119  240 1    
   237  120  121 1    
   238  120  124 1    
   239  120  241 1    
   240  121  122 am   BACKBONE|DICT|INTERRES
   241  121  123 2    
   242  122  242 1    
   243  122  243 1    
   244  124  125 1    
   245  124  244 1    
   246  124  245 1    
   247  125  126 1    
   248  126  246 1    
   249  126  247 1    
@<TRIPOS>SUBSTRUCTURE
     1 UNK         1 GROUP             0       ****    0 ROOT    
