@<TRIPOS>MOLECULE
3R540
247   249    1
SMALL
USER_CHARGES


@<TRIPOS>ATOM
      1 CA          3.7263  -15.7056  -46.6596 C.3       0 UNK        -0.1800 
      2 C           2.8287  -14.8842  -45.7481 C.2       0 UNK         0.5000 
      3 O           3.1944  -13.7667  -45.3850 O.2       0 UNK        -0.5000 
      4 N           1.6632  -15.4312  -45.3686 N.am      1 UNK        -0.5000 
      5 CA          0.6954  -14.8711  -44.4041 C.3       1 UNK         0.1400 
      6 C6         -0.4721  -15.8667  -44.0936 C.3       23 UNK        -0.0398 
      7 S7         -2.2138  -15.2993  -44.2299 S.3       23 UNK        -0.2404 
      8 C8         -2.9402  -16.4749  -45.4199 C.3       23 UNK        -0.0205 
      9 C9         -2.7516  -16.0651  -46.8761 C.ar      23 UNK        -0.0193 
     10 C10        -3.8639  -15.9352  -47.7124 C.ar      23 UNK        -0.1150 
     11 C11        -3.7082  -15.6108  -49.0631 C.ar      23 UNK        -0.0193 
     12 C12        -2.4253  -15.3978  -49.5754 C.ar      23 UNK        -0.1150 
     13 C13        -1.3011  -15.5512  -48.7601 C.ar      23 UNK        -0.0193 
     14 C14        -1.4756  -15.8730  -47.4116 C.ar      23 UNK        -0.1150 
     15 C15         0.0988  -15.4086  -49.3498 C.3       23 UNK        -0.0205 
     16 S16         1.2029  -16.7972  -48.9142 S.3       23 UNK        -0.2404 
     17 C17         0.1686  -18.2338  -49.3505 C.3       23 UNK        -0.0398 
     18 CA          0.9873  -19.4675  -49.7979 C.3       11 UNK         0.1400 
     19 N           1.8853  -19.9291  -48.7347 N.am      11 UNK        -0.5000 
     20 C           3.0973  -20.4621  -48.9295 C.2       10 UNK         0.5000 
     21 O           3.6206  -20.5968  -50.0357 O.2       10 UNK        -0.5000 
     22 CA          3.8329  -20.9637  -47.6724 C.3       10 UNK         0.1400 
     23 CB          4.6979  -19.8469  -47.0690 C.3       10 UNK        -0.1800 
     24 N           2.9226  -21.4791  -46.6453 N.am      10 UNK        -0.5000 
     25 C           2.1836  -22.5917  -46.7706 C.2       9 UNK         0.5000 
     26 O           2.1782  -23.2975  -47.7785 O.2       9 UNK        -0.5000 
     27 CA          1.2582  -22.9537  -45.5947 C.3       9 UNK         0.1400 
     28 CB          1.9857  -23.8538  -44.5861 C.3       9 UNK        -0.1800 
     29 N           0.7325  -21.7774  -44.9010 N.am      9 UNK        -0.5000 
     30 C          -0.1412  -20.9125  -45.4322 C.2       8 UNK         0.5000 
     31 O          -0.6334  -21.0445  -46.5533 O.2       8 UNK        -0.5000 
     32 CA         -0.5080  -19.6818  -44.5871 C.3       8 UNK         0.1400 
     33 CB         -1.8043  -19.9141  -43.7993 C.3       8 UNK        -0.1800 
     34 N           0.5554  -19.2790  -43.6624 N.am      8 UNK        -0.5000 
     35 C           1.7129  -18.7221  -44.0344 C.2       7 UNK         0.5000 
     36 O           1.9645  -18.4322  -45.2051 O.2       7 UNK        -0.5000 
     37 CA          2.7397  -18.4374  -42.9169 C.3       7 UNK         0.1400 
     38 CB          4.0455  -17.8286  -43.4547 C.3       7 UNK        -0.1800 
     39 N           2.2205  -17.5798  -41.8445 N.am      7 UNK        -0.5000 
     40 C           1.4159  -17.9889  -40.8534 C.2       6 UNK         0.5000 
     41 O           0.9026  -19.1085  -40.8208 O.2       6 UNK        -0.5000 
     42 CA          1.1592  -17.0132  -39.6913 C.3       6 UNK         0.1400 
     43 CB          2.1229  -17.3169  -38.5338 C.3       6 UNK        -0.1800 
     44 N           1.3090  -15.6037  -40.0595 N.am      6 UNK        -0.5000 
     45 C           0.3033  -14.8053  -40.4333 C.2       5 UNK         0.5000 
     46 O          -0.8440  -15.2081  -40.6222 O.2       5 UNK        -0.5000 
     47 CA          0.6112  -13.3044  -40.6167 C.3       5 UNK         0.1400 
     48 CB          0.5903  -12.5673  -39.2637 C.3       5 UNK        -0.1800 
     49 N           1.8353  -13.0030  -41.3754 N.am      5 UNK        -0.5000 
     50 C           3.1134  -13.2229  -41.0346 C.2       4 UNK         0.5000 
     51 O           3.4506  -13.7665  -39.9821 O.2       4 UNK        -0.5000 
     52 CA          4.2069  -12.8165  -42.0409 C.3       4 UNK         0.1400 
     53 CB          4.9731  -14.0601  -42.5191 C.3       4 UNK        -0.1800 
     54 N           3.7043  -12.1042  -43.2192 N.am      4 UNK        -0.5000 
     55 C           3.5616  -10.7746  -43.3060 C.2       3 UNK         0.5000 
     56 O           3.7174  -10.0122  -42.3517 O.2       3 UNK        -0.5000 
     57 CA          3.2005  -10.1924  -44.6848 C.3       3 UNK         0.1400 
     58 CB          4.4582  -10.0668  -45.5593 C.3       3 UNK        -0.1800 
     59 N           2.2142  -11.0169  -45.3830 N.am      3 UNK        -0.5000 
     60 C           1.0232  -10.5853  -45.8228 C.2       2 UNK         0.5000 
     61 O           0.6528   -9.4124  -45.7533 O.2       2 UNK        -0.5000 
     62 CA          0.0643  -11.6350  -46.4311 C.3       2 UNK         0.1400 
     63 CB          0.1293  -11.6039  -47.9656 C.3       2 UNK        -0.1800 
     64 N           0.3059  -13.0064  -45.9781 N.am      2 UNK        -0.5000 
     65 C           0.2567  -13.4170  -44.7035 C.2       1 UNK         0.5000 
     66 O          -0.0518  -12.6803  -43.7674 O.2       1 UNK        -0.5000 
     67 C           0.0247  -20.5833  -50.2618 C.2       11 UNK         0.5000 
     68 O          -0.8067  -20.3225  -51.1300 O.2       11 UNK        -0.5000 
     69 N           0.0872  -21.7715  -49.6372 N.am      12 UNK        -0.5000 
     70 CA         -0.8277  -22.9120  -49.7947 C.3       12 UNK         0.1400 
     71 CB         -0.6945  -23.5392  -51.1976 C.3       12 UNK        -0.1800 
     72 C          -2.2955  -22.5982  -49.4187 C.2       12 UNK         0.5000 
     73 O          -3.1989  -23.3604  -49.7643 O.2       12 UNK        -0.5000 
     74 N          -2.5108  -21.5021  -48.6808 N.am      13 UNK        -0.5000 
     75 CA         -3.8089  -21.0445  -48.1912 C.3       13 UNK         0.1400 
     76 CB         -3.6888  -19.5711  -47.7716 C.3       13 UNK        -0.1800 
     77 C          -4.3234  -21.9123  -47.0291 C.2       13 UNK         0.5000 
     78 O          -5.5354  -22.0414  -46.8603 O.2       13 UNK        -0.5000 
     79 N          -3.3942  -22.5182  -46.2736 N.am      14 UNK        -0.5000 
     80 CA         -3.6880  -23.5093  -45.2361 C.3       14 UNK         0.1400 
     81 CB         -2.4318  -23.7507  -44.3854 C.3       14 UNK        -0.1800 
     82 C          -4.1935  -24.8422  -45.8208 C.2       14 UNK         0.5000 
     83 O          -5.0190  -25.5050  -45.1919 O.2       14 UNK        -0.5000 
     84 N          -3.6882  -25.2076  -47.0080 N.am      15 UNK        -0.5000 
     85 CA         -4.1153  -26.3868  -47.7587 C.3       15 UNK         0.1400 
     86 CB         -3.0157  -26.7941  -48.7535 C.3       15 UNK        -0.1800 
     87 C          -5.4506  -26.1301  -48.4764 C.2       15 UNK         0.5000 
     88 O          -6.3710  -26.9389  -48.3477 O.2       15 UNK        -0.5000 
     89 N          -5.5264  -24.9929  -49.1862 N.am      16 UNK        -0.5000 
     90 CA         -6.6630  -24.5077  -49.9745 C.3       16 UNK         0.1400 
     91 CB         -7.8676  -24.2056  -49.0562 C.3       16 UNK        -0.1800 
     92 C          -7.0240  -25.4374  -51.1567 C.2       16 UNK         0.5000 
     93 O          -6.2526  -26.3379  -51.4983 O.2       16 UNK        -0.5000 
     94 N          -8.1818  -25.1752  -51.7818 N.am      17 UNK        -0.5000 
     95 CA         -8.8355  -25.9002  -52.8840 C.3       17 UNK         0.1400 
     96 CB         -9.1814  -27.3435  -52.4703 C.3       17 UNK        -0.1800 
     97 C          -8.0904  -25.8774  -54.2353 C.2       17 UNK         0.5000 
     98 O          -8.7242  -25.6582  -55.2690 O.2       17 UNK        -0.5000 
     99 N          -6.7743  -26.1069  -54.2131 N.am      18 UNK        -0.5000 
    100 CA        -5.8781  -26.0602  -55.3647 C.3       18 UNK         0.1400 
    101 CB        -4.5234  -26.6588  -54.9536 C.3       18 UNK        -0.1800 
    102 C         -5.6852  -24.6245  -55.8822 C.2       18 UNK         0.5000 
    103 O         -5.7423  -23.6733  -55.1004 O.2       18 UNK        -0.5000 
    104 N         -5.3859  -24.4972  -57.1815 N.am      19 UNK        -0.5000 
    105 CA        -5.1235  -23.2234  -57.8639 C.3       19 UNK         0.1400 
    106 CB        -5.0203  -23.4825  -59.3750 C.3       19 UNK        -0.1800 
    107 C         -3.8691  -22.4798  -57.3562 C.2       19 UNK         0.5000 
    108 O         -3.7479  -21.2745  -57.5761 O.2       19 UNK        -0.5000 
    109 N         -2.9677  -23.2061  -56.6812 N.am      20 UNK        -0.5000 
    110 CA        -1.7755  -22.6751  -56.0233 C.3       20 UNK         0.1400 
    111 CB        -0.8367  -23.8454  -55.6896 C.3       20 UNK        -0.1800 
    112 C         -2.0801  -21.8597  -54.7502 C.2       20 UNK         0.5000 
    113 O         -1.2252  -21.0768  -54.3336 O.2       20 UNK        -0.5000 
    114 N         -3.2627  -22.0562  -54.1444 N.am      21 UNK        -0.5000 
    115 CA        -3.6927  -21.3704  -52.9256 C.3       21 UNK         0.1400 
    116 CB        -5.0205  -21.9640  -52.4360 C.3       21 UNK        -0.1800 
    117 C         -3.8040  -19.8501  -53.1356 C.2       21 UNK         0.5000 
    118 O         -4.5128  -19.4094  -54.0429 O.2       21 UNK        -0.5000 
    119 N         -3.0746  -19.0999  -52.3043 N.am      22 UNK        -0.5000 
    120 CA        -2.8491  -17.6484  -52.3899 C.3       22 UNK         0.1400 
    121 C         -1.8590  -17.2245  -53.5179 C.2       22 UNK         0.5000 
    122 N         -1.1500  -18.1370  -54.1725 N.am      22 UNK        -0.7600 
    123 O         -1.6972  -16.0368  -53.7843 O.2       22 UNK        -0.5000 
    124 C124       -4.1450  -16.7852  -52.3787 C.3       23 UNK        -0.0398 
    125 S125       -5.1956  -17.0513  -50.9068 S.3       23 UNK        -0.2404 
    126 C126       -4.9283  -15.5116  -49.9657 C.3       23 UNK        -0.0205 
    127 H127        4.7262  -15.7805  -46.2327 H         1 UNK         0.0600 
    128 H128        3.8041  -15.2299  -47.6369 H         1 UNK         0.0600 
    129 H129        3.3430  -16.7154  -46.7996 H         1 UNK         0.0600 
    130 H130        1.4773  -16.3772  -45.6812 H         1 UNK         0.3000 
    131 H131        1.2705  -14.7900  -43.4804 H         1 UNK         0.0600 
    132 H132       -0.3526  -16.2410  -43.0768 H         1 UNK         0.0800 
    133 H133       -0.3683  -16.7544  -44.7091 H         1 UNK         0.0800 
    134 H134       -2.5349  -17.4729  -45.2668 H         1 UNK         0.0800 
    135 H135       -4.0040  -16.5530  -45.1913 H         1 UNK         0.0800 
    136 H136       -4.8555  -16.1068  -47.3175 H         1 UNK         0.1150 
    137 H137       -2.3018  -15.1433  -50.6183 H         1 UNK         0.1150 
    138 H138       -0.6055  -16.0018  -46.7920 H         1 UNK         0.1150 
    139 H139        0.0510  -15.3351  -50.4375 H         1 UNK         0.0800 
    140 H140        0.5440  -14.4786  -48.9966 H         1 UNK         0.0800 
    141 H141       -0.5051  -17.9232  -50.1490 H         1 UNK         0.0800 
    142 H142       -0.4620  -18.4774  -48.4931 H         1 UNK         0.0800 
    143 H143        1.5751  -19.1785  -50.6717 H         1 UNK         0.0600 
    144 H144        1.5455  -19.8382  -47.7878 H         1 UNK         0.3000 
    145 H145        4.4928  -21.7784  -47.9781 H         1 UNK         0.0600 
    146 H146        5.2688  -20.2067  -46.2130 H         1 UNK         0.0600 
    147 H147        5.4129  -19.4686  -47.8007 H         1 UNK         0.0600 
    148 H148        4.0923  -19.0035  -46.7386 H         1 UNK         0.0600 
    149 H149        2.8402  -20.9339  -45.8001 H         1 UNK         0.3000 
    150 H150        0.4164  -23.5135  -46.0062 H         1 UNK         0.0600 
    151 H151        2.3725  -24.7511  -45.0713 H         1 UNK         0.0600 
    152 H152        1.3125  -24.1797  -43.7929 H         1 UNK         0.0600 
    153 H153        2.8294  -23.3412  -44.1223 H         1 UNK         0.0600 
    154 H154        1.0765  -21.6040  -43.9681 H         1 UNK         0.3000 
    155 H155       -0.6802  -18.8748  -45.2991 H         1 UNK         0.0600 
    156 H156       -2.1319  -18.9980  -43.3073 H         1 UNK         0.0600 
    157 H157       -1.6755  -20.6738  -43.0280 H         1 UNK         0.0600 
    158 H158       -2.6141  -20.2379  -44.4545 H         1 UNK         0.0600 
    159 H159        0.4113  -19.4536  -42.6715 H         1 UNK         0.3000 
    160 H160        2.9971  -19.4059  -42.4830 H         1 UNK         0.0600 
    161 H161        3.8755  -16.8580  -43.9148 H         1 UNK         0.0600 
    162 H162        4.4988  -18.4730  -44.2088 H         1 UNK         0.0600 
    163 H163        4.7792  -17.6986  -42.6590 H         1 UNK         0.0600 
    164 H164        2.5842  -16.6405  -41.8005 H         1 UNK         0.3000 
    165 H165        0.1432  -17.1932  -39.3332 H         1 UNK         0.0600 
    166 H166        1.9087  -16.6888  -37.6688 H         1 UNK         0.0600 
    167 H167        2.0335  -18.3548  -38.2100 H         1 UNK         0.0600 
    168 H168        3.1621  -17.1494  -38.8199 H         1 UNK         0.0600 
    169 H169        2.2152  -15.1692  -39.9021 H         1 UNK         0.3000 
    170 H170       -0.2098  -12.8947  -41.2055 H         1 UNK         0.0600 
    171 H171       -0.3704  -12.7011  -38.7649 H         1 UNK         0.0600 
    172 H172        1.3604  -12.9322  -38.5838 H         1 UNK         0.0600 
    173 H173        0.7402  -11.4959  -39.3969 H         1 UNK         0.0600 
    174 H174        1.6669  -12.5674  -42.2732 H         1 UNK         0.3000 
    175 H175        4.9115  -12.1750  -41.5076 H         1 UNK         0.0600 
    176 H176        4.3125  -14.7636  -43.0231 H         1 UNK         0.0600 
    177 H177        5.7692  -13.7916  -43.2139 H         1 UNK         0.0600 
    178 H178        5.4368  -14.5858  -41.6833 H         1 UNK         0.0600 
    179 H179        3.5670  -12.6734  -44.0524 H         1 UNK         0.3000 
    180 H180        2.8079   -9.1882  -44.5122 H         1 UNK         0.0600 
    181 H181        4.2285   -9.5831  -46.5088 H         1 UNK         0.0600 
    182 H182        4.8956  -11.0420  -45.7781 H         1 UNK         0.0600 
    183 H183        5.2218   -9.4657  -45.0640 H         1 UNK         0.0600 
    184 H184        2.4399  -12.0019  -45.4843 H         1 UNK         0.3000 
    185 H185       -0.9482  -11.3629  -46.1261 H         1 UNK         0.0600 
    186 H186        1.1097  -11.9102  -48.3324 H         1 UNK         0.0600 
    187 H187       -0.6185  -12.2646  -48.4052 H         1 UNK         0.0600 
    188 H188       -0.0645  -10.5998  -48.3453 H         1 UNK         0.0600 
    189 H189        0.5963  -13.6702  -46.6796 H         1 UNK         0.3000 
    190 H190        0.8110  -21.8976  -48.9418 H         1 UNK         0.3000 
    191 H191       -0.4974  -23.6599  -49.0727 H         1 UNK         0.0600 
    192 H192       -1.3147  -24.4311  -51.2941 H         1 UNK         0.0600 
    193 H193        0.3345  -23.8404  -51.3933 H         1 UNK         0.0600 
    194 H194       -0.9912  -22.8489  -51.9859 H         1 UNK         0.0600 
    195 H195       -1.7012  -21.0017  -48.3351 H         1 UNK         0.3000 
    196 H196       -4.5318  -21.1132  -49.0068 H         1 UNK         0.0600 
    197 H197       -3.3828  -18.9461  -48.6115 H         1 UNK         0.0600 
    198 H198       -4.6446  -19.1858  -47.4146 H         1 UNK         0.0600 
    199 H199       -2.9598  -19.4360  -46.9722 H         1 UNK         0.0600 
    200 H200       -2.4212  -22.3133  -46.4617 H         1 UNK         0.3000 
    201 H201       -4.4699  -23.1074  -44.5882 H         1 UNK         0.0600 
    202 H202       -1.6140  -24.1572  -44.9799 H         1 UNK         0.0600 
    203 H203       -2.6362  -24.4620  -43.5841 H         1 UNK         0.0600 
    204 H204       -2.0849  -22.8320  -43.9167 H         1 UNK         0.0600 
    205 H205       -3.0429  -24.5854  -47.4687 H         1 UNK         0.3000 
    206 H206       -4.2589  -27.2157  -47.0620 H         1 UNK         0.0600 
    207 H207       -2.0840  -27.0258  -48.2373 H         1 UNK         0.0600 
    208 H208       -3.3089  -27.6846  -49.3108 H         1 UNK         0.0600 
    209 H209       -2.8090  -26.0091  -49.4812 H         1 UNK         0.0600 
    210 H210       -4.6819  -24.4338  -49.2760 H         1 UNK         0.3000 
    211 H211       -6.3370  -23.5635  -50.4089 H         1 UNK         0.0600 
    212 H212       -8.6309  -23.6253  -49.5749 H         1 UNK         0.0600 
    213 H213       -7.5615  -23.6205  -48.1886 H         1 UNK         0.0600 
    214 H214       -8.3397  -25.1185  -48.6917 H         1 UNK         0.0600 
    215 H215       -8.7089  -24.3816  -51.4459 H         1 UNK         0.3000 
    216 H216       -9.7802  -25.3797  -53.0490 H         1 UNK         0.0600 
    217 H217       -9.7527  -27.8459  -53.2519 H         1 UNK         0.0600 
    218 H218       -8.2879  -27.9409  -52.2864 H         1 UNK         0.0600 
    219 H219       -9.7871  -27.3592  -51.5642 H         1 UNK         0.0600 
    220 H220       -6.3490  -26.2553  -53.3006 H         1 UNK         0.3000 
    221 H221       -6.3094  -26.6696  -56.1616 H         1 UNK         0.0600 
    222 H222       -4.6365  -27.6850  -54.6033 H         1 UNK         0.0600 
    223 H223       -4.0562  -26.0827  -54.1532 H         1 UNK         0.0600 
    224 H224       -3.8287  -26.6789  -55.7942 H         1 UNK         0.0600 
    225 H225       -5.3394  -25.3270  -57.7557 H         1 UNK         0.3000 
    226 H226       -5.9792  -22.5685  -57.6865 H         1 UNK         0.0600 
    227 H227       -4.1921  -24.1514  -59.6125 H         1 UNK         0.0600 
    228 H228       -5.9361  -23.9288  -59.7631 H         1 UNK         0.0600 
    229 H229       -4.8579  -22.5525  -59.9216 H         1 UNK         0.0600 
    230 H230       -3.1471  -24.1917  -56.5645 H         1 UNK         0.3000 
    231 H231       -1.2627  -22.0120  -56.7232 H         1 UNK         0.0600 
    232 H232       -1.3024  -24.5506  -54.9998 H         1 UNK         0.0600 
    233 H233        0.0820  -23.4885  -55.2220 H         1 UNK         0.0600 
    234 H234       -0.5507  -24.3919  -56.5886 H         1 UNK         0.0600 
    235 H235       -3.9444  -22.6698  -54.5750 H         1 UNK         0.3000 
    236 H236       -2.9437  -21.5676  -52.1588 H         1 UNK         0.0600 
    237 H237       -5.3135  -21.5217  -51.4833 H         1 UNK         0.0600 
    238 H238       -5.8290  -21.7852  -53.1456 H         1 UNK         0.0600 
    239 H239       -4.9342  -23.0405  -52.2873 H         1 UNK         0.0600 
    240 H240       -2.4347  -19.5842  -51.6790 H         1 UNK         0.3000 
    241 H241       -2.3124  -17.4126  -51.4740 H         1 UNK         0.0600 
    242 H242       -0.5065  -17.8365  -54.8866 H         1 UNK         0.3800 
    243 H243       -1.2501  -19.1298  -53.9816 H         1 UNK         0.3800 
    244 H244       -4.7457  -16.9813  -53.2667 H         1 UNK         0.0800 
    245 H245       -3.8947  -15.7256  -52.4365 H         1 UNK         0.0800 
    246 H246       -5.8178  -15.3195  -49.3638 H         1 UNK         0.0800 
    247 H247       -4.8363  -14.6572  -50.6374 H         1 UNK         0.0800 
@<TRIPOS>BOND
     1    1    2 1    
     2    1  127 1    
     3    1  128 1    
     4    1  129 1    
     5    2    3 2    
     6    2    4 am   BACKBONE|DICT|INTERRES
     7    4    5 1    
     8    4  130 1    
     9    5    6 1    
    10    5   65 1    
    11    5  131 1    
    12    6    7 1    
    13    6  132 1    
    14    6  133 1    
    15    7    8 1    
    16    8    9 1    
    17    8  134 1    
    18    8  135 1    
    19    9   10 ar   
    20    9   14 ar   
    21   10   11 ar   
    22   10  136 1    
    23   11   12 ar   
    24   11  126 1    
    25   12   13 ar   
    26   12  137 1    
    27   13   14 ar   
    28   13   15 1    
    29   14  138 1    
    30   15   16 1    
    31   15  139 1    
    32   15  140 1    
    33   16   17 1    
    34   17   18 1    
    35   17  141 1    
    36   17  142 1    
    37   18   19 1    
    38   18   67 1    
    39   18  143 1    
    40   19   20 am   BACKBONE|DICT|INTERRES
    41   19  144 1    
    42   20   21 2    
    43   20   22 1    
    44   22   23 1    
    45   22   24 1    
    46   22  145 1    
    47   23  146 1    
    48   23  147 1    
    49   23  148 1    
    50   24   25 am   BACKBONE|DICT|INTERRES
    51   24  149 1    
    52   25   26 2    
    53   25   27 1    
    54   27   28 1    
    55   27   29 1    
    56   27  150 1    
    57   28  151 1    
    58   28  152 1    
    59   28  153 1    
    60   29   30 am   BACKBONE|DICT|INTERRES
    61   29  154 1    
    62   30   31 2    
    63   30   32 1    
    64   32   33 1    
    65   32   34 1    
    66   32  155 1    
    67   33  156 1    
    68   33  157 1    
    69   33  158 1    
    70   34   35 am   BACKBONE|DICT|INTERRES
    71   34  159 1    
    72   35   36 2    
    73   35   37 1    
    74   37   38 1    
    75   37   39 1    
    76   37  160 1    
    77   38  161 1    
    78   38  162 1    
    79   38  163 1    
    80   39   40 am   BACKBONE|DICT|INTERRES
    81   39  164 1    
    82   40   41 2    
    83   40   42 1    
    84   42   43 1    
    85   42   44 1    
    86   42  165 1    
    87   43  166 1    
    88   43  167 1    
    89   43  168 1    
    90   44   45 am   BACKBONE|DICT|INTERRES
    91   44  169 1    
    92   45   46 2    
    93   45   47 1    
    94   47   48 1    
    95   47   49 1    
    96   47  170 1    
    97   48  171 1    
    98   48  172 1    
    99   48  173 1    
   100   49   50 am   BACKBONE|DICT|INTERRES
   101   49  174 1    
   102   50   51 2    
   103   50   52 1    
   104   52   53 1    
   105   52   54 1    
   106   52  175 1    
   107   53  176 1    
   108   53  177 1    
   109   53  178 1    
   110   54   55 am   BACKBONE|DICT|INTERRES
   111   54  179 1    
   112   55   56 2    
   113   55   57 1    
   114   57   58 1    
   115   57   59 1    
   116   57  180 1    
   117   58  181 1    
   118   58  182 1    
   119   58  183 1    
   120   59   60 am   BACKBONE|DICT|INTERRES
   121   59  184 1    
   122   60   61 2    
   123   60   62 1    
   124   62   63 1    
   125   62   64 1    
   126   62  185 1    
   127   63  186 1    
   128   63  187 1    
   129   63  188 1    
   130   64   65 am   BACKBONE|DICT|INTERRES
   131   64  189 1    
   132   65   66 2    
   133   67   68 2    
   134   67   69 am   BACKBONE|DICT|INTERRES
   135   69   70 1    
   136   69  190 1    
   137   70   71 1    
   138   70   72 1    
   139   70  191 1    
   140   71  192 1    
   141   71  193 1    
   142   71  194 1    
   143   72   73 2    
   144   72   74 am   BACKBONE|DICT|INTERRES
   145   74   75 1    
   146   74  195 1    
   147   75   76 1    
   148   75   77 1    
   149   75  196 1    
   150   76  197 1    
   151   76  198 1    
   152   76  199 1    
   153   77   78 2    
   154   77   79 am   BACKBONE|DICT|INTERRES
   155   79   80 1    
   156   79  200 1    
   157   80   81 1    
   158   80   82 1    
   159   80  201 1    
   160   81  202 1    
   161   81  203 1    
   162   81  204 1    
   163   82   83 2    
   164   82   84 am   BACKBONE|DICT|INTERRES
   165   84   85 1    
   166   84  205 1    
   167   85   86 1    
   168   85   87 1    
   169   85  206 1    
   170   86  207 1    
   171   86  208 1    
   172   86  209 1    
   173   87   88 2    
   174   87   89 am   BACKBONE|DICT|INTERRES
   175   89   90 1    
   176   89  210 1    
   177   90   91 1    
   178   90   92 1    
   179   90  211 1    
   180   91  212 1    
   181   91  213 1    
   182   91  214 1    
   183   92   93 2    
   184   92   94 am   BACKBONE|DICT|INTERRES
   185   94   95 1    
   186   94  215 1    
   187   95   96 1    
   188   95   97 1    
   189   95  216 1    
   190   96  217 1    
   191   96  218 1    
   192   96  219 1    
   193   97   98 2    
   194   97   99 am   BACKBONE|DICT|INTERRES
   195   99  100 1    
   196   99  220 1    
   197  100  101 1    
   198  100  102 1    
   199  100  221 1    
   200  101  222 1    
   201  101  223 1    
   202  101  224 1    
   203  102  103 2    
   204  102  104 am   BACKBONE|DICT|INTERRES
   205  104  105 1    
   206  104  225 1    
   207  105  106 1    
   208  105  107 1    
   209  105  226 1    
   210  106  227 1    
   211  106  228 1    
   212  106  229 1    
   213  107  108 2    
   214  107  109 am   BACKBONE|DICT|INTERRES
   215  109  110 1    
   216  109  230 1    
   217  110  111 1    
   218  110  112 1    
   219  110  231 1    
   220  111  232 1    
   221  111  233 1    
   222  111  234 1    
   223  112  113 2    
   224  112  114 am   BACKBONE|DICT|INTERRES
   225  114  115 1    
   226  114  235 1    
   227  115  116 1    
   228  115  117 1    
   229  115  236 1    
   230  116  237 1    
   231  116  238 1    
   232  116  239 1    
   233  117  118 2    
   234  117  119 am   BACKBONE|DICT|INTERRES
   235  119  120 1    
   236  119  240 1    
   237  120  121 1    
   238  120  124 1    
   239  120  241 1    
   240  121  122 am   BACKBONE|DICT|INTERRES
   241  121  123 2    
   242  122  242 1    
   243  122  243 1    
   244  124  125 1    
   245  124  244 1    
   246  124  245 1    
   247  125  126 1    
   248  126  246 1    
   249  126  247 1    
@<TRIPOS>SUBSTRUCTURE
     1 UNK         1 GROUP             0       ****    0 ROOT    
