@<TRIPOS>MOLECULE
3R540
247   249    1
SMALL
USER_CHARGES


@<TRIPOS>ATOM
      1 CA          2.7666  -13.0200  -51.3517 C.3       0 UNK        -0.1800 
      2 C           2.5222  -14.2427  -50.4785 C.2       0 UNK         0.5000 
      3 O           2.7766  -15.3658  -50.9137 O.2       0 UNK        -0.5000 
      4 N           2.0239  -14.0264  -49.2557 N.am      1 UNK        -0.5000 
      5 CA          1.7353  -15.0656  -48.2633 C.3       1 UNK         0.1400 
      6 C6          0.9190  -14.5161  -47.0675 C.3       23 UNK        -0.0398 
      7 S7         -0.5501  -13.5217  -47.5030 S.3       23 UNK        -0.2404 
      8 C8         -1.8865  -14.7554  -47.4404 C.3       23 UNK        -0.0205 
      9 C9         -1.9008  -15.6213  -48.6876 C.ar      23 UNK        -0.0193 
     10 C10        -2.3884  -15.1051  -49.8913 C.ar      23 UNK        -0.1150 
     11 C11        -2.3906  -15.8873  -51.0489 C.ar      23 UNK        -0.0193 
     12 C12        -1.8861  -17.1891  -50.9985 C.ar      23 UNK        -0.1150 
     13 C13        -1.4115  -17.7231  -49.7974 C.ar      23 UNK        -0.0193 
     14 C14        -1.4343  -16.9367  -48.6409 C.ar      23 UNK        -0.1150 
     15 C15        -0.9211  -19.1617  -49.7537 C.3       23 UNK        -0.0205 
     16 S16         0.6755  -19.3427  -48.8925 S.3       23 UNK        -0.2404 
     17 C17         0.9374  -21.1403  -49.0852 C.3       23 UNK        -0.0398 
     18 CA          0.5564  -21.9881  -47.8477 C.3       11 UNK         0.1400 
     19 N           1.3223  -21.6270  -46.6563 N.am      11 UNK        -0.5000 
     20 C           1.4555  -22.4171  -45.5830 C.2       10 UNK         0.5000 
     21 O           0.9615  -23.5413  -45.4924 O.2       10 UNK        -0.5000 
     22 CA          2.2171  -21.8156  -44.3907 C.3       10 UNK         0.1400 
     23 CB          3.7345  -21.9452  -44.5903 C.3       10 UNK        -0.1800 
     24 N           1.8712  -20.4118  -44.1620 N.am      10 UNK        -0.5000 
     25 C           0.6512  -19.9783  -43.8276 C.2       9 UNK         0.5000 
     26 O          -0.3284  -20.7181  -43.7087 O.2       9 UNK        -0.5000 
     27 CA          0.4920  -18.4575  -43.6663 C.3       9 UNK         0.1400 
     28 CB          0.0797  -17.8351  -45.0076 C.3       9 UNK        -0.1800 
     29 N          -0.4993  -18.1013  -42.6515 N.am      9 UNK        -0.5000 
     30 C          -0.4294  -18.4355  -41.3531 C.2       8 UNK         0.5000 
     31 O           0.5164  -19.0507  -40.8581 O.2       8 UNK        -0.5000 
     32 CA         -1.5900  -18.0042  -40.4340 C.3       8 UNK         0.1400 
     33 CB         -1.1199  -16.9467  -39.4217 C.3       8 UNK        -0.1800 
     34 N          -2.7423  -17.4820  -41.1679 N.am      8 UNK        -0.5000 
     35 C          -3.6613  -18.2405  -41.7818 C.2       7 UNK         0.5000 
     36 O          -3.6674  -19.4706  -41.7378 O.2       7 UNK        -0.5000 
     37 CA         -4.7604  -17.5119  -42.5826 C.3       7 UNK         0.1400 
     38 CB         -6.0972  -17.5582  -41.8262 C.3       7 UNK        -0.1800 
     39 N          -4.4488  -16.1156  -42.9014 N.am      7 UNK        -0.5000 
     40 C          -3.4750  -15.7107  -43.7274 C.2       6 UNK         0.5000 
     41 O          -2.7188  -16.4908  -44.3055 O.2       6 UNK        -0.5000 
     42 CA         -3.3214  -14.1890  -43.9505 C.3       6 UNK         0.1400 
     43 CB         -4.0938  -13.3254  -42.9273 C.3       6 UNK        -0.1800 
     44 N          -1.9232  -13.7487  -44.0147 N.am      6 UNK        -0.5000 
     45 C          -0.9762  -13.9212  -43.0818 C.2       5 UNK         0.5000 
     46 O          -1.1367  -14.5555  -42.0364 O.2       5 UNK        -0.5000 
     47 CA          0.3480  -13.1791  -43.3381 C.3       5 UNK         0.1400 
     48 CB          0.2393  -11.7225  -42.8597 C.3       5 UNK        -0.1800 
     49 N           1.4749  -13.8096  -42.6523 N.am      5 UNK        -0.5000 
     50 C           2.1664  -14.8447  -43.1384 C.2       4 UNK         0.5000 
     51 O           1.9447  -15.3598  -44.2342 O.2       4 UNK        -0.5000 
     52 CA          3.3091  -15.3823  -42.2665 C.3       4 UNK         0.1400 
     53 CB          2.7796  -16.0886  -41.0056 C.3       4 UNK        -0.1800 
     54 N           4.1023  -16.3145  -43.0610 N.am      4 UNK        -0.5000 
     55 C           5.3838  -16.6297  -42.8673 C.2       3 UNK         0.5000 
     56 O           6.0630  -16.1612  -41.9526 O.2       3 UNK        -0.5000 
     57 CA          6.0388  -17.6235  -43.8502 C.3       3 UNK         0.1400 
     58 CB          5.9235  -19.0651  -43.3178 C.3       3 UNK        -0.1800 
     59 N           5.5921  -17.5355  -45.2508 N.am      3 UNK        -0.5000 
     60 C           4.4062  -17.8662  -45.7782 C.2       2 UNK         0.5000 
     61 O           3.4453  -18.2610  -45.1170 O.2       2 UNK        -0.5000 
     62 CA          4.2912  -17.7994  -47.3106 C.3       2 UNK         0.1400 
     63 CB          4.2278  -19.2173  -47.8983 C.3       2 UNK        -0.1800 
     64 N           3.1079  -17.0488  -47.7322 N.am      2 UNK        -0.5000 
     65 C           3.0465  -15.7112  -47.7574 C.2       1 UNK         0.5000 
     66 O           3.9806  -14.9832  -47.4097 O.2       1 UNK        -0.5000 
     67 C          -0.9633  -21.9936  -47.5845 C.2       11 UNK         0.5000 
     68 O          -1.6628  -22.7991  -48.1893 O.2       11 UNK        -0.5000 
     69 N          -1.4530  -21.1285  -46.6824 N.am      12 UNK        -0.5000 
     70 CA         -2.8617  -21.0885  -46.2812 C.3       12 UNK         0.1400 
     71 CB         -3.1840  -19.7653  -45.5713 C.3       12 UNK        -0.1800 
     72 C          -3.2363  -22.2945  -45.4047 C.2       12 UNK         0.5000 
     73 O          -4.3063  -22.8720  -45.5958 O.2       12 UNK        -0.5000 
     74 N          -2.3304  -22.6760  -44.4934 N.am      13 UNK        -0.5000 
     75 CA         -2.4501  -23.8569  -43.6398 C.3       13 UNK         0.1400 
     76 CB         -1.3402  -23.8303  -42.5778 C.3       13 UNK        -0.1800 
     77 C          -2.4164  -25.1728  -44.4404 C.2       13 UNK         0.5000 
     78 O          -3.2202  -26.0666  -44.1725 O.2       13 UNK        -0.5000 
     79 N          -1.5036  -25.2615  -45.4182 N.am      14 UNK        -0.5000 
     80 CA         -1.3673  -26.4107  -46.3169 C.3       14 UNK         0.1400 
     81 CB          0.0276  -26.3724  -46.9600 C.3       14 UNK        -0.1800 
     82 C          -2.4479  -26.4661  -47.4152 C.2       14 UNK         0.5000 
     83 O          -2.6959  -27.5423  -47.9614 O.2       14 UNK        -0.5000 
     84 N          -3.0315  -25.3061  -47.7472 N.am      15 UNK        -0.5000 
     85 CA         -3.9031  -24.9959  -48.8851 C.3       15 UNK         0.1400 
     86 CB         -5.1893  -25.8446  -48.8973 C.3       15 UNK        -0.1800 
     87 C          -3.1355  -25.0584  -50.2185 C.2       15 UNK         0.5000 
     88 O          -2.9567  -24.0252  -50.8663 O.2       15 UNK        -0.5000 
     89 N          -2.6780  -26.2690  -50.5764 N.am      16 UNK        -0.5000 
     90 CA         -1.7114  -26.6096  -51.6299 C.3       16 UNK         0.1400 
     91 CB         -0.2977  -26.2176  -51.1515 C.3       16 UNK        -0.1800 
     92 C          -2.0244  -26.0369  -53.0305 C.2       16 UNK         0.5000 
     93 O          -1.0998  -25.7820  -53.8036 O.2       16 UNK        -0.5000 
     94 N          -3.3103  -25.7745  -53.3083 N.am      17 UNK        -0.5000 
     95 CA         -3.8768  -25.0134  -54.4342 C.3       17 UNK         0.1400 
     96 CB         -3.5496  -25.6686  -55.7891 C.3       17 UNK        -0.1800 
     97 C          -3.5114  -23.5109  -54.4388 C.2       17 UNK         0.5000 
     98 O          -4.3374  -22.6959  -54.8484 O.2       17 UNK        -0.5000 
     99 N          -2.3116  -23.1638  -53.9542 N.am      18 UNK        -0.5000 
    100 CA        -1.7478  -21.8200  -53.8241 C.3       18 UNK         0.1400 
    101 CB        -0.3870  -21.9205  -53.1183 C.3       18 UNK        -0.1800 
    102 C         -2.6555  -20.8229  -53.0843 C.2       18 UNK         0.5000 
    103 O         -2.7500  -19.6702  -53.5031 O.2       18 UNK        -0.5000 
    104 N         -3.3473  -21.2905  -52.0364 N.am      19 UNK        -0.5000 
    105 CA        -4.3065  -20.5032  -51.2566 C.3       19 UNK         0.1400 
    106 CB        -4.7024  -21.3065  -50.0105 C.3       19 UNK        -0.1800 
    107 C         -5.5632  -20.0688  -52.0426 C.2       19 UNK         0.5000 
    108 O         -6.2500  -19.1451  -51.6067 O.2       19 UNK        -0.5000 
    109 N         -5.8462  -20.7304  -53.1732 N.am      20 UNK        -0.5000 
    110 CA        -6.9411  -20.4062  -54.0887 C.3       20 UNK         0.1400 
    111 CB        -7.7035  -21.7021  -54.4116 C.3       20 UNK        -0.1800 
    112 C         -6.4364  -19.7351  -55.3827 C.2       20 UNK         0.5000 
    113 O         -7.2566  -19.3418  -56.2129 O.2       20 UNK        -0.5000 
    114 N         -5.1119  -19.6096  -55.5472 N.am      21 UNK        -0.5000 
    115 CA        -4.4546  -19.0942  -56.7513 C.3       21 UNK         0.1400 
    116 CB        -3.1287  -19.8490  -56.9480 C.3       21 UNK        -0.1800 
    117 C         -4.2258  -17.5690  -56.7140 C.2       21 UNK         0.5000 
    118 O         -3.5295  -17.0444  -57.5846 O.2       21 UNK        -0.5000 
    119 N         -4.7920  -16.8831  -55.7128 N.am      22 UNK        -0.5000 
    120 CA        -4.6388  -15.4379  -55.4697 C.3       22 UNK         0.1400 
    121 C         -5.2465  -14.5052  -56.5604 C.2       22 UNK         0.5000 
    122 N         -6.1225  -14.9839  -57.4355 N.am      22 UNK        -0.7600 
    123 O         -4.9159  -13.3236  -56.6108 O.2       22 UNK        -0.5000 
    124 C124       -5.1668  -15.0218  -54.0716 C.3       23 UNK        -0.0398 
    125 S125       -4.5801  -16.0731  -52.7010 S.3       23 UNK        -0.2404 
    126 C126       -2.9554  -15.3369  -52.3482 C.3       23 UNK        -0.0205 
    127 H127        3.8208  -12.9560  -51.6212 H         1 UNK         0.0600 
    128 H128        2.4887  -12.0963  -50.8435 H         1 UNK         0.0600 
    129 H129        2.1825  -13.0918  -52.2692 H         1 UNK         0.0600 
    130 H130        1.8386  -13.0808  -48.9546 H         1 UNK         0.3000 
    131 H131        1.1405  -15.8336  -48.7608 H         1 UNK         0.0600 
    132 H132        0.6039  -15.3399  -46.4311 H         1 UNK         0.0800 
    133 H133        1.5529  -13.8794  -46.4481 H         1 UNK         0.0800 
    134 H134       -1.7885  -15.3670  -46.5429 H         1 UNK         0.0800 
    135 H135       -2.8424  -14.2371  -47.3554 H         1 UNK         0.0800 
    136 H136       -2.7665  -14.0929  -49.9234 H         1 UNK         0.1150 
    137 H137       -1.8914  -17.7928  -51.8949 H         1 UNK         0.1150 
    138 H138       -1.0787  -17.3455  -47.7063 H         1 UNK         0.1150 
    139 H139       -1.6821  -19.7662  -49.2604 H         1 UNK         0.0800 
    140 H140       -0.8181  -19.5559  -50.7658 H         1 UNK         0.0800 
    141 H141        1.9936  -21.2932  -49.3104 H         1 UNK         0.0800 
    142 H142        0.4038  -21.4991  -49.9668 H         1 UNK         0.0800 
    143 H143        0.8207  -23.0196  -48.0922 H         1 UNK         0.0600 
    144 H144        1.7327  -20.7055  -46.6404 H         1 UNK         0.3000 
    145 H145        1.9375  -22.3822  -43.5001 H         1 UNK         0.0600 
    146 H146        4.2735  -21.6561  -43.6886 H         1 UNK         0.0600 
    147 H147        4.0136  -22.9755  -44.8150 H         1 UNK         0.0600 
    148 H148        4.0909  -21.3204  -45.4101 H         1 UNK         0.0600 
    149 H149        2.5970  -19.7192  -44.3338 H         1 UNK         0.3000 
    150 H150        1.4460  -18.0295  -43.3551 H         1 UNK         0.0600 
    151 H151        0.8743  -17.9245  -45.7482 H         1 UNK         0.0600 
    152 H152       -0.1425  -16.7766  -44.8891 H         1 UNK         0.0600 
    153 H153       -0.8084  -18.3076  -45.4206 H         1 UNK         0.0600 
    154 H154       -1.3133  -17.5980  -42.9818 H         1 UNK         0.3000 
    155 H155       -1.9035  -18.8874  -39.8734 H         1 UNK         0.0600 
    156 H156       -0.7490  -16.0495  -39.9167 H         1 UNK         0.0600 
    157 H157       -0.3100  -17.3332  -38.8018 H         1 UNK         0.0600 
    158 H158       -1.9281  -16.6526  -38.7519 H         1 UNK         0.0600 
    159 H159       -2.7850  -16.4786  -41.2821 H         1 UNK         0.3000 
    160 H160       -4.8828  -18.0503  -43.5243 H         1 UNK         0.0600 
    161 H161       -6.0424  -17.0180  -40.8803 H         1 UNK         0.0600 
    162 H162       -6.3844  -18.5862  -41.6009 H         1 UNK         0.0600 
    163 H163       -6.9016  -17.1211  -42.4181 H         1 UNK         0.0600 
    164 H164       -5.0235  -15.4151  -42.4559 H         1 UNK         0.3000 
    165 H165       -3.7470  -13.9899  -44.9346 H         1 UNK         0.0600 
    166 H166       -3.9448  -12.2635  -43.1240 H         1 UNK         0.0600 
    167 H167       -5.1680  -13.5058  -42.9797 H         1 UNK         0.0600 
    168 H168       -3.7688  -13.5179  -41.9039 H         1 UNK         0.0600 
    169 H169       -1.6779  -13.2300  -44.8460 H         1 UNK         0.3000 
    170 H170        0.5403  -13.1705  -44.4121 H         1 UNK         0.0600 
    171 H171       -0.5702  -11.2001  -43.3711 H         1 UNK         0.0600 
    172 H172        0.0415  -11.6642  -41.7886 H         1 UNK         0.0600 
    173 H173        1.1578  -11.1713  -43.0624 H         1 UNK         0.0600 
    174 H174        1.6804  -13.4692  -41.7247 H         1 UNK         0.3000 
    175 H175        3.9327  -14.5342  -41.9764 H         1 UNK         0.0600 
    176 H176        2.1888  -16.9664  -41.2621 H         1 UNK         0.0600 
    177 H177        3.5971  -16.4156  -40.3630 H         1 UNK         0.0600 
    178 H178        2.1466  -15.4281  -40.4123 H         1 UNK         0.0600 
    179 H179        3.6128  -16.7162  -43.8567 H         1 UNK         0.3000 
    180 H180        7.1006  -17.3734  -43.8740 H         1 UNK         0.0600 
    181 H181        6.3950  -19.7785  -43.9936 H         1 UNK         0.0600 
    182 H182        4.8842  -19.3639  -43.1813 H         1 UNK         0.0600 
    183 H183        6.4148  -19.1603  -42.3488 H         1 UNK         0.0600 
    184 H184        6.2987  -17.1922  -45.8865 H         1 UNK         0.3000 
    185 H185        5.1790  -17.3097  -47.7168 H         1 UNK         0.0600 
    186 H186        4.1434  -19.1926  -48.9850 H         1 UNK         0.0600 
    187 H187        5.1291  -19.7810  -47.6542 H         1 UNK         0.0600 
    188 H188        3.3788  -19.7777  -47.5087 H         1 UNK         0.0600 
    189 H189        2.3072  -17.5942  -48.0195 H         1 UNK         0.3000 
    190 H190       -0.8160  -20.5263  -46.1841 H         1 UNK         0.3000 
    191 H191       -3.4755  -21.1321  -47.1820 H         1 UNK         0.0600 
    192 H192       -4.2423  -19.7151  -45.3138 H         1 UNK         0.0600 
    193 H193       -2.9688  -18.9090  -46.2107 H         1 UNK         0.0600 
    194 H194       -2.6216  -19.6500  -44.6444 H         1 UNK         0.0600 
    195 H195       -1.5074  -22.0955  -44.3535 H         1 UNK         0.3000 
    196 H196       -3.4125  -23.8024  -43.1268 H         1 UNK         0.0600 
    197 H197       -0.3482  -23.8532  -43.0300 H         1 UNK         0.0600 
    198 H198       -1.4049  -22.9311  -41.9645 H         1 UNK         0.0600 
    199 H199       -1.4179  -24.6883  -41.9090 H         1 UNK         0.0600 
    200 H200       -0.8291  -24.5112  -45.5310 H         1 UNK         0.3000 
    201 H201       -1.4459  -27.3267  -45.7277 H         1 UNK         0.0600 
    202 H202        0.1630  -25.4787  -47.5707 H         1 UNK         0.0600 
    203 H203        0.1865  -27.2382  -47.6041 H         1 UNK         0.0600 
    204 H204        0.8120  -26.3824  -46.2029 H         1 UNK         0.0600 
    205 H205       -2.6813  -24.4798  -47.2790 H         1 UNK         0.3000 
    206 H206       -4.2050  -23.9580  -48.7417 H         1 UNK         0.0600 
    207 H207       -5.7335  -25.7403  -47.9586 H         1 UNK         0.0600 
    208 H208       -5.8564  -25.5202  -49.6967 H         1 UNK         0.0600 
    209 H209       -4.9917  -26.9052  -49.0514 H         1 UNK         0.0600 
    210 H210       -2.8787  -27.0211  -49.9249 H         1 UNK         0.3000 
    211 H211       -1.7399  -27.6949  -51.7346 H         1 UNK         0.0600 
    212 H212        0.4687  -26.5681  -51.8438 H         1 UNK         0.0600 
    213 H213       -0.0755  -26.6567  -50.1790 H         1 UNK         0.0600 
    214 H214       -0.1916  -25.1356  -51.0610 H         1 UNK         0.0600 
    215 H215       -3.9719  -25.9971  -52.5781 H         1 UNK         0.3000 
    216 H216       -4.9589  -25.0625  -54.3026 H         1 UNK         0.0600 
    217 H217       -2.4869  -25.6144  -56.0257 H         1 UNK         0.0600 
    218 H218       -4.0856  -25.1705  -56.5979 H         1 UNK         0.0600 
    219 H219       -3.8444  -26.7179  -55.8015 H         1 UNK         0.0600 
    220 H220       -1.7061  -23.9285  -53.6774 H         1 UNK         0.3000 
    221 H221       -1.5852  -21.4377  -54.8327 H         1 UNK         0.0600 
    222 H222        0.3100  -22.5321  -53.6915 H         1 UNK         0.0600 
    223 H223       -0.4845  -22.3657  -52.1271 H         1 UNK         0.0600 
    224 H224        0.0678  -20.9364  -52.9962 H         1 UNK         0.0600 
    225 H225       -3.2078  -22.2561  -51.7485 H         1 UNK         0.3000 
    226 H226       -3.8012  -19.5926  -50.9289 H         1 UNK         0.0600 
    227 H227       -5.2450  -22.2145  -50.2764 H         1 UNK         0.0600 
    228 H228       -3.8208  -21.5982  -49.4413 H         1 UNK         0.0600 
    229 H229       -5.3411  -20.7196  -49.3494 H         1 UNK         0.0600 
    230 H230       -5.2256  -21.4724  -53.4804 H         1 UNK         0.3000 
    231 H231       -7.6406  -19.7116  -53.6195 H         1 UNK         0.0600 
    232 H232       -7.0688  -22.4270  -54.9225 H         1 UNK         0.0600 
    233 H233       -8.5599  -21.5035  -55.0573 H         1 UNK         0.0600 
    234 H234       -8.0845  -22.1711  -53.5043 H         1 UNK         0.0600 
    235 H235       -4.4967  -19.8954  -54.7957 H         1 UNK         0.3000 
    236 H236       -5.0841  -19.3021  -57.6188 H         1 UNK         0.0600 
    237 H237       -2.4003  -19.5847  -56.1816 H         1 UNK         0.0600 
    238 H238       -3.2771  -20.9287  -56.9169 H         1 UNK         0.0600 
    239 H239       -2.6833  -19.6118  -57.9148 H         1 UNK         0.0600 
    240 H240       -5.3254  -17.3950  -55.0263 H         1 UNK         0.3000 
    241 H241       -3.5653  -15.2407  -55.4793 H         1 UNK         0.0600 
    242 H242       -6.5076  -14.3732  -58.1390 H         1 UNK         0.3800 
    243 H243       -6.4004  -15.9520  -57.4048 H         1 UNK         0.3800 
    244 H244       -4.9047  -13.9846  -53.8550 H         1 UNK         0.0800 
    245 H245       -6.2574  -15.0619  -54.0599 H         1 UNK         0.0800 
    246 H246       -2.2711  -15.5539  -53.1697 H         1 UNK         0.0800 
    247 H247       -3.0461  -14.2511  -52.2931 H         1 UNK         0.0800 
@<TRIPOS>BOND
     1    1    2 1    
     2    1  127 1    
     3    1  128 1    
     4    1  129 1    
     5    2    3 2    
     6    2    4 am   BACKBONE|DICT|INTERRES
     7    4    5 1    
     8    4  130 1    
     9    5    6 1    
    10    5   65 1    
    11    5  131 1    
    12    6    7 1    
    13    6  132 1    
    14    6  133 1    
    15    7    8 1    
    16    8    9 1    
    17    8  134 1    
    18    8  135 1    
    19    9   10 ar   
    20    9   14 ar   
    21   10   11 ar   
    22   10  136 1    
    23   11   12 ar   
    24   11  126 1    
    25   12   13 ar   
    26   12  137 1    
    27   13   14 ar   
    28   13   15 1    
    29   14  138 1    
    30   15   16 1    
    31   15  139 1    
    32   15  140 1    
    33   16   17 1    
    34   17   18 1    
    35   17  141 1    
    36   17  142 1    
    37   18   19 1    
    38   18   67 1    
    39   18  143 1    
    40   19   20 am   BACKBONE|DICT|INTERRES
    41   19  144 1    
    42   20   21 2    
    43   20   22 1    
    44   22   23 1    
    45   22   24 1    
    46   22  145 1    
    47   23  146 1    
    48   23  147 1    
    49   23  148 1    
    50   24   25 am   BACKBONE|DICT|INTERRES
    51   24  149 1    
    52   25   26 2    
    53   25   27 1    
    54   27   28 1    
    55   27   29 1    
    56   27  150 1    
    57   28  151 1    
    58   28  152 1    
    59   28  153 1    
    60   29   30 am   BACKBONE|DICT|INTERRES
    61   29  154 1    
    62   30   31 2    
    63   30   32 1    
    64   32   33 1    
    65   32   34 1    
    66   32  155 1    
    67   33  156 1    
    68   33  157 1    
    69   33  158 1    
    70   34   35 am   BACKBONE|DICT|INTERRES
    71   34  159 1    
    72   35   36 2    
    73   35   37 1    
    74   37   38 1    
    75   37   39 1    
    76   37  160 1    
    77   38  161 1    
    78   38  162 1    
    79   38  163 1    
    80   39   40 am   BACKBONE|DICT|INTERRES
    81   39  164 1    
    82   40   41 2    
    83   40   42 1    
    84   42   43 1    
    85   42   44 1    
    86   42  165 1    
    87   43  166 1    
    88   43  167 1    
    89   43  168 1    
    90   44   45 am   BACKBONE|DICT|INTERRES
    91   44  169 1    
    92   45   46 2    
    93   45   47 1    
    94   47   48 1    
    95   47   49 1    
    96   47  170 1    
    97   48  171 1    
    98   48  172 1    
    99   48  173 1    
   100   49   50 am   BACKBONE|DICT|INTERRES
   101   49  174 1    
   102   50   51 2    
   103   50   52 1    
   104   52   53 1    
   105   52   54 1    
   106   52  175 1    
   107   53  176 1    
   108   53  177 1    
   109   53  178 1    
   110   54   55 am   BACKBONE|DICT|INTERRES
   111   54  179 1    
   112   55   56 2    
   113   55   57 1    
   114   57   58 1    
   115   57   59 1    
   116   57  180 1    
   117   58  181 1    
   118   58  182 1    
   119   58  183 1    
   120   59   60 am   BACKBONE|DICT|INTERRES
   121   59  184 1    
   122   60   61 2    
   123   60   62 1    
   124   62   63 1    
   125   62   64 1    
   126   62  185 1    
   127   63  186 1    
   128   63  187 1    
   129   63  188 1    
   130   64   65 am   BACKBONE|DICT|INTERRES
   131   64  189 1    
   132   65   66 2    
   133   67   68 2    
   134   67   69 am   BACKBONE|DICT|INTERRES
   135   69   70 1    
   136   69  190 1    
   137   70   71 1    
   138   70   72 1    
   139   70  191 1    
   140   71  192 1    
   141   71  193 1    
   142   71  194 1    
   143   72   73 2    
   144   72   74 am   BACKBONE|DICT|INTERRES
   145   74   75 1    
   146   74  195 1    
   147   75   76 1    
   148   75   77 1    
   149   75  196 1    
   150   76  197 1    
   151   76  198 1    
   152   76  199 1    
   153   77   78 2    
   154   77   79 am   BACKBONE|DICT|INTERRES
   155   79   80 1    
   156   79  200 1    
   157   80   81 1    
   158   80   82 1    
   159   80  201 1    
   160   81  202 1    
   161   81  203 1    
   162   81  204 1    
   163   82   83 2    
   164   82   84 am   BACKBONE|DICT|INTERRES
   165   84   85 1    
   166   84  205 1    
   167   85   86 1    
   168   85   87 1    
   169   85  206 1    
   170   86  207 1    
   171   86  208 1    
   172   86  209 1    
   173   87   88 2    
   174   87   89 am   BACKBONE|DICT|INTERRES
   175   89   90 1    
   176   89  210 1    
   177   90   91 1    
   178   90   92 1    
   179   90  211 1    
   180   91  212 1    
   181   91  213 1    
   182   91  214 1    
   183   92   93 2    
   184   92   94 am   BACKBONE|DICT|INTERRES
   185   94   95 1    
   186   94  215 1    
   187   95   96 1    
   188   95   97 1    
   189   95  216 1    
   190   96  217 1    
   191   96  218 1    
   192   96  219 1    
   193   97   98 2    
   194   97   99 am   BACKBONE|DICT|INTERRES
   195   99  100 1    
   196   99  220 1    
   197  100  101 1    
   198  100  102 1    
   199  100  221 1    
   200  101  222 1    
   201  101  223 1    
   202  101  224 1    
   203  102  103 2    
   204  102  104 am   BACKBONE|DICT|INTERRES
   205  104  105 1    
   206  104  225 1    
   207  105  106 1    
   208  105  107 1    
   209  105  226 1    
   210  106  227 1    
   211  106  228 1    
   212  106  229 1    
   213  107  108 2    
   214  107  109 am   BACKBONE|DICT|INTERRES
   215  109  110 1    
   216  109  230 1    
   217  110  111 1    
   218  110  112 1    
   219  110  231 1    
   220  111  232 1    
   221  111  233 1    
   222  111  234 1    
   223  112  113 2    
   224  112  114 am   BACKBONE|DICT|INTERRES
   225  114  115 1    
   226  114  235 1    
   227  115  116 1    
   228  115  117 1    
   229  115  236 1    
   230  116  237 1    
   231  116  238 1    
   232  116  239 1    
   233  117  118 2    
   234  117  119 am   BACKBONE|DICT|INTERRES
   235  119  120 1    
   236  119  240 1    
   237  120  121 1    
   238  120  124 1    
   239  120  241 1    
   240  121  122 am   BACKBONE|DICT|INTERRES
   241  121  123 2    
   242  122  242 1    
   243  122  243 1    
   244  124  125 1    
   245  124  244 1    
   246  124  245 1    
   247  125  126 1    
   248  126  246 1    
   249  126  247 1    
@<TRIPOS>SUBSTRUCTURE
     1 UNK         1 GROUP             0       ****    0 ROOT    
