@<TRIPOS>MOLECULE
3R540
247   249    1
SMALL
USER_CHARGES


@<TRIPOS>ATOM
      1 CA         -4.8241  -19.6825  -41.4981 C.3       0 UNK        -0.1800 
      2 C          -5.4120  -18.6159  -42.4108 C.2       0 UNK         0.5000 
      3 O          -6.1093  -17.7164  -41.9409 O.2       0 UNK        -0.5000 
      4 N          -5.1220  -18.7003  -43.7143 N.am      1 UNK        -0.5000 
      5 CA         -5.5532  -17.7776  -44.7718 C.3       1 UNK         0.1400 
      6 C6         -5.6203  -18.4918  -46.1496 C.3       23 UNK        -0.0398 
      7 S7         -4.1243  -19.4554  -46.5716 S.3       23 UNK        -0.2404 
      8 C8         -3.6056  -18.6434  -48.1101 C.3       23 UNK        -0.0205 
      9 C9         -2.2195  -19.0802  -48.5683 C.ar      23 UNK        -0.0193 
     10 C10        -1.2174  -18.1264  -48.7664 C.ar      23 UNK        -0.1150 
     11 C11         0.0395  -18.4941  -49.2496 C.ar      23 UNK        -0.0193 
     12 C12         0.2983  -19.8431  -49.5058 C.ar      23 UNK        -0.1150 
     13 C13        -0.6717  -20.8224  -49.2616 C.ar      23 UNK        -0.0193 
     14 C14        -1.9382  -20.4265  -48.8190 C.ar      23 UNK        -0.1150 
     15 C15        -0.3710  -22.3074  -49.4518 C.3       23 UNK        -0.0205 
     16 S16         1.3259  -22.7698  -48.9610 S.3       23 UNK        -0.2404 
     17 C17         1.1193  -24.4582  -48.2872 C.3       23 UNK        -0.0398 
     18 CA          1.1447  -24.5318  -46.7362 C.3       11 UNK         0.1400 
     19 N           2.2294  -23.7355  -46.1483 N.am      11 UNK        -0.5000 
     20 C           2.6309  -23.7922  -44.8716 C.2       10 UNK         0.5000 
     21 O           2.2265  -24.6421  -44.0771 O.2       10 UNK        -0.5000 
     22 CA          3.6068  -22.7095  -44.3651 C.3       10 UNK         0.1400 
     23 CB          4.9418  -23.3163  -43.8892 C.3       10 UNK        -0.1800 
     24 N           3.8257  -21.5795  -45.2772 N.am      10 UNK        -0.5000 
     25 C           4.5172  -21.5435  -46.4255 C.2       9 UNK         0.5000 
     26 O           5.0249  -22.5312  -46.9555 O.2       9 UNK        -0.5000 
     27 CA          4.6691  -20.1646  -47.0955 C.3       9 UNK         0.1400 
     28 CB          3.5383  -19.9178  -48.0981 C.3       9 UNK        -0.1800 
     29 N           4.7033  -19.0622  -46.1334 N.am      9 UNK        -0.5000 
     30 C           5.7465  -18.7941  -45.3353 C.2       8 UNK         0.5000 
     31 O           6.8061  -19.4216  -45.3546 O.2       8 UNK        -0.5000 
     32 CA          5.5674  -17.6406  -44.3359 C.3       8 UNK         0.1400 
     33 CB          5.8039  -16.2841  -45.0171 C.3       8 UNK        -0.1800 
     34 N           4.2365  -17.6646  -43.7300 N.am      8 UNK        -0.5000 
     35 C           3.8907  -18.4690  -42.7150 C.2       7 UNK         0.5000 
     36 O           4.6715  -19.2439  -42.1617 O.2       7 UNK        -0.5000 
     37 CA          2.4309  -18.4028  -42.2280 C.3       7 UNK         0.1400 
     38 CB          2.3053  -17.4408  -41.0370 C.3       7 UNK        -0.1800 
     39 N           1.4856  -17.9965  -43.2677 N.am      7 UNK        -0.5000 
     40 C           1.1304  -18.7578  -44.3105 C.2       6 UNK         0.5000 
     41 O           1.5840  -19.8810  -44.5297 O.2       6 UNK        -0.5000 
     42 CA          0.1177  -18.1387  -45.2875 C.3       6 UNK         0.1400 
     43 CB         -1.2989  -18.2120  -44.7009 C.3       6 UNK        -0.1800 
     44 N           0.3861  -16.7430  -45.6366 N.am      6 UNK        -0.5000 
     45 C           1.5273  -16.2166  -46.0920 C.2       5 UNK         0.5000 
     46 O           2.5739  -16.8614  -46.1930 O.2       5 UNK        -0.5000 
     47 CA          1.4854  -14.7235  -46.5058 C.3       5 UNK         0.1400 
     48 CB          2.7483  -14.3019  -47.2784 C.3       5 UNK        -0.1800 
     49 N           0.3098  -14.3257  -47.2984 N.am      5 UNK        -0.5000 
     50 C          -0.9503  -14.2097  -46.8568 C.2       4 UNK         0.5000 
     51 O          -1.2941  -14.5327  -45.7168 O.2       4 UNK        -0.5000 
     52 CA         -1.9834  -13.6177  -47.8373 C.3       4 UNK         0.1400 
     53 CB         -2.2074  -14.4981  -49.0793 C.3       4 UNK        -0.1800 
     54 N          -3.2573  -13.4639  -47.1447 N.am      4 UNK        -0.5000 
     55 C          -3.9820  -12.3424  -47.0561 C.2       3 UNK         0.5000 
     56 O          -3.7337  -11.3131  -47.6853 O.2       3 UNK        -0.5000 
     57 CA         -5.1789  -12.3653  -46.0787 C.3       3 UNK         0.1400 
     58 CB         -6.4888  -12.6265  -46.8378 C.3       3 UNK        -0.1800 
     59 N          -5.0320  -13.3754  -45.0276 N.am      3 UNK        -0.5000 
     60 C          -4.0963  -13.3534  -44.0689 C.2       2 UNK         0.5000 
     61 O          -3.3924  -12.3682  -43.8411 O.2       2 UNK        -0.5000 
     62 CA         -3.8827  -14.6398  -43.2399 C.3       2 UNK         0.1400 
     63 CB         -4.0843  -14.3652  -41.7405 C.3       2 UNK        -0.1800 
     64 N          -4.7042  -15.7998  -43.6066 N.am      2 UNK        -0.5000 
     65 C          -4.7148  -16.4749  -44.7643 C.2       1 UNK         0.5000 
     66 O          -4.1092  -16.1054  -45.7710 O.2       1 UNK        -0.5000 
     67 C          -0.2143  -24.1486  -46.1151 C.2       11 UNK         0.5000 
     68 O          -0.9699  -25.0299  -45.7038 O.2       11 UNK        -0.5000 
     69 N          -0.4516  -22.8322  -46.0161 N.am      12 UNK        -0.5000 
     70 CA         -1.5638  -22.1647  -45.3425 C.3       12 UNK         0.1400 
     71 CB         -1.3064  -22.1567  -43.8195 C.3       12 UNK        -0.1800 
     72 C          -2.9587  -22.6997  -45.7360 C.2       12 UNK         0.5000 
     73 O          -3.1620  -23.1145  -46.8804 O.2       12 UNK        -0.5000 
     74 N          -3.9049  -22.6600  -44.7880 N.am      13 UNK        -0.5000 
     75 CA         -5.3194  -22.9971  -44.9687 C.3       13 UNK         0.1400 
     76 CB         -6.1007  -22.5394  -43.7275 C.3       13 UNK        -0.1800 
     77 C          -5.6007  -24.4819  -45.2748 C.2       13 UNK         0.5000 
     78 O          -6.7202  -24.8065  -45.6711 O.2       13 UNK        -0.5000 
     79 N          -4.5959  -25.3553  -45.1115 N.am      14 UNK        -0.5000 
     80 CA         -4.6531  -26.7563  -45.5333 C.3       14 UNK         0.1400 
     81 CB         -3.4636  -27.5229  -44.9367 C.3       14 UNK        -0.1800 
     82 C          -4.6878  -26.9025  -47.0680 C.2       14 UNK         0.5000 
     83 O          -5.2964  -27.8493  -47.5683 O.2       14 UNK        -0.5000 
     84 N          -4.0643  -25.9523  -47.7788 N.am      15 UNK        -0.5000 
     85 CA         -4.1457  -25.8153  -49.2315 C.3       15 UNK         0.1400 
     86 CB         -2.7419  -25.5554  -49.7969 C.3       15 UNK        -0.1800 
     87 C          -5.1072  -24.6781  -49.6163 C.2       15 UNK         0.5000 
     88 O          -5.9082  -24.8539  -50.5344 O.2       15 UNK        -0.5000 
     89 N          -5.0093  -23.5401  -48.9073 N.am      16 UNK        -0.5000 
     90 CA         -5.7951  -22.3096  -49.0724 C.3       16 UNK         0.1400 
     91 CB         -7.2633  -22.5412  -48.6607 C.3       16 UNK        -0.1800 
     92 C          -5.6571  -21.6758  -50.4745 C.2       16 UNK         0.5000 
     93 O          -6.6094  -21.0818  -50.9824 O.2       16 UNK        -0.5000 
     94 N          -4.4714  -21.8345  -51.0798 N.am      17 UNK        -0.5000 
     95 CA         -4.1596  -21.4252  -52.4496 C.3       17 UNK         0.1400 
     96 CB         -2.7818  -21.9861  -52.8270 C.3       17 UNK        -0.1800 
     97 C          -4.1988  -19.9029  -52.6681 C.2       17 UNK         0.5000 
     98 O          -4.6617  -19.4551  -53.7185 O.2       17 UNK        -0.5000 
     99 N          -3.7098  -19.1439  -51.6751 N.am      18 UNK        -0.5000 
    100 CA        -3.6207  -17.6807  -51.6528 C.3       18 UNK         0.1400 
    101 CB        -5.0211  -17.0604  -51.4512 C.3       18 UNK        -0.1800 
    102 C         -2.8602  -17.1528  -52.8837 C.2       18 UNK         0.5000 
    103 O         -1.6891  -17.4945  -53.0516 O.2       18 UNK        -0.5000 
    104 N         -3.5391  -16.3869  -53.7471 N.am      19 UNK        -0.5000 
    105 CA        -3.0084  -15.8238  -54.9897 C.3       19 UNK         0.1400 
    106 CB        -4.0899  -14.9491  -55.6410 C.3       19 UNK        -0.1800 
    107 C         -2.4819  -16.8667  -55.9978 C.2       19 UNK         0.5000 
    108 O         -1.6073  -16.5314  -56.7970 O.2       19 UNK        -0.5000 
    109 N         -2.9828  -18.1100  -55.9361 N.am      20 UNK        -0.5000 
    110 CA        -2.5194  -19.2136  -56.7812 C.3       20 UNK         0.1400 
    111 CB        -3.5442  -20.3575  -56.7437 C.3       20 UNK        -0.1800 
    112 C         -1.1137  -19.7251  -56.4032 C.2       20 UNK         0.5000 
    113 O         -0.4451  -20.3092  -57.2570 O.2       20 UNK        -0.5000 
    114 N         -0.6887  -19.4971  -55.1525 N.am      21 UNK        -0.5000 
    115 CA         0.6427  -19.8435  -54.6533 C.3       21 UNK         0.1400 
    116 CB         0.5088  -20.5737  -53.3063 C.3       21 UNK        -0.1800 
    117 C          1.5224  -18.5951  -54.4890 C.2       21 UNK         0.5000 
    118 O          2.7011  -18.6322  -54.8451 O.2       21 UNK        -0.5000 
    119 N          0.9387  -17.5283  -53.9343 N.am      22 UNK        -0.5000 
    120 CA         1.6381  -16.3356  -53.4357 C.3       22 UNK         0.1400 
    121 C          1.3206  -15.0375  -54.2310 C.2       22 UNK         0.5000 
    122 N          0.6076  -15.0894  -55.3483 N.am      22 UNK        -0.7600 
    123 O          1.7521  -13.9550  -53.8436 O.2       22 UNK        -0.5000 
    124 C124        1.3847  -16.1608  -51.9144 C.3       23 UNK        -0.0398 
    125 S125        2.0724  -17.5521  -50.9540 S.3       23 UNK        -0.2404 
    126 C126        1.1347  -17.4433  -49.3977 C.3       23 UNK        -0.0205 
    127 H127       -4.2525  -19.2159  -40.6958 H         1 UNK         0.0600 
    128 H128       -5.6225  -20.2743  -41.0506 H         1 UNK         0.0600 
    129 H129       -4.1603  -20.3578  -42.0381 H         1 UNK         0.0600 
    130 H130       -4.5172  -19.4397  -44.0406 H         1 UNK         0.3000 
    131 H131       -6.5743  -17.4650  -44.5425 H         1 UNK         0.0600 
    132 H132       -5.8551  -17.7818  -46.9445 H         1 UNK         0.0800 
    133 H133       -6.4541  -19.1948  -46.1405 H         1 UNK         0.0800 
    134 H134       -3.6335  -17.5627  -47.9665 H         1 UNK         0.0800 
    135 H135       -4.3339  -18.8742  -48.8870 H         1 UNK         0.0800 
    136 H136       -1.4099  -17.0926  -48.5332 H         1 UNK         0.1150 
    137 H137        1.2747  -20.1321  -49.8653 H         1 UNK         0.1150 
    138 H138       -2.7029  -21.1689  -48.6427 H         1 UNK         0.1150 
    139 H139       -1.0742  -22.8838  -48.8528 H         1 UNK         0.0800 
    140 H140       -0.5325  -22.5852  -50.4933 H         1 UNK         0.0800 
    141 H141        1.9468  -25.0527  -48.6762 H         1 UNK         0.0800 
    142 H142        0.2190  -24.9223  -48.6937 H         1 UNK         0.0800 
    143 H143        1.3265  -25.5745  -46.4665 H         1 UNK         0.0600 
    144 H144        2.6391  -23.0329  -46.7471 H         1 UNK         0.3000 
    145 H145        3.1245  -22.2708  -43.4902 H         1 UNK         0.0600 
    146 H146        5.6050  -22.5467  -43.4935 H         1 UNK         0.0600 
    147 H147        4.7770  -24.0428  -43.0927 H         1 UNK         0.0600 
    148 H148        5.4658  -23.8326  -44.6936 H         1 UNK         0.0600 
    149 H149        3.3527  -20.7269  -44.9946 H         1 UNK         0.3000 
    150 H150        5.6115  -20.1691  -47.6473 H         1 UNK         0.0600 
    151 H151        3.4968  -20.7133  -48.8423 H         1 UNK         0.0600 
    152 H152        3.6972  -18.9847  -48.6372 H         1 UNK         0.0600 
    153 H153        2.5664  -19.8675  -47.6051 H         1 UNK         0.0600 
    154 H154        3.8842  -18.4652  -46.0832 H         1 UNK         0.3000 
    155 H155        6.3168  -17.7538  -43.5494 H         1 UNK         0.0600 
    156 H156        5.1285  -16.1303  -45.8582 H         1 UNK         0.0600 
    157 H157        6.8220  -16.2170  -45.4022 H         1 UNK         0.0600 
    158 H158        5.6651  -15.4595  -44.3177 H         1 UNK         0.0600 
    159 H159        3.5228  -17.1068  -44.1796 H         1 UNK         0.3000 
    160 H160        2.1530  -19.4032  -41.8887 H         1 UNK         0.0600 
    161 H161        1.2930  -17.4435  -40.6324 H         1 UNK         0.0600 
    162 H162        2.5528  -16.4166  -41.3188 H         1 UNK         0.0600 
    163 H163        2.9777  -17.7303  -40.2282 H         1 UNK         0.0600 
    164 H164        1.0725  -17.0799  -43.1782 H         1 UNK         0.3000 
    165 H165        0.1467  -18.7237  -46.2085 H         1 UNK         0.0600 
    166 H166       -2.0295  -17.8653  -45.4294 H         1 UNK         0.0600 
    167 H167       -1.5682  -19.2282  -44.4188 H         1 UNK         0.0600 
    168 H168       -1.4027  -17.5886  -43.8120 H         1 UNK         0.0600 
    169 H169       -0.4044  -16.1049  -45.5715 H         1 UNK         0.3000 
    170 H170        1.4643  -14.1509  -45.5765 H         1 UNK         0.0600 
    171 H171        3.6466  -14.4628  -46.6824 H         1 UNK         0.0600 
    172 H172        2.8604  -14.8680  -48.2042 H         1 UNK         0.0600 
    173 H173        2.7224  -13.2422  -47.5327 H         1 UNK         0.0600 
    174 H174        0.5069  -14.0444  -48.2473 H         1 UNK         0.3000 
    175 H175       -1.5980  -12.6467  -48.1545 H         1 UNK         0.0600 
    176 H176       -2.7681  -15.3989  -48.8328 H         1 UNK         0.0600 
    177 H177       -2.7840  -13.9587  -49.8309 H         1 UNK         0.0600 
    178 H178       -1.2695  -14.7958  -49.5487 H         1 UNK         0.0600 
    179 H179       -3.5047  -14.2482  -46.5478 H         1 UNK         0.3000 
    180 H180       -5.2419  -11.3833  -45.6055 H         1 UNK         0.0600 
    181 H181       -6.4845  -13.6040  -47.3220 H         1 UNK         0.0600 
    182 H182       -6.6464  -11.8762  -47.6137 H         1 UNK         0.0600 
    183 H183       -7.3482  -12.5858  -46.1683 H         1 UNK         0.0600 
    184 H184       -5.5500  -14.2325  -45.1508 H         1 UNK         0.3000 
    185 H185       -2.8412  -14.9297  -43.3917 H         1 UNK         0.0600 
    186 H186       -3.8362  -15.2420  -41.1419 H         1 UNK         0.0600 
    187 H187       -3.4453  -13.5506  -41.3969 H         1 UNK         0.0600 
    188 H188       -5.1164  -14.0895  -41.5205 H         1 UNK         0.0600 
    189 H189       -5.2499  -16.2051  -42.8517 H         1 UNK         0.3000 
    190 H190        0.2353  -22.2126  -46.4209 H         1 UNK         0.3000 
    191 H191       -1.5379  -21.1348  -45.6976 H         1 UNK         0.0600 
    192 H192       -1.3867  -23.1573  -43.3925 H         1 UNK         0.0600 
    193 H193       -2.0043  -21.5058  -43.2922 H         1 UNK         0.0600 
    194 H194       -0.3054  -21.7859  -43.5971 H         1 UNK         0.0600 
    195 H195       -3.6393  -22.3485  -43.8660 H         1 UNK         0.3000 
    196 H196       -5.6848  -22.4260  -45.8244 H         1 UNK         0.0600 
    197 H197       -5.7312  -23.0169  -42.8193 H         1 UNK         0.0600 
    198 H198       -7.1607  -22.7808  -43.8175 H         1 UNK         0.0600 
    199 H199       -6.0318  -21.4607  -43.5964 H         1 UNK         0.0600 
    200 H200       -3.7017  -25.0116  -44.7913 H         1 UNK         0.3000 
    201 H201       -5.5714  -27.1943  -45.1364 H         1 UNK         0.0600 
    202 H202       -3.4492  -27.4475  -43.8494 H         1 UNK         0.0600 
    203 H203       -2.5118  -27.1483  -45.3130 H         1 UNK         0.0600 
    204 H204       -3.5193  -28.5826  -45.1885 H         1 UNK         0.0600 
    205 H205       -3.6008  -25.2038  -47.2779 H         1 UNK         0.3000 
    206 H206       -4.5212  -26.7356  -49.6838 H         1 UNK         0.0600 
    207 H207       -2.0766  -26.3951  -49.5960 H         1 UNK         0.0600 
    208 H208       -2.7724  -25.4134  -50.8780 H         1 UNK         0.0600 
    209 H209       -2.2959  -24.6658  -49.3583 H         1 UNK         0.0600 
    210 H210       -4.2969  -23.4858  -48.1807 H         1 UNK         0.3000 
    211 H211       -5.3711  -21.5868  -48.3746 H         1 UNK         0.0600 
    212 H212       -7.7760  -23.2098  -49.3528 H         1 UNK         0.0600 
    213 H213       -7.8175  -21.6022  -48.6405 H         1 UNK         0.0600 
    214 H214       -7.3317  -22.9764  -47.6645 H         1 UNK         0.0600 
    215 H215       -3.7609  -22.3586  -50.5933 H         1 UNK         0.3000 
    216 H216       -4.9047  -21.8724  -53.1110 H         1 UNK         0.0600 
    217 H217       -2.5027  -21.7031  -53.8422 H         1 UNK         0.0600 
    218 H218       -2.7705  -23.0751  -52.7792 H         1 UNK         0.0600 
    219 H219       -2.0078  -21.6123  -52.1573 H         1 UNK         0.0600 
    220 H220       -3.3006  -19.6181  -50.8837 H         1 UNK         0.3000 
    221 H221       -3.0127  -17.4070  -50.7917 H         1 UNK         0.0600 
    222 H222       -5.7031  -17.3051  -52.2663 H         1 UNK         0.0600 
    223 H223       -5.4764  -17.4211  -50.5291 H         1 UNK         0.0600 
    224 H224       -4.9644  -15.9739  -51.3727 H         1 UNK         0.0600 
    225 H225       -4.5103  -16.1953  -53.5494 H         1 UNK         0.3000 
    226 H226       -2.1686  -15.1809  -54.7198 H         1 UNK         0.0600 
    227 H227       -4.4016  -14.1441  -54.9751 H         1 UNK         0.0600 
    228 H228       -3.7194  -14.4856  -56.5564 H         1 UNK         0.0600 
    229 H229       -4.9740  -15.5320  -55.9024 H         1 UNK         0.0600 
    230 H230       -3.6808  -18.3328  -55.2342 H         1 UNK         0.3000 
    231 H231       -2.4665  -18.8509  -57.8100 H         1 UNK         0.0600 
    232 H232       -4.5365  -20.0095  -57.0310 H         1 UNK         0.0600 
    233 H233       -3.6189  -20.8030  -55.7528 H         1 UNK         0.0600 
    234 H234       -3.2650  -21.1521  -57.4367 H         1 UNK         0.0600 
    235 H235       -1.2842  -18.9710  -54.5247 H         1 UNK         0.3000 
    236 H236        1.1537  -20.5159  -55.3454 H         1 UNK         0.0600 
    237 H237        1.4860  -20.7527  -52.8558 H         1 UNK         0.0600 
    238 H238       -0.0794  -19.9987  -52.5893 H         1 UNK         0.0600 
    239 H239        0.0342  -21.5454  -53.4362 H         1 UNK         0.0600 
    240 H240       -0.0399  -17.5863  -53.6595 H         1 UNK         0.3000 
    241 H241        2.7133  -16.4692  -53.5664 H         1 UNK         0.0600 
    242 H242        0.2435  -15.9621  -55.7040 H         1 UNK         0.3800 
    243 H243        0.4329  -14.2379  -55.8574 H         1 UNK         0.3800 
    244 H244        1.8478  -15.2463  -51.5402 H         1 UNK         0.0800 
    245 H245        0.3152  -16.0738  -51.7149 H         1 UNK         0.0800 
    246 H246        0.7324  -16.4371  -49.2809 H         1 UNK         0.0800 
    247 H247        1.8390  -17.5842  -48.5819 H         1 UNK         0.0800 
@<TRIPOS>BOND
     1    1    2 1    
     2    1  127 1    
     3    1  128 1    
     4    1  129 1    
     5    2    3 2    
     6    2    4 am   BACKBONE|DICT|INTERRES
     7    4    5 1    
     8    4  130 1    
     9    5    6 1    
    10    5   65 1    
    11    5  131 1    
    12    6    7 1    
    13    6  132 1    
    14    6  133 1    
    15    7    8 1    
    16    8    9 1    
    17    8  134 1    
    18    8  135 1    
    19    9   10 ar   
    20    9   14 ar   
    21   10   11 ar   
    22   10  136 1    
    23   11   12 ar   
    24   11  126 1    
    25   12   13 ar   
    26   12  137 1    
    27   13   14 ar   
    28   13   15 1    
    29   14  138 1    
    30   15   16 1    
    31   15  139 1    
    32   15  140 1    
    33   16   17 1    
    34   17   18 1    
    35   17  141 1    
    36   17  142 1    
    37   18   19 1    
    38   18   67 1    
    39   18  143 1    
    40   19   20 am   BACKBONE|DICT|INTERRES
    41   19  144 1    
    42   20   21 2    
    43   20   22 1    
    44   22   23 1    
    45   22   24 1    
    46   22  145 1    
    47   23  146 1    
    48   23  147 1    
    49   23  148 1    
    50   24   25 am   BACKBONE|DICT|INTERRES
    51   24  149 1    
    52   25   26 2    
    53   25   27 1    
    54   27   28 1    
    55   27   29 1    
    56   27  150 1    
    57   28  151 1    
    58   28  152 1    
    59   28  153 1    
    60   29   30 am   BACKBONE|DICT|INTERRES
    61   29  154 1    
    62   30   31 2    
    63   30   32 1    
    64   32   33 1    
    65   32   34 1    
    66   32  155 1    
    67   33  156 1    
    68   33  157 1    
    69   33  158 1    
    70   34   35 am   BACKBONE|DICT|INTERRES
    71   34  159 1    
    72   35   36 2    
    73   35   37 1    
    74   37   38 1    
    75   37   39 1    
    76   37  160 1    
    77   38  161 1    
    78   38  162 1    
    79   38  163 1    
    80   39   40 am   BACKBONE|DICT|INTERRES
    81   39  164 1    
    82   40   41 2    
    83   40   42 1    
    84   42   43 1    
    85   42   44 1    
    86   42  165 1    
    87   43  166 1    
    88   43  167 1    
    89   43  168 1    
    90   44   45 am   BACKBONE|DICT|INTERRES
    91   44  169 1    
    92   45   46 2    
    93   45   47 1    
    94   47   48 1    
    95   47   49 1    
    96   47  170 1    
    97   48  171 1    
    98   48  172 1    
    99   48  173 1    
   100   49   50 am   BACKBONE|DICT|INTERRES
   101   49  174 1    
   102   50   51 2    
   103   50   52 1    
   104   52   53 1    
   105   52   54 1    
   106   52  175 1    
   107   53  176 1    
   108   53  177 1    
   109   53  178 1    
   110   54   55 am   BACKBONE|DICT|INTERRES
   111   54  179 1    
   112   55   56 2    
   113   55   57 1    
   114   57   58 1    
   115   57   59 1    
   116   57  180 1    
   117   58  181 1    
   118   58  182 1    
   119   58  183 1    
   120   59   60 am   BACKBONE|DICT|INTERRES
   121   59  184 1    
   122   60   61 2    
   123   60   62 1    
   124   62   63 1    
   125   62   64 1    
   126   62  185 1    
   127   63  186 1    
   128   63  187 1    
   129   63  188 1    
   130   64   65 am   BACKBONE|DICT|INTERRES
   131   64  189 1    
   132   65   66 2    
   133   67   68 2    
   134   67   69 am   BACKBONE|DICT|INTERRES
   135   69   70 1    
   136   69  190 1    
   137   70   71 1    
   138   70   72 1    
   139   70  191 1    
   140   71  192 1    
   141   71  193 1    
   142   71  194 1    
   143   72   73 2    
   144   72   74 am   BACKBONE|DICT|INTERRES
   145   74   75 1    
   146   74  195 1    
   147   75   76 1    
   148   75   77 1    
   149   75  196 1    
   150   76  197 1    
   151   76  198 1    
   152   76  199 1    
   153   77   78 2    
   154   77   79 am   BACKBONE|DICT|INTERRES
   155   79   80 1    
   156   79  200 1    
   157   80   81 1    
   158   80   82 1    
   159   80  201 1    
   160   81  202 1    
   161   81  203 1    
   162   81  204 1    
   163   82   83 2    
   164   82   84 am   BACKBONE|DICT|INTERRES
   165   84   85 1    
   166   84  205 1    
   167   85   86 1    
   168   85   87 1    
   169   85  206 1    
   170   86  207 1    
   171   86  208 1    
   172   86  209 1    
   173   87   88 2    
   174   87   89 am   BACKBONE|DICT|INTERRES
   175   89   90 1    
   176   89  210 1    
   177   90   91 1    
   178   90   92 1    
   179   90  211 1    
   180   91  212 1    
   181   91  213 1    
   182   91  214 1    
   183   92   93 2    
   184   92   94 am   BACKBONE|DICT|INTERRES
   185   94   95 1    
   186   94  215 1    
   187   95   96 1    
   188   95   97 1    
   189   95  216 1    
   190   96  217 1    
   191   96  218 1    
   192   96  219 1    
   193   97   98 2    
   194   97   99 am   BACKBONE|DICT|INTERRES
   195   99  100 1    
   196   99  220 1    
   197  100  101 1    
   198  100  102 1    
   199  100  221 1    
   200  101  222 1    
   201  101  223 1    
   202  101  224 1    
   203  102  103 2    
   204  102  104 am   BACKBONE|DICT|INTERRES
   205  104  105 1    
   206  104  225 1    
   207  105  106 1    
   208  105  107 1    
   209  105  226 1    
   210  106  227 1    
   211  106  228 1    
   212  106  229 1    
   213  107  108 2    
   214  107  109 am   BACKBONE|DICT|INTERRES
   215  109  110 1    
   216  109  230 1    
   217  110  111 1    
   218  110  112 1    
   219  110  231 1    
   220  111  232 1    
   221  111  233 1    
   222  111  234 1    
   223  112  113 2    
   224  112  114 am   BACKBONE|DICT|INTERRES
   225  114  115 1    
   226  114  235 1    
   227  115  116 1    
   228  115  117 1    
   229  115  236 1    
   230  116  237 1    
   231  116  238 1    
   232  116  239 1    
   233  117  118 2    
   234  117  119 am   BACKBONE|DICT|INTERRES
   235  119  120 1    
   236  119  240 1    
   237  120  121 1    
   238  120  124 1    
   239  120  241 1    
   240  121  122 am   BACKBONE|DICT|INTERRES
   241  121  123 2    
   242  122  242 1    
   243  122  243 1    
   244  124  125 1    
   245  124  244 1    
   246  124  245 1    
   247  125  126 1    
   248  126  246 1    
   249  126  247 1    
@<TRIPOS>SUBSTRUCTURE
     1 UNK         1 GROUP             0       ****    0 ROOT    
