@<TRIPOS>MOLECULE
3R540
247   249    1
SMALL
USER_CHARGES


@<TRIPOS>ATOM
      1 CA          2.3654  -16.8025  -47.2966 C.3       0 UNK        -0.1800 
      2 C           1.4282  -15.8914  -46.5206 C.2       0 UNK         0.5000 
      3 O           1.8780  -14.9287  -45.9002 O.2       0 UNK        -0.5000 
      4 N           0.1221  -16.1840  -46.5692 N.am      1 UNK        -0.5000 
      5 CA         -0.9349  -15.5287  -45.7820 C.3       1 UNK         0.1400 
      6 C6         -2.2989  -16.2564  -45.8873 C.3       23 UNK        -0.0398 
      7 S7         -2.1805  -18.0617  -45.6296 S.3       23 UNK        -0.2404 
      8 C8         -2.6879  -18.6981  -47.2591 C.3       23 UNK        -0.0205 
      9 C9         -1.7376  -18.2864  -48.3752 C.ar      23 UNK        -0.0193 
     10 C10        -2.1028  -17.2929  -49.2872 C.ar      23 UNK        -0.1150 
     11 C11        -1.2505  -16.9424  -50.3379 C.ar      23 UNK        -0.0193 
     12 C12        -0.0273  -17.6059  -50.4826 C.ar      23 UNK        -0.1150 
     13 C13         0.3400  -18.6157  -49.5898 C.ar      23 UNK        -0.0193 
     14 C14        -0.5082  -18.9304  -48.5232 C.ar      23 UNK        -0.1150 
     15 C15         1.6499  -19.3727  -49.7702 C.3       23 UNK        -0.0205 
     16 S16         1.5427  -20.7898  -50.9257 S.3       23 UNK        -0.2404 
     17 C17         0.0251  -21.6737  -50.4167 C.3       23 UNK        -0.0398 
     18 CA          0.1858  -22.7922  -49.3506 C.3       11 UNK         0.1400 
     19 N           1.1447  -22.4617  -48.2909 N.am      11 UNK        -0.5000 
     20 C           1.5955  -23.3010  -47.3468 C.2       10 UNK         0.5000 
     21 O           1.2482  -24.4796  -47.2570 O.2       10 UNK        -0.5000 
     22 CA          2.5762  -22.7191  -46.3056 C.3       10 UNK         0.1400 
     23 CB          3.4220  -21.5435  -46.8401 C.3       10 UNK        -0.1800 
     24 N           1.9286  -22.3181  -45.0522 N.am      10 UNK        -0.5000 
     25 C           0.8430  -21.5458  -44.8974 C.2       9 UNK         0.5000 
     26 O           0.1498  -21.1343  -45.8258 O.2       9 UNK        -0.5000 
     27 CA          0.5007  -21.1042  -43.4653 C.3       9 UNK         0.1400 
     28 CB          0.4594  -22.2705  -42.4564 C.3       9 UNK        -0.1800 
     29 N           1.3853  -20.0172  -43.0407 N.am      9 UNK        -0.5000 
     30 C           2.7041  -20.0475  -42.8113 C.2       8 UNK         0.5000 
     31 O           3.3629  -21.0864  -42.7466 O.2       8 UNK        -0.5000 
     32 CA          3.4359  -18.6966  -42.6534 C.3       8 UNK         0.1400 
     33 CB          4.0325  -18.2594  -44.0048 C.3       8 UNK        -0.1800 
     34 N           2.6730  -17.5908  -42.0539 N.am      8 UNK        -0.5000 
     35 C           1.5730  -16.9646  -42.4931 C.2       7 UNK         0.5000 
     36 O           0.9258  -17.3293  -43.4723 O.2       7 UNK        -0.5000 
     37 CA          1.1094  -15.7163  -41.7189 C.3       7 UNK         0.1400 
     38 CB          0.2339  -16.0953  -40.5109 C.3       7 UNK        -0.1800 
     39 N           2.1903  -14.7989  -41.3399 N.am      7 UNK        -0.5000 
     40 C           3.1913  -14.9638  -40.4626 C.2       6 UNK         0.5000 
     41 O           3.3672  -15.9876  -39.8011 O.2       6 UNK        -0.5000 
     42 CA          4.1702  -13.7871  -40.3140 C.3       6 UNK         0.1400 
     43 CB          5.2453  -13.8470  -41.4110 C.3       6 UNK        -0.1800 
     44 N           3.4670  -12.5073  -40.4002 N.am      6 UNK        -0.5000 
     45 C           3.0503  -11.7902  -39.3478 C.2       5 UNK         0.5000 
     46 O           3.2977  -12.0829  -38.1772 O.2       5 UNK        -0.5000 
     47 CA          2.2024  -10.5367  -39.6494 C.3       5 UNK         0.1400 
     48 CB          3.1034   -9.3020  -39.8044 C.3       5 UNK        -0.1800 
     49 N           1.3753  -10.6782  -40.8494 N.am      5 UNK        -0.5000 
     50 C           0.3393  -11.5205  -40.9672 C.2       4 UNK         0.5000 
     51 O          -0.0950  -12.1996  -40.0367 O.2       4 UNK        -0.5000 
     52 CA         -0.3114  -11.6508  -42.3597 C.3       4 UNK         0.1400 
     53 CB         -1.6077  -10.8295  -42.4250 C.3       4 UNK        -0.1800 
     54 N           0.5382  -11.2797  -43.4979 N.am      4 UNK        -0.5000 
     55 C           1.7260  -11.8153  -43.8096 C.2       3 UNK         0.5000 
     56 O           2.3297  -12.6025  -43.0799 O.2       3 UNK        -0.5000 
     57 CA          2.2985  -11.4323  -45.1847 C.3       3 UNK         0.1400 
     58 CB          3.7314  -11.9536  -45.3966 C.3       3 UNK        -0.1800 
     59 N           1.4279  -11.9964  -46.2121 N.am      3 UNK        -0.5000 
     60 C           0.4067  -11.3540  -46.7969 C.2       2 UNK         0.5000 
     61 O           0.1667  -10.1590  -46.6215 O.2       2 UNK        -0.5000 
     62 CA         -0.5363  -12.1919  -47.6857 C.3       2 UNK         0.1400 
     63 CB         -0.0922  -12.1338  -49.1550 C.3       2 UNK        -0.1800 
     64 N          -0.6199  -13.5926  -47.2707 N.am      2 UNK        -0.5000 
     65 C          -1.1094  -14.0280  -46.1002 C.2       1 UNK         0.5000 
     66 O          -1.6622  -13.2969  -45.2780 O.2       1 UNK        -0.5000 
     67 C          -1.2154  -23.1639  -48.8114 C.2       11 UNK         0.5000 
     68 O          -1.9838  -23.7795  -49.5477 O.2       11 UNK        -0.5000 
     69 N          -1.5397  -22.7829  -47.5630 N.am      12 UNK        -0.5000 
     70 CA         -2.8384  -22.9790  -46.9044 C.3       12 UNK         0.1400 
     71 CB         -2.7711  -22.4461  -45.4654 C.3       12 UNK        -0.1800 
     72 C          -3.3665  -24.4278  -46.9012 C.2       12 UNK         0.5000 
     73 O          -4.5819  -24.6253  -46.8783 O.2       12 UNK        -0.5000 
     74 N          -2.4576  -25.4103  -46.9650 N.am      13 UNK        -0.5000 
     75 CA         -2.7723  -26.8324  -47.1125 C.3       13 UNK         0.1400 
     76 CB         -1.4743  -27.6435  -46.9859 C.3       13 UNK        -0.1800 
     77 C          -3.4937  -27.1723  -48.4344 C.2       13 UNK         0.5000 
     78 O          -4.2690  -28.1287  -48.4715 O.2       13 UNK        -0.5000 
     79 N          -3.2606  -26.3754  -49.4863 N.am      14 UNK        -0.5000 
     80 CA         -3.8840  -26.5025  -50.8013 C.3       14 UNK         0.1400 
     81 CB         -2.8927  -26.0017  -51.8642 C.3       14 UNK        -0.1800 
     82 C          -5.2253  -25.7453  -50.8374 C.2       14 UNK         0.5000 
     83 O          -5.3824  -24.7957  -51.6094 O.2       14 UNK        -0.5000 
     84 N          -6.1606  -26.1771  -49.9794 N.am      15 UNK        -0.5000 
     85 CA         -7.5362  -25.6863  -49.8396 C.3       15 UNK         0.1400 
     86 CB         -8.3644  -26.0721  -51.0841 C.3       15 UNK        -0.1800 
     87 C          -7.5998  -24.1774  -49.5286 C.2       15 UNK         0.5000 
     88 O          -8.2175  -23.4184  -50.2752 O.2       15 UNK        -0.5000 
     89 N          -6.9054  -23.7580  -48.4598 N.am      16 UNK        -0.5000 
     90 CA         -6.7344  -22.3619  -48.0295 C.3       16 UNK         0.1400 
     91 CB         -8.0770  -21.7464  -47.5818 C.3       16 UNK        -0.1800 
     92 C          -5.9956  -21.5071  -49.0829 C.2       16 UNK         0.5000 
     93 O          -6.2722  -20.3155  -49.2207 O.2       16 UNK        -0.5000 
     94 N          -5.0785  -22.1606  -49.8123 N.am      17 UNK        -0.5000 
     95 CA         -4.2726  -21.6635  -50.9302 C.3       17 UNK         0.1400 
     96 CB         -3.4516  -20.4238  -50.5299 C.3       17 UNK        -0.1800 
     97 C          -5.0596  -21.4331  -52.2329 C.2       17 UNK         0.5000 
     98 O          -4.4687  -20.9447  -53.1969 O.2       17 UNK        -0.5000 
     99 N          -6.3461  -21.8102  -52.2770 N.am      18 UNK        -0.5000 
    100 CA        -7.2032  -21.6581  -53.4524 C.3       18 UNK         0.1400 
    101 CB        -8.6753  -21.8289  -53.0512 C.3       18 UNK        -0.1800 
    102 C         -6.8397  -22.6310  -54.5864 C.2       18 UNK         0.5000 
    103 O         -6.9487  -22.2541  -55.7535 O.2       18 UNK        -0.5000 
    104 N         -6.3951  -23.8482  -54.2377 N.am      19 UNK        -0.5000 
    105 CA        -5.9578  -24.8536  -55.2099 C.3       19 UNK         0.1400 
    106 CB        -6.0817  -26.2589  -54.6024 C.3       19 UNK        -0.1800 
    107 C         -4.5269  -24.5846  -55.7105 C.2       19 UNK         0.5000 
    108 O         -4.2143  -24.9134  -56.8553 O.2       19 UNK        -0.5000 
    109 N         -3.6942  -23.9677  -54.8595 N.am      20 UNK        -0.5000 
    110 CA        -2.3513  -23.5008  -55.2128 C.3       20 UNK         0.1400 
    111 CB        -1.5165  -23.3263  -53.9331 C.3       20 UNK        -0.1800 
    112 C         -2.3658  -22.1820  -56.0068 C.2       20 UNK         0.5000 
    113 O         -1.3855  -21.8837  -56.6893 O.2       20 UNK        -0.5000 
    114 N         -3.4402  -21.3926  -55.8548 N.am      21 UNK        -0.5000 
    115 CA        -3.6200  -20.0242  -56.3531 C.3       21 UNK         0.1400 
    116 CB        -3.7736  -20.0208  -57.8878 C.3       21 UNK        -0.1800 
    117 C         -2.5100  -19.0768  -55.8461 C.2       21 UNK         0.5000 
    118 O         -1.9838  -18.2697  -56.6142 O.2       21 UNK        -0.5000 
    119 N         -2.1438  -19.2462  -54.5668 N.am      22 UNK        -0.5000 
    120 CA        -0.9896  -18.6222  -53.8905 C.3       22 UNK         0.1400 
    121 C          0.4096  -19.0756  -54.4187 C.2       22 UNK         0.5000 
    122 N          0.5218  -20.0826  -55.2775 N.am      22 UNK        -0.7600 
    123 O          1.4295  -18.5206  -54.0196 O.2       22 UNK        -0.5000 
    124 C124       -1.0983  -17.0727  -53.7928 C.3       23 UNK        -0.0398 
    125 S125       -2.5103  -16.5196  -52.7767 S.3       23 UNK        -0.2404 
    126 C126       -1.6618  -15.8469  -51.3101 C.3       23 UNK        -0.0205 
    127 H127        2.0926  -17.8473  -47.1501 H         1 UNK         0.0600 
    128 H128        2.3227  -16.5728  -48.3610 H         1 UNK         0.0600 
    129 H129        3.3936  -16.6733  -46.9584 H         1 UNK         0.0600 
    130 H130       -0.1831  -16.9913  -47.0964 H         1 UNK         0.3000 
    131 H131       -0.6190  -15.5807  -44.7389 H         1 UNK         0.0600 
    132 H132       -2.7717  -16.0544  -46.8488 H         1 UNK         0.0800 
    133 H133       -2.9859  -15.8644  -45.1353 H         1 UNK         0.0800 
    134 H134       -3.7051  -18.3687  -47.4769 H         1 UNK         0.0800 
    135 H135       -2.7287  -19.7864  -47.2122 H         1 UNK         0.0800 
    136 H136       -3.0580  -16.7970  -49.1872 H         1 UNK         0.1150 
    137 H137        0.6343  -17.3512  -51.2981 H         1 UNK         0.1150 
    138 H138       -0.2303  -19.7057  -47.8259 H         1 UNK         0.1150 
    139 H139        2.4159  -18.6877  -50.1366 H         1 UNK         0.0800 
    140 H140        2.0092  -19.7234  -48.8057 H         1 UNK         0.0800 
    141 H141       -0.7179  -20.9435  -50.1151 H         1 UNK         0.0800 
    142 H142       -0.3914  -22.1169  -51.3225 H         1 UNK         0.0800 
    143 H143        0.5756  -23.6779  -49.8564 H         1 UNK         0.0600 
    144 H144        1.4655  -21.5067  -48.2700 H         1 UNK         0.3000 
    145 H145        3.2642  -23.5284  -46.0567 H         1 UNK         0.0600 
    146 H146        4.2635  -21.3452  -46.1761 H         1 UNK         0.0600 
    147 H147        3.8360  -21.7601  -47.8259 H         1 UNK         0.0600 
    148 H148        2.8454  -20.6217  -46.9066 H         1 UNK         0.0600 
    149 H149        2.4398  -22.5494  -44.2098 H         1 UNK         0.3000 
    150 H150       -0.5019  -20.6745  -43.5026 H         1 UNK         0.0600 
    151 H151       -0.2589  -23.0274  -42.7736 H         1 UNK         0.0600 
    152 H152        0.1480  -21.9215  -41.4720 H         1 UNK         0.0600 
    153 H153        1.4224  -22.7671  -42.3416 H         1 UNK         0.0600 
    154 H154        0.9917  -19.0842  -43.1526 H         1 UNK         0.3000 
    155 H155        4.2673  -18.8778  -41.9707 H         1 UNK         0.0600 
    156 H156        4.6887  -19.0301  -44.4111 H         1 UNK         0.0600 
    157 H157        4.6234  -17.3493  -43.9010 H         1 UNK         0.0600 
    158 H158        3.2550  -18.0718  -44.7454 H         1 UNK         0.0600 
    159 H159        3.0722  -17.2128  -41.1983 H         1 UNK         0.3000 
    160 H160        0.4826  -15.1457  -42.4061 H         1 UNK         0.0600 
    161 H161        0.7812  -16.6882  -39.7779 H         1 UNK         0.0600 
    162 H162       -0.6279  -16.6843  -40.8269 H         1 UNK         0.0600 
    163 H163       -0.1462  -15.2060  -40.0078 H         1 UNK         0.0600 
    164 H164        2.2155  -13.9472  -41.8973 H         1 UNK         0.3000 
    165 H165        4.6679  -13.8813  -39.3466 H         1 UNK         0.0600 
    166 H166        5.7928  -14.7896  -41.3699 H         1 UNK         0.0600 
    167 H167        4.8125  -13.7620  -42.4088 H         1 UNK         0.0600 
    168 H168        5.9720  -13.0432  -41.2927 H         1 UNK         0.0600 
    169 H169        3.1727  -12.2240  -41.3285 H         1 UNK         0.3000 
    170 H170        1.5396  -10.3717  -38.7973 H         1 UNK         0.0600 
    171 H171        3.7174   -9.1531  -38.9152 H         1 UNK         0.0600 
    172 H172        3.7776   -9.3995  -40.6563 H         1 UNK         0.0600 
    173 H173        2.5121   -8.3970  -39.9447 H         1 UNK         0.0600 
    174 H174        1.6568  -10.1517  -41.6631 H         1 UNK         0.3000 
    175 H175       -0.5722  -12.7032  -42.4886 H         1 UNK         0.0600 
    176 H176       -1.4094   -9.7597  -42.3485 H         1 UNK         0.0600 
    177 H177       -2.1397  -11.0081  -43.3599 H         1 UNK         0.0600 
    178 H178       -2.2845  -11.0980  -41.6126 H         1 UNK         0.0600 
    179 H179        0.1196  -10.6523  -44.1710 H         1 UNK         0.3000 
    180 H180        2.3222  -10.3428  -45.2521 H         1 UNK         0.0600 
    181 H181        3.7818  -13.0413  -45.3323 H         1 UNK         0.0600 
    182 H182        4.1159  -11.6593  -46.3731 H         1 UNK         0.0600 
    183 H183        4.4088  -11.5490  -44.6437 H         1 UNK         0.0600 
    184 H184        1.5109  -13.0008  -46.3396 H         1 UNK         0.3000 
    185 H185       -1.5355  -11.7581  -47.6097 H         1 UNK         0.0600 
    186 H186       -0.7915  -12.6659  -49.8004 H         1 UNK         0.0600 
    187 H187       -0.0452  -11.1028  -49.5080 H         1 UNK         0.0600 
    188 H188        0.8960  -12.5742  -49.2944 H         1 UNK         0.0600 
    189 H189       -0.1831  -14.2718  -47.8764 H         1 UNK         0.3000 
    190 H190       -0.8500  -22.2601  -47.0289 H         1 UNK         0.3000 
    191 H191       -3.5610  -22.3742  -47.4520 H         1 UNK         0.0600 
    192 H192       -3.7304  -22.5604  -44.9587 H         1 UNK         0.0600 
    193 H193       -2.5226  -21.3855  -45.4428 H         1 UNK         0.0600 
    194 H194       -2.0234  -22.9786  -44.8768 H         1 UNK         0.0600 
    195 H195       -1.4800  -25.1555  -46.9902 H         1 UNK         0.3000 
    196 H196       -3.4367  -27.1156  -46.2936 H         1 UNK         0.0600 
    197 H197       -1.6709  -28.7131  -47.0702 H         1 UNK         0.0600 
    198 H198       -0.9974  -27.4767  -46.0198 H         1 UNK         0.0600 
    199 H199       -0.7574  -27.3779  -47.7641 H         1 UNK         0.0600 
    200 H200       -2.6692  -25.5579  -49.3630 H         1 UNK         0.3000 
    201 H201       -4.0905  -27.5542  -51.0100 H         1 UNK         0.0600 
    202 H202       -1.9356  -26.5176  -51.7881 H         1 UNK         0.0600 
    203 H203       -2.7063  -24.9339  -51.7591 H         1 UNK         0.0600 
    204 H204       -3.2717  -26.1719  -52.8713 H         1 UNK         0.0600 
    205 H205       -5.9011  -26.9402  -49.3652 H         1 UNK         0.3000 
    206 H206       -7.9687  -26.2001  -48.9799 H         1 UNK         0.0600 
    207 H207       -8.3292  -27.1465  -51.2640 H         1 UNK         0.0600 
    208 H208       -9.4123  -25.7987  -50.9553 H         1 UNK         0.0600 
    209 H209       -8.0053  -25.5707  -51.9835 H         1 UNK         0.0600 
    210 H210       -6.3688  -24.4345  -47.9260 H         1 UNK         0.3000 
    211 H211       -6.0860  -22.3874  -47.1533 H         1 UNK         0.0600 
    212 H212       -8.7604  -21.6032  -48.4192 H         1 UNK         0.0600 
    213 H213       -7.9230  -20.7712  -47.1186 H         1 UNK         0.0600 
    214 H214       -8.5745  -22.3784  -46.8462 H         1 UNK         0.0600 
    215 H215       -4.9829  -23.1520  -49.6427 H         1 UNK         0.3000 
    216 H216       -3.5680  -22.4629  -51.1584 H         1 UNK         0.0600 
    217 H217       -4.0754  -19.5367  -50.4199 H         1 UNK         0.0600 
    218 H218       -2.6968  -20.1906  -51.2813 H         1 UNK         0.0600 
    219 H219       -2.9382  -20.5898  -49.5849 H         1 UNK         0.0600 
    220 H220       -6.7627  -22.2476  -51.4638 H         1 UNK         0.3000 
    221 H221       -7.0749  -20.6416  -53.8309 H         1 UNK         0.0600 
    222 H222       -8.8936  -22.8531  -52.7471 H         1 UNK         0.0600 
    223 H223       -8.9417  -21.1682  -52.2259 H         1 UNK         0.0600 
    224 H224       -9.3348  -21.5910  -53.8865 H         1 UNK         0.0600 
    225 H225       -6.2864  -24.0800  -53.2544 H         1 UNK         0.3000 
    226 H226       -6.6214  -24.8141  -56.0766 H         1 UNK         0.0600 
    227 H227       -7.1001  -26.4554  -54.2673 H         1 UNK         0.0600 
    228 H228       -5.8286  -27.0227  -55.3385 H         1 UNK         0.0600 
    229 H229       -5.4175  -26.3963  -53.7519 H         1 UNK         0.0600 
    230 H230       -4.0332  -23.7455  -53.9352 H         1 UNK         0.3000 
    231 H231       -1.8633  -24.2525  -55.8370 H         1 UNK         0.0600 
    232 H232       -2.0239  -22.6988  -53.1999 H         1 UNK         0.0600 
    233 H233       -1.3020  -24.2891  -53.4726 H         1 UNK         0.0600 
    234 H234       -0.5529  -22.8622  -54.1486 H         1 UNK         0.0600 
    235 H235       -4.1486  -21.6965  -55.1995 H         1 UNK         0.3000 
    236 H236       -4.5547  -19.6601  -55.9239 H         1 UNK         0.0600 
    237 H237       -4.5725  -20.6919  -58.2034 H         1 UNK         0.0600 
    238 H238       -4.0238  -19.0242  -58.2530 H         1 UNK         0.0600 
    239 H239       -2.8564  -20.3323  -58.3884 H         1 UNK         0.0600 
    240 H240       -2.6719  -19.9125  -54.0163 H         1 UNK         0.3000 
    241 H241       -1.0186  -19.0106  -52.8720 H         1 UNK         0.0600 
    242 H242       -0.2877  -20.5510  -55.6670 H         1 UNK         0.3800 
    243 H243        1.4414  -20.3535  -55.5866 H         1 UNK         0.3800 
    244 H244       -1.1929  -16.6276  -54.7831 H         1 UNK         0.0800 
    245 H245       -0.1871  -16.6420  -53.3778 H         1 UNK         0.0800 
    246 H246       -0.7946  -15.2560  -51.6084 H         1 UNK         0.0800 
    247 H247       -2.3366  -15.1494  -50.8115 H         1 UNK         0.0800 
@<TRIPOS>BOND
     1    1    2 1    
     2    1  127 1    
     3    1  128 1    
     4    1  129 1    
     5    2    3 2    
     6    2    4 am   BACKBONE|DICT|INTERRES
     7    4    5 1    
     8    4  130 1    
     9    5    6 1    
    10    5   65 1    
    11    5  131 1    
    12    6    7 1    
    13    6  132 1    
    14    6  133 1    
    15    7    8 1    
    16    8    9 1    
    17    8  134 1    
    18    8  135 1    
    19    9   10 ar   
    20    9   14 ar   
    21   10   11 ar   
    22   10  136 1    
    23   11   12 ar   
    24   11  126 1    
    25   12   13 ar   
    26   12  137 1    
    27   13   14 ar   
    28   13   15 1    
    29   14  138 1    
    30   15   16 1    
    31   15  139 1    
    32   15  140 1    
    33   16   17 1    
    34   17   18 1    
    35   17  141 1    
    36   17  142 1    
    37   18   19 1    
    38   18   67 1    
    39   18  143 1    
    40   19   20 am   BACKBONE|DICT|INTERRES
    41   19  144 1    
    42   20   21 2    
    43   20   22 1    
    44   22   23 1    
    45   22   24 1    
    46   22  145 1    
    47   23  146 1    
    48   23  147 1    
    49   23  148 1    
    50   24   25 am   BACKBONE|DICT|INTERRES
    51   24  149 1    
    52   25   26 2    
    53   25   27 1    
    54   27   28 1    
    55   27   29 1    
    56   27  150 1    
    57   28  151 1    
    58   28  152 1    
    59   28  153 1    
    60   29   30 am   BACKBONE|DICT|INTERRES
    61   29  154 1    
    62   30   31 2    
    63   30   32 1    
    64   32   33 1    
    65   32   34 1    
    66   32  155 1    
    67   33  156 1    
    68   33  157 1    
    69   33  158 1    
    70   34   35 am   BACKBONE|DICT|INTERRES
    71   34  159 1    
    72   35   36 2    
    73   35   37 1    
    74   37   38 1    
    75   37   39 1    
    76   37  160 1    
    77   38  161 1    
    78   38  162 1    
    79   38  163 1    
    80   39   40 am   BACKBONE|DICT|INTERRES
    81   39  164 1    
    82   40   41 2    
    83   40   42 1    
    84   42   43 1    
    85   42   44 1    
    86   42  165 1    
    87   43  166 1    
    88   43  167 1    
    89   43  168 1    
    90   44   45 am   BACKBONE|DICT|INTERRES
    91   44  169 1    
    92   45   46 2    
    93   45   47 1    
    94   47   48 1    
    95   47   49 1    
    96   47  170 1    
    97   48  171 1    
    98   48  172 1    
    99   48  173 1    
   100   49   50 am   BACKBONE|DICT|INTERRES
   101   49  174 1    
   102   50   51 2    
   103   50   52 1    
   104   52   53 1    
   105   52   54 1    
   106   52  175 1    
   107   53  176 1    
   108   53  177 1    
   109   53  178 1    
   110   54   55 am   BACKBONE|DICT|INTERRES
   111   54  179 1    
   112   55   56 2    
   113   55   57 1    
   114   57   58 1    
   115   57   59 1    
   116   57  180 1    
   117   58  181 1    
   118   58  182 1    
   119   58  183 1    
   120   59   60 am   BACKBONE|DICT|INTERRES
   121   59  184 1    
   122   60   61 2    
   123   60   62 1    
   124   62   63 1    
   125   62   64 1    
   126   62  185 1    
   127   63  186 1    
   128   63  187 1    
   129   63  188 1    
   130   64   65 am   BACKBONE|DICT|INTERRES
   131   64  189 1    
   132   65   66 2    
   133   67   68 2    
   134   67   69 am   BACKBONE|DICT|INTERRES
   135   69   70 1    
   136   69  190 1    
   137   70   71 1    
   138   70   72 1    
   139   70  191 1    
   140   71  192 1    
   141   71  193 1    
   142   71  194 1    
   143   72   73 2    
   144   72   74 am   BACKBONE|DICT|INTERRES
   145   74   75 1    
   146   74  195 1    
   147   75   76 1    
   148   75   77 1    
   149   75  196 1    
   150   76  197 1    
   151   76  198 1    
   152   76  199 1    
   153   77   78 2    
   154   77   79 am   BACKBONE|DICT|INTERRES
   155   79   80 1    
   156   79  200 1    
   157   80   81 1    
   158   80   82 1    
   159   80  201 1    
   160   81  202 1    
   161   81  203 1    
   162   81  204 1    
   163   82   83 2    
   164   82   84 am   BACKBONE|DICT|INTERRES
   165   84   85 1    
   166   84  205 1    
   167   85   86 1    
   168   85   87 1    
   169   85  206 1    
   170   86  207 1    
   171   86  208 1    
   172   86  209 1    
   173   87   88 2    
   174   87   89 am   BACKBONE|DICT|INTERRES
   175   89   90 1    
   176   89  210 1    
   177   90   91 1    
   178   90   92 1    
   179   90  211 1    
   180   91  212 1    
   181   91  213 1    
   182   91  214 1    
   183   92   93 2    
   184   92   94 am   BACKBONE|DICT|INTERRES
   185   94   95 1    
   186   94  215 1    
   187   95   96 1    
   188   95   97 1    
   189   95  216 1    
   190   96  217 1    
   191   96  218 1    
   192   96  219 1    
   193   97   98 2    
   194   97   99 am   BACKBONE|DICT|INTERRES
   195   99  100 1    
   196   99  220 1    
   197  100  101 1    
   198  100  102 1    
   199  100  221 1    
   200  101  222 1    
   201  101  223 1    
   202  101  224 1    
   203  102  103 2    
   204  102  104 am   BACKBONE|DICT|INTERRES
   205  104  105 1    
   206  104  225 1    
   207  105  106 1    
   208  105  107 1    
   209  105  226 1    
   210  106  227 1    
   211  106  228 1    
   212  106  229 1    
   213  107  108 2    
   214  107  109 am   BACKBONE|DICT|INTERRES
   215  109  110 1    
   216  109  230 1    
   217  110  111 1    
   218  110  112 1    
   219  110  231 1    
   220  111  232 1    
   221  111  233 1    
   222  111  234 1    
   223  112  113 2    
   224  112  114 am   BACKBONE|DICT|INTERRES
   225  114  115 1    
   226  114  235 1    
   227  115  116 1    
   228  115  117 1    
   229  115  236 1    
   230  116  237 1    
   231  116  238 1    
   232  116  239 1    
   233  117  118 2    
   234  117  119 am   BACKBONE|DICT|INTERRES
   235  119  120 1    
   236  119  240 1    
   237  120  121 1    
   238  120  124 1    
   239  120  241 1    
   240  121  122 am   BACKBONE|DICT|INTERRES
   241  121  123 2    
   242  122  242 1    
   243  122  243 1    
   244  124  125 1    
   245  124  244 1    
   246  124  245 1    
   247  125  126 1    
   248  126  246 1    
   249  126  247 1    
@<TRIPOS>SUBSTRUCTURE
     1 UNK         1 GROUP             0       ****    0 ROOT    
