@<TRIPOS>MOLECULE
3R540
247   249    1
SMALL
USER_CHARGES


@<TRIPOS>ATOM
      1 CA         -4.7540  -12.8693  -47.9447 C.3       0 UNK        -0.1800 
      2 C          -3.9878  -14.1008  -47.4847 C.2       0 UNK         0.5000 
      3 O          -4.5689  -15.1809  -47.3842 O.2       0 UNK        -0.5000 
      4 N          -2.6934  -13.9370  -47.1770 N.am      1 UNK        -0.5000 
      5 CA         -1.7112  -14.9638  -46.7763 C.3       1 UNK         0.1400 
      6 C6         -1.5240  -16.1111  -47.8095 C.3       23 UNK        -0.0398 
      7 S7         -1.2554  -15.4875  -49.5086 S.3       23 UNK        -0.2404 
      8 C8          0.5547  -15.4973  -49.6696 C.3       23 UNK        -0.0205 
      9 C9          1.0775  -16.8169  -50.2167 C.ar      23 UNK        -0.0193 
     10 C10         1.0539  -17.0614  -51.5934 C.ar      23 UNK        -0.1150 
     11 C11         1.5809  -18.2466  -52.1151 C.ar      23 UNK        -0.0193 
     12 C12         2.1518  -19.1813  -51.2479 C.ar      23 UNK        -0.1150 
     13 C13         2.1411  -18.9705  -49.8673 C.ar      23 UNK        -0.0193 
     14 C14         1.6073  -17.7837  -49.3586 C.ar      23 UNK        -0.1150 
     15 C15         2.6718  -20.0415  -48.9229 C.3       23 UNK        -0.0205 
     16 S16         1.7943  -21.6280  -49.1209 S.3       23 UNK        -0.2404 
     17 C17         0.0538  -21.1097  -48.9357 C.3       23 UNK        -0.0398 
     18 CA         -0.7247  -21.9861  -47.9351 C.3       11 UNK         0.1400 
     19 N          -0.1443  -21.9490  -46.5911 N.am      11 UNK        -0.5000 
     20 C          -0.3765  -22.8684  -45.6446 C.2       10 UNK         0.5000 
     21 O          -1.1147  -23.8400  -45.8042 O.2       10 UNK        -0.5000 
     22 CA          0.2746  -22.6212  -44.2703 C.3       10 UNK         0.1400 
     23 CB          1.7280  -23.1168  -44.2616 C.3       10 UNK        -0.1800 
     24 N           0.2435  -21.2099  -43.8829 N.am      10 UNK        -0.5000 
     25 C          -0.8794  -20.4949  -43.7240 C.2       9 UNK         0.5000 
     26 O          -2.0068  -20.9786  -43.8090 O.2       9 UNK        -0.5000 
     27 CA         -0.7401  -18.9827  -43.4859 C.3       9 UNK         0.1400 
     28 CB         -1.0370  -18.6328  -42.0210 C.3       9 UNK        -0.1800 
     29 N           0.5606  -18.4329  -43.8653 N.am      9 UNK        -0.5000 
     30 C           1.0427  -18.3585  -45.1138 C.2       8 UNK         0.5000 
     31 O           0.4669  -18.8271  -46.0976 O.2       8 UNK        -0.5000 
     32 CA          2.4071  -17.6600  -45.2837 C.3       8 UNK         0.1400 
     33 CB          2.2062  -16.2072  -45.7411 C.3       8 UNK        -0.1800 
     34 N           3.2325  -17.6638  -44.0703 N.am      8 UNK        -0.5000 
     35 C           3.7581  -18.7592  -43.5025 C.2       7 UNK         0.5000 
     36 O           3.5620  -19.8962  -43.9359 O.2       7 UNK        -0.5000 
     37 CA          4.6004  -18.5574  -42.2211 C.3       7 UNK         0.1400 
     38 CB          5.5625  -19.7336  -41.9541 C.3       7 UNK        -0.1800 
     39 N           5.3235  -17.2805  -42.1523 N.am      7 UNK        -0.5000 
     40 C           6.2587  -16.8148  -42.9937 C.2       6 UNK         0.5000 
     41 O           6.6126  -17.4094  -44.0133 O.2       6 UNK        -0.5000 
     42 CA          6.9051  -15.4561  -42.6260 C.3       6 UNK         0.1400 
     43 CB          7.7522  -14.8740  -43.7723 C.3       6 UNK        -0.1800 
     44 N           5.9168  -14.4522  -42.2237 N.am      6 UNK        -0.5000 
     45 C           5.3399  -14.3508  -41.0196 C.2       5 UNK         0.5000 
     46 O           5.6210  -15.0845  -40.0709 O.2       5 UNK        -0.5000 
     47 CA          4.1964  -13.3239  -40.8636 C.3       5 UNK         0.1400 
     48 CB          4.2045  -12.2058  -41.9303 C.3       5 UNK        -0.1800 
     49 N           2.8915  -13.9956  -40.8326 N.am      5 UNK        -0.5000 
     50 C           2.4064  -14.8330  -41.7601 C.2       4 UNK         0.5000 
     51 O           2.9774  -15.0887  -42.8191 O.2       4 UNK        -0.5000 
     52 CA          1.0840  -15.5472  -41.4559 C.3       4 UNK         0.1400 
     53 CB          0.9947  -16.0945  -40.0149 C.3       4 UNK        -0.1800 
     54 N          -0.0825  -14.7520  -41.8328 N.am      4 UNK        -0.5000 
     55 C          -0.5767  -13.6640  -41.2233 C.2       3 UNK         0.5000 
     56 O          -0.0598  -13.1342  -40.2388 O.2       3 UNK        -0.5000 
     57 CA         -1.8806  -13.0646  -41.7985 C.3       3 UNK         0.1400 
     58 CB         -1.5867  -11.7415  -42.5228 C.3       3 UNK        -0.1800 
     59 N          -2.5890  -13.9539  -42.7239 N.am      3 UNK        -0.5000 
     60 C          -3.1629  -15.1247  -42.4104 C.2       2 UNK         0.5000 
     61 O          -3.2750  -15.5372  -41.2561 O.2       2 UNK        -0.5000 
     62 CA         -3.6674  -16.0023  -43.5784 C.3       2 UNK         0.1400 
     63 CB         -5.2029  -16.0469  -43.5920 C.3       2 UNK        -0.1800 
     64 N          -3.2039  -15.5960  -44.9106 N.am      2 UNK        -0.5000 
     65 C          -1.9392  -15.5052  -45.3440 C.2       1 UNK         0.5000 
     66 O          -0.9702  -15.7569  -44.6289 O.2       1 UNK        -0.5000 
     67 C          -2.2110  -21.5816  -47.9292 C.2       11 UNK         0.5000 
     68 O          -2.9584  -22.0375  -48.7951 O.2       11 UNK        -0.5000 
     69 N          -2.6192  -20.7422  -46.9666 N.am      12 UNK        -0.5000 
     70 CA         -4.0162  -20.3689  -46.7456 C.3       12 UNK         0.1400 
     71 CB         -4.0943  -19.1003  -45.8822 C.3       12 UNK        -0.1800 
     72 C          -4.8072  -21.5278  -46.1150 C.2       12 UNK         0.5000 
     73 O          -5.9091  -21.8257  -46.5729 O.2       12 UNK        -0.5000 
     74 N          -4.2073  -22.1963  -45.1192 N.am      13 UNK        -0.5000 
     75 CA         -4.7469  -23.3828  -44.4505 C.3       13 UNK         0.1400 
     76 CB         -3.8596  -23.7360  -43.2473 C.3       13 UNK        -0.1800 
     77 C          -4.8902  -24.5906  -45.3955 C.2       13 UNK         0.5000 
     78 O          -5.8893  -25.3063  -45.3212 O.2       13 UNK        -0.5000 
     79 N          -3.9119  -24.7687  -46.2946 N.am      14 UNK        -0.5000 
     80 CA         -3.9330  -25.7678  -47.3667 C.3       14 UNK         0.1400 
     81 CB         -2.5037  -25.9433  -47.9040 C.3       14 UNK        -0.1800 
     82 C          -4.8914  -25.4124  -48.5235 C.2       14 UNK         0.5000 
     83 O          -5.1492  -26.2679  -49.3702 O.2       14 UNK        -0.5000 
     84 N          -5.3648  -24.1571  -48.5598 N.am      15 UNK        -0.5000 
     85 CA         -6.2099  -23.5263  -49.5807 C.3       15 UNK         0.1400 
     86 CB         -7.5647  -24.2486  -49.7201 C.3       15 UNK        -0.1800 
     87 C          -5.5126  -23.3218  -50.9416 C.2       15 UNK         0.5000 
     88 O          -6.1678  -22.9156  -51.9011 O.2       15 UNK        -0.5000 
     89 N          -4.1933  -23.5439  -51.0020 N.am      16 UNK        -0.5000 
     90 CA         -3.3575  -23.3367  -52.1824 C.3       16 UNK         0.1400 
     91 CB         -1.9638  -23.9318  -51.9338 C.3       16 UNK        -0.1800 
     92 C          -3.2531  -21.8521  -52.5625 C.2       16 UNK         0.5000 
     93 O          -3.2941  -21.5282  -53.7488 O.2       16 UNK        -0.5000 
     94 N          -3.1618  -20.9777  -51.5508 N.am      17 UNK        -0.5000 
     95 CA         -3.1698  -19.5249  -51.7289 C.3       17 UNK         0.1400 
     96 CB         -2.6741  -18.8398  -50.4481 C.3       17 UNK        -0.1800 
     97 C          -4.5566  -18.9903  -52.1286 C.2       17 UNK         0.5000 
     98 O          -4.6388  -18.0470  -52.9144 O.2       17 UNK        -0.5000 
     99 N          -5.6183  -19.6165  -51.6007 N.am      18 UNK        -0.5000 
    100 CA        -7.0125  -19.2784  -51.8926 C.3       18 UNK         0.1400 
    101 CB        -7.9305  -19.9461  -50.8565 C.3       18 UNK        -0.1800 
    102 C         -7.4179  -19.6709  -53.3248 C.2       18 UNK         0.5000 
    103 O         -8.0788  -18.8889  -54.0088 O.2       18 UNK        -0.5000 
    104 N         -6.9876  -20.8628  -53.7596 N.am      19 UNK        -0.5000 
    105 CA        -7.1920  -21.3833  -55.1122 C.3       19 UNK         0.1400 
    106 CB        -6.9745  -22.9050  -55.0864 C.3       19 UNK        -0.1800 
    107 C         -6.2676  -20.7391  -56.1646 C.2       19 UNK         0.5000 
    108 O         -6.5329  -20.8817  -57.3586 O.2       19 UNK        -0.5000 
    109 N         -5.1881  -20.0847  -55.7072 N.am      20 UNK        -0.5000 
    110 CA        -4.0608  -19.5627  -56.4907 C.3       20 UNK         0.1400 
    111 CB        -4.5081  -18.4281  -57.4350 C.3       20 UNK        -0.1800 
    112 C         -3.2800  -20.6866  -57.2091 C.2       20 UNK         0.5000 
    113 O         -2.7451  -20.4846  -58.3004 O.2       20 UNK        -0.5000 
    114 N         -3.2302  -21.8571  -56.5626 N.am      21 UNK        -0.5000 
    115 CA        -2.5352  -23.0630  -57.0074 C.3       21 UNK         0.1400 
    116 CB        -3.3345  -24.2832  -56.5223 C.3       21 UNK        -0.1800 
    117 C         -1.0870  -23.1230  -56.4844 C.2       21 UNK         0.5000 
    118 O         -0.3284  -23.9959  -56.9072 O.2       21 UNK        -0.5000 
    119 N         -0.7321  -22.2091  -55.5720 N.am      22 UNK        -0.5000 
    120 CA         0.5914  -22.0800  -54.9460 C.3       22 UNK         0.1400 
    121 C          1.7610  -21.6705  -55.8933 C.2       22 UNK         0.5000 
    122 N          1.5059  -21.2179  -57.1150 N.am      22 UNK        -0.7600 
    123 O          2.9233  -21.7733  -55.5109 O.2       22 UNK        -0.5000 
    124 C124        0.5226  -21.1717  -53.6925 C.3       23 UNK        -0.0398 
    125 S125        0.0215  -19.4489  -54.0591 S.3       23 UNK        -0.2404 
    126 C126        1.5227  -18.5182  -53.6109 C.3       23 UNK        -0.0205 
    127 H127       -4.1200  -11.9828  -47.9706 H         1 UNK         0.0600 
    128 H128       -5.5876  -12.6725  -47.2705 H         1 UNK         0.0600 
    129 H129       -5.1540  -13.0306  -48.9457 H         1 UNK         0.0600 
    130 H130       -2.3046  -13.0084  -47.2645 H         1 UNK         0.3000 
    131 H131       -0.7602  -14.4304  -46.7311 H         1 UNK         0.0600 
    132 H132       -0.6918  -16.7568  -47.5261 H         1 UNK         0.0800 
    133 H133       -2.4053  -16.7532  -47.8320 H         1 UNK         0.0800 
    134 H134        1.0190  -15.2559  -48.7135 H         1 UNK         0.0800 
    135 H135        0.8425  -14.6937  -50.3491 H         1 UNK         0.0800 
    136 H136        0.6230  -16.3267  -52.2592 H         1 UNK         0.1150 
    137 H137        2.5776  -20.0941  -51.6361 H         1 UNK         0.1150 
    138 H138        1.6015  -17.6183  -48.2935 H         1 UNK         0.1150 
    139 H139        2.5832  -19.7238  -47.8837 H         1 UNK         0.0800 
    140 H140        3.7349  -20.1936  -49.1127 H         1 UNK         0.0800 
    141 H141       -0.4016  -21.1555  -49.9268 H         1 UNK         0.0800 
    142 H142        0.0054  -20.0657  -48.6222 H         1 UNK         0.0800 
    143 H143       -0.6786  -23.0163  -48.2944 H         1 UNK         0.0600 
    144 H144        0.4409  -21.1525  -46.3750 H         1 UNK         0.3000 
    145 H145       -0.2889  -23.1882  -43.5265 H         1 UNK         0.0600 
    146 H146        1.7830  -24.1714  -44.5347 H         1 UNK         0.0600 
    147 H147        2.1739  -23.0133  -43.2722 H         1 UNK         0.0600 
    148 H148        2.3478  -22.5608  -44.9666 H         1 UNK         0.0600 
    149 H149        1.1341  -20.7368  -43.8109 H         1 UNK         0.3000 
    150 H150       -1.4926  -18.4975  -44.1094 H         1 UNK         0.0600 
    151 H151       -0.2622  -19.0058  -41.3504 H         1 UNK         0.0600 
    152 H152       -1.9864  -19.0630  -41.6986 H         1 UNK         0.0600 
    153 H153       -1.1170  -17.5552  -41.8845 H         1 UNK         0.0600 
    154 H154        1.1217  -18.0428  -43.1260 H         1 UNK         0.3000 
    155 H155        2.9546  -18.1926  -46.0628 H         1 UNK         0.0600 
    156 H156        3.1591  -15.7240  -45.9572 H         1 UNK         0.0600 
    157 H157        1.6933  -15.6147  -44.9843 H         1 UNK         0.0600 
    158 H158        1.5988  -16.1520  -46.6413 H         1 UNK         0.0600 
    159 H159        3.4083  -16.7553  -43.6482 H         1 UNK         0.3000 
    160 H160        3.8820  -18.5348  -41.4007 H         1 UNK         0.0600 
    161 H161        6.2817  -19.8585  -42.7642 H         1 UNK         0.0600 
    162 H162        5.0179  -20.6732  -41.8528 H         1 UNK         0.0600 
    163 H163        6.1207  -19.5848  -41.0298 H         1 UNK         0.0600 
    164 H164        5.1223  -16.7039  -41.3437 H         1 UNK         0.3000 
    165 H165        7.5755  -15.6441  -41.7848 H         1 UNK         0.0600 
    166 H166        8.5514  -15.5590  -44.0583 H         1 UNK         0.0600 
    167 H167        7.1484  -14.6819  -44.6602 H         1 UNK         0.0600 
    168 H168        8.2234  -13.9362  -43.4775 H         1 UNK         0.0600 
    169 H169        5.5585  -13.8650  -42.9630 H         1 UNK         0.3000 
    170 H170        4.3339  -12.8535  -39.8890 H         1 UNK         0.0600 
    171 H171        3.4445  -11.4565  -41.7085 H         1 UNK         0.0600 
    172 H172        4.0062  -12.5826  -42.9341 H         1 UNK         0.0600 
    173 H173        5.1658  -11.6908  -41.9515 H         1 UNK         0.0600 
    174 H174        2.3320  -13.8368  -40.0054 H         1 UNK         0.3000 
    175 H175        1.0603  -16.4126  -42.1155 H         1 UNK         0.0600 
    176 H176        1.8356  -16.7550  -39.7999 H         1 UNK         0.0600 
    177 H177        1.0020  -15.3070  -39.2619 H         1 UNK         0.0600 
    178 H178        0.0834  -16.6749  -39.8721 H         1 UNK         0.0600 
    179 H179       -0.5451  -15.0573  -42.6826 H         1 UNK         0.3000 
    180 H180       -2.5429  -12.8579  -40.9555 H         1 UNK         0.0600 
    181 H181       -0.9364  -11.8918  -43.3856 H         1 UNK         0.0600 
    182 H182       -1.0912  -11.0326  -41.8581 H         1 UNK         0.0600 
    183 H183       -2.5053  -11.2690  -42.8713 H         1 UNK         0.0600 
    184 H184       -2.5535  -13.7022  -43.7001 H         1 UNK         0.3000 
    185 H185       -3.2996  -17.0133  -43.3982 H         1 UNK         0.0600 
    186 H186       -5.5954  -16.3918  -42.6345 H         1 UNK         0.0600 
    187 H187       -5.6299  -15.0625  -43.7879 H         1 UNK         0.0600 
    188 H188       -5.5722  -16.7298  -44.3570 H         1 UNK         0.0600 
    189 H189       -3.9268  -15.3904  -45.5944 H         1 UNK         0.3000 
    190 H190       -1.9444  -20.4198  -46.2888 H         1 UNK         0.3000 
    191 H191       -4.4706  -20.1421  -47.7124 H         1 UNK         0.0600 
    192 H192       -3.5176  -18.2866  -46.3204 H         1 UNK         0.0600 
    193 H193       -5.1256  -18.7565  -45.7980 H         1 UNK         0.0600 
    194 H194       -3.7257  -19.2673  -44.8708 H         1 UNK         0.0600 
    195 H195       -3.3212  -21.8455  -44.7623 H         1 UNK         0.3000 
    196 H196       -5.7424  -23.1316  -44.0788 H         1 UNK         0.0600 
    197 H197       -4.2499  -24.6038  -42.7142 H         1 UNK         0.0600 
    198 H198       -3.8134  -22.9106  -42.5367 H         1 UNK         0.0600 
    199 H199       -2.8395  -23.9689  -43.5542 H         1 UNK         0.0600 
    200 H200       -3.0798  -24.1912  -46.2305 H         1 UNK         0.3000 
    201 H201       -4.2620  -26.7210  -46.9478 H         1 UNK         0.0600 
    202 H202       -2.4653  -26.7100  -48.6789 H         1 UNK         0.0600 
    203 H203       -1.8195  -26.2496  -47.1125 H         1 UNK         0.0600 
    204 H204       -2.1220  -25.0187  -48.3380 H         1 UNK         0.0600 
    205 H205       -5.0933  -23.5404  -47.8051 H         1 UNK         0.3000 
    206 H206       -6.4167  -22.5228  -49.2072 H         1 UNK         0.0600 
    207 H207       -8.0472  -24.3707  -48.7504 H         1 UNK         0.0600 
    208 H208       -8.2476  -23.6791  -50.3515 H         1 UNK         0.0600 
    209 H209       -7.4562  -25.2356  -50.1699 H         1 UNK         0.0600 
    210 H210       -3.7194  -23.7815  -50.1423 H         1 UNK         0.3000 
    211 H211       -3.8165  -23.8666  -53.0192 H         1 UNK         0.0600 
    212 H212       -2.0265  -24.9943  -51.6981 H         1 UNK         0.0600 
    213 H213       -1.3350  -23.8338  -52.8197 H         1 UNK         0.0600 
    214 H214       -1.4526  -23.4354  -51.1078 H         1 UNK         0.0600 
    215 H215       -3.1435  -21.3343  -50.6000 H         1 UNK         0.3000 
    216 H216       -2.4797  -19.2696  -52.5345 H         1 UNK         0.0600 
    217 H217       -3.2535  -19.1377  -49.5749 H         1 UNK         0.0600 
    218 H218       -2.7558  -17.7570  -50.5381 H         1 UNK         0.0600 
    219 H219       -1.6253  -19.0651  -50.2590 H         1 UNK         0.0600 
    220 H220       -5.4576  -20.4014  -50.9892 H         1 UNK         0.3000 
    221 H221       -7.1268  -18.1964  -51.7973 H         1 UNK         0.0600 
    222 H222       -7.8771  -21.0337  -50.9056 H         1 UNK         0.0600 
    223 H223       -7.6693  -19.6423  -49.8426 H         1 UNK         0.0600 
    224 H224       -8.9709  -19.6639  -51.0218 H         1 UNK         0.0600 
    225 H225       -6.5156  -21.4834  -53.1068 H         1 UNK         0.3000 
    226 H226       -8.2237  -21.1875  -55.4116 H         1 UNK         0.0600 
    227 H227       -7.6587  -23.3893  -54.3894 H         1 UNK         0.0600 
    228 H228       -7.1467  -23.3446  -56.0696 H         1 UNK         0.0600 
    229 H229       -5.9569  -23.1592  -54.7861 H         1 UNK         0.0600 
    230 H230       -5.0651  -20.0497  -54.7047 H         1 UNK         0.3000 
    231 H231       -3.3678  -19.1320  -55.7661 H         1 UNK         0.0600 
    232 H232       -5.1424  -18.7949  -58.2421 H         1 UNK         0.0600 
    233 H233       -3.6466  -17.9419  -57.8941 H         1 UNK         0.0600 
    234 H234       -5.0620  -17.6614  -56.8933 H         1 UNK         0.0600 
    235 H235       -3.6172  -21.8854  -55.6241 H         1 UNK         0.3000 
    236 H236       -2.4979  -23.0843  -58.0984 H         1 UNK         0.0600 
    237 H237       -3.3854  -24.3236  -55.4338 H         1 UNK         0.0600 
    238 H238       -4.3553  -24.2625  -56.9047 H         1 UNK         0.0600 
    239 H239       -2.8784  -25.2128  -56.8651 H         1 UNK         0.0600 
    240 H240       -1.4272  -21.5394  -55.2723 H         1 UNK         0.3000 
    241 H241        0.8533  -23.0790  -54.5923 H         1 UNK         0.0600 
    242 H242        0.5564  -21.1245  -57.4380 H         1 UNK         0.3800 
    243 H243        2.2701  -20.9606  -57.7195 H         1 UNK         0.3800 
    244 H244       -0.1929  -21.5792  -52.9784 H         1 UNK         0.0800 
    245 H245        1.4813  -21.1899  -53.1775 H         1 UNK         0.0800 
    246 H246        2.4127  -19.0575  -53.9394 H         1 UNK         0.0800 
    247 H247        1.5234  -17.5740  -54.1573 H         1 UNK         0.0800 
@<TRIPOS>BOND
     1    1    2 1    
     2    1  127 1    
     3    1  128 1    
     4    1  129 1    
     5    2    3 2    
     6    2    4 am   BACKBONE|DICT|INTERRES
     7    4    5 1    
     8    4  130 1    
     9    5    6 1    
    10    5   65 1    
    11    5  131 1    
    12    6    7 1    
    13    6  132 1    
    14    6  133 1    
    15    7    8 1    
    16    8    9 1    
    17    8  134 1    
    18    8  135 1    
    19    9   10 ar   
    20    9   14 ar   
    21   10   11 ar   
    22   10  136 1    
    23   11   12 ar   
    24   11  126 1    
    25   12   13 ar   
    26   12  137 1    
    27   13   14 ar   
    28   13   15 1    
    29   14  138 1    
    30   15   16 1    
    31   15  139 1    
    32   15  140 1    
    33   16   17 1    
    34   17   18 1    
    35   17  141 1    
    36   17  142 1    
    37   18   19 1    
    38   18   67 1    
    39   18  143 1    
    40   19   20 am   BACKBONE|DICT|INTERRES
    41   19  144 1    
    42   20   21 2    
    43   20   22 1    
    44   22   23 1    
    45   22   24 1    
    46   22  145 1    
    47   23  146 1    
    48   23  147 1    
    49   23  148 1    
    50   24   25 am   BACKBONE|DICT|INTERRES
    51   24  149 1    
    52   25   26 2    
    53   25   27 1    
    54   27   28 1    
    55   27   29 1    
    56   27  150 1    
    57   28  151 1    
    58   28  152 1    
    59   28  153 1    
    60   29   30 am   BACKBONE|DICT|INTERRES
    61   29  154 1    
    62   30   31 2    
    63   30   32 1    
    64   32   33 1    
    65   32   34 1    
    66   32  155 1    
    67   33  156 1    
    68   33  157 1    
    69   33  158 1    
    70   34   35 am   BACKBONE|DICT|INTERRES
    71   34  159 1    
    72   35   36 2    
    73   35   37 1    
    74   37   38 1    
    75   37   39 1    
    76   37  160 1    
    77   38  161 1    
    78   38  162 1    
    79   38  163 1    
    80   39   40 am   BACKBONE|DICT|INTERRES
    81   39  164 1    
    82   40   41 2    
    83   40   42 1    
    84   42   43 1    
    85   42   44 1    
    86   42  165 1    
    87   43  166 1    
    88   43  167 1    
    89   43  168 1    
    90   44   45 am   BACKBONE|DICT|INTERRES
    91   44  169 1    
    92   45   46 2    
    93   45   47 1    
    94   47   48 1    
    95   47   49 1    
    96   47  170 1    
    97   48  171 1    
    98   48  172 1    
    99   48  173 1    
   100   49   50 am   BACKBONE|DICT|INTERRES
   101   49  174 1    
   102   50   51 2    
   103   50   52 1    
   104   52   53 1    
   105   52   54 1    
   106   52  175 1    
   107   53  176 1    
   108   53  177 1    
   109   53  178 1    
   110   54   55 am   BACKBONE|DICT|INTERRES
   111   54  179 1    
   112   55   56 2    
   113   55   57 1    
   114   57   58 1    
   115   57   59 1    
   116   57  180 1    
   117   58  181 1    
   118   58  182 1    
   119   58  183 1    
   120   59   60 am   BACKBONE|DICT|INTERRES
   121   59  184 1    
   122   60   61 2    
   123   60   62 1    
   124   62   63 1    
   125   62   64 1    
   126   62  185 1    
   127   63  186 1    
   128   63  187 1    
   129   63  188 1    
   130   64   65 am   BACKBONE|DICT|INTERRES
   131   64  189 1    
   132   65   66 2    
   133   67   68 2    
   134   67   69 am   BACKBONE|DICT|INTERRES
   135   69   70 1    
   136   69  190 1    
   137   70   71 1    
   138   70   72 1    
   139   70  191 1    
   140   71  192 1    
   141   71  193 1    
   142   71  194 1    
   143   72   73 2    
   144   72   74 am   BACKBONE|DICT|INTERRES
   145   74   75 1    
   146   74  195 1    
   147   75   76 1    
   148   75   77 1    
   149   75  196 1    
   150   76  197 1    
   151   76  198 1    
   152   76  199 1    
   153   77   78 2    
   154   77   79 am   BACKBONE|DICT|INTERRES
   155   79   80 1    
   156   79  200 1    
   157   80   81 1    
   158   80   82 1    
   159   80  201 1    
   160   81  202 1    
   161   81  203 1    
   162   81  204 1    
   163   82   83 2    
   164   82   84 am   BACKBONE|DICT|INTERRES
   165   84   85 1    
   166   84  205 1    
   167   85   86 1    
   168   85   87 1    
   169   85  206 1    
   170   86  207 1    
   171   86  208 1    
   172   86  209 1    
   173   87   88 2    
   174   87   89 am   BACKBONE|DICT|INTERRES
   175   89   90 1    
   176   89  210 1    
   177   90   91 1    
   178   90   92 1    
   179   90  211 1    
   180   91  212 1    
   181   91  213 1    
   182   91  214 1    
   183   92   93 2    
   184   92   94 am   BACKBONE|DICT|INTERRES
   185   94   95 1    
   186   94  215 1    
   187   95   96 1    
   188   95   97 1    
   189   95  216 1    
   190   96  217 1    
   191   96  218 1    
   192   96  219 1    
   193   97   98 2    
   194   97   99 am   BACKBONE|DICT|INTERRES
   195   99  100 1    
   196   99  220 1    
   197  100  101 1    
   198  100  102 1    
   199  100  221 1    
   200  101  222 1    
   201  101  223 1    
   202  101  224 1    
   203  102  103 2    
   204  102  104 am   BACKBONE|DICT|INTERRES
   205  104  105 1    
   206  104  225 1    
   207  105  106 1    
   208  105  107 1    
   209  105  226 1    
   210  106  227 1    
   211  106  228 1    
   212  106  229 1    
   213  107  108 2    
   214  107  109 am   BACKBONE|DICT|INTERRES
   215  109  110 1    
   216  109  230 1    
   217  110  111 1    
   218  110  112 1    
   219  110  231 1    
   220  111  232 1    
   221  111  233 1    
   222  111  234 1    
   223  112  113 2    
   224  112  114 am   BACKBONE|DICT|INTERRES
   225  114  115 1    
   226  114  235 1    
   227  115  116 1    
   228  115  117 1    
   229  115  236 1    
   230  116  237 1    
   231  116  238 1    
   232  116  239 1    
   233  117  118 2    
   234  117  119 am   BACKBONE|DICT|INTERRES
   235  119  120 1    
   236  119  240 1    
   237  120  121 1    
   238  120  124 1    
   239  120  241 1    
   240  121  122 am   BACKBONE|DICT|INTERRES
   241  121  123 2    
   242  122  242 1    
   243  122  243 1    
   244  124  125 1    
   245  124  244 1    
   246  124  245 1    
   247  125  126 1    
   248  126  246 1    
   249  126  247 1    
@<TRIPOS>SUBSTRUCTURE
     1 UNK         1 GROUP             0       ****    0 ROOT    
