@<TRIPOS>MOLECULE
3R540
247   249    1
SMALL
USER_CHARGES


@<TRIPOS>ATOM
      1 CA         -0.1004  -10.9831  -46.4995 C.3       0 UNK        -0.1800 
      2 C           0.2050  -12.4421  -46.1931 C.2       0 UNK         0.5000 
      3 O           1.3390  -12.8793  -46.3760 O.2       0 UNK        -0.5000 
      4 N          -0.8016  -13.1945  -45.7313 N.am      1 UNK        -0.5000 
      5 CA         -0.6820  -14.6107  -45.3561 C.3       1 UNK         0.1400 
      6 C6         -2.0587  -15.3185  -45.3198 C.3       23 UNK        -0.0398 
      7 S7         -2.9481  -15.2194  -46.9114 S.3       23 UNK        -0.2404 
      8 C8         -2.4565  -16.8037  -47.6459 C.3       23 UNK        -0.0205 
      9 C9         -3.0751  -17.0236  -49.0173 C.ar      23 UNK        -0.0193 
     10 C10        -2.2869  -16.9378  -50.1683 C.ar      23 UNK        -0.1150 
     11 C11        -2.8202  -17.2558  -51.4212 C.ar      23 UNK        -0.0193 
     12 C12        -4.1618  -17.6373  -51.5184 C.ar      23 UNK        -0.1150 
     13 C13        -4.9663  -17.7076  -50.3775 C.ar      23 UNK        -0.0193 
     14 C14        -4.4201  -17.3857  -49.1315 C.ar      23 UNK        -0.1150 
     15 C15        -6.4184  -18.1469  -50.4963 C.3       23 UNK        -0.0205 
     16 S16        -6.6084  -19.9402  -50.2273 S.3       23 UNK        -0.2404 
     17 C17        -6.5984  -20.0566  -48.4081 C.3       23 UNK        -0.0398 
     18 CA         -5.2251  -20.4618  -47.8123 C.3       11 UNK         0.1400 
     19 N          -5.0806  -19.9260  -46.4538 N.am      11 UNK        -0.5000 
     20 C          -4.0009  -20.0077  -45.6655 C.2       10 UNK         0.5000 
     21 O          -2.9597  -20.5862  -45.9904 O.2       10 UNK        -0.5000 
     22 CA         -4.1148  -19.2913  -44.3009 C.3       10 UNK         0.1400 
     23 CB         -5.5351  -19.3578  -43.6955 C.3       10 UNK        -0.1800 
     24 N          -3.1284  -19.7435  -43.3193 N.am      10 UNK        -0.5000 
     25 C          -2.9707  -20.9724  -42.8097 C.2       9 UNK         0.5000 
     26 O          -3.6638  -21.9444  -43.1175 O.2       9 UNK        -0.5000 
     27 CA         -1.8082  -21.1215  -41.8036 C.3       9 UNK         0.1400 
     28 CB         -1.7440  -22.5156  -41.1548 C.3       9 UNK        -0.1800 
     29 N          -0.5235  -20.8241  -42.4426 N.am      9 UNK        -0.5000 
     30 C          -0.0610  -19.5934  -42.6938 C.2       8 UNK         0.5000 
     31 O          -0.6353  -18.5643  -42.3276 O.2       8 UNK        -0.5000 
     32 CA          1.1975  -19.5009  -43.5671 C.3       8 UNK         0.1400 
     33 CB          0.7996  -19.3609  -45.0446 C.3       8 UNK        -0.1800 
     34 N           1.9929  -18.3392  -43.1865 N.am      8 UNK        -0.5000 
     35 C           3.0158  -18.3670  -42.3249 C.2       7 UNK         0.5000 
     36 O           3.4037  -19.3940  -41.7638 O.2       7 UNK        -0.5000 
     37 CA          3.7241  -17.0209  -42.0567 C.3       7 UNK         0.1400 
     38 CB          5.1000  -17.1900  -41.3764 C.3       7 UNK        -0.1800 
     39 N           3.8375  -16.1785  -43.2557 N.am      7 UNK        -0.5000 
     40 C           4.4832  -16.4832  -44.3930 C.2       6 UNK         0.5000 
     41 O           5.1098  -17.5283  -44.5707 O.2       6 UNK        -0.5000 
     42 CA          4.4391  -15.4463  -45.5242 C.3       6 UNK         0.1400 
     43 CB          3.2256  -15.6781  -46.4383 C.3       6 UNK        -0.1800 
     44 N           4.4423  -14.0747  -45.0125 N.am      6 UNK        -0.5000 
     45 C           5.0415  -13.0444  -45.6189 C.2       5 UNK         0.5000 
     46 O           5.5911  -13.1188  -46.7196 O.2       5 UNK        -0.5000 
     47 CA          5.0776  -11.7091  -44.8493 C.3       5 UNK         0.1400 
     48 CB          3.7679  -10.9279  -45.0373 C.3       5 UNK        -0.1800 
     49 N           5.3578  -11.8428  -43.4157 N.am      5 UNK        -0.5000 
     50 C           6.4534  -12.3981  -42.8742 C.2       4 UNK         0.5000 
     51 O           7.3464  -12.9267  -43.5366 O.2       4 UNK        -0.5000 
     52 CA          6.6037  -12.3304  -41.3375 C.3       4 UNK         0.1400 
     53 CB          7.9178  -11.6280  -40.9566 C.3       4 UNK        -0.1800 
     54 N           5.5029  -11.6132  -40.6836 N.am      4 UNK        -0.5000 
     55 C           4.3365  -12.1018  -40.2416 C.2       3 UNK         0.5000 
     56 O           3.4928  -11.3614  -39.7348 O.2       3 UNK        -0.5000 
     57 CA          4.0377  -13.6147  -40.3362 C.3       3 UNK         0.1400 
     58 CB          4.4440  -14.3296  -39.0385 C.3       3 UNK        -0.1800 
     59 N           2.6118  -13.8306  -40.5716 N.am      3 UNK        -0.5000 
     60 C           2.0293  -13.6786  -41.7651 C.2       2 UNK         0.5000 
     61 O           2.6691  -13.5055  -42.8061 O.2       2 UNK        -0.5000 
     62 CA          0.4901  -13.7373  -41.7805 C.3       2 UNK         0.1400 
     63 CB         -0.1041  -12.5176  -41.0563 C.3       2 UNK        -0.1800 
     64 N          -0.0743  -13.7824  -43.1282 N.am      2 UNK        -0.5000 
     65 C           0.0382  -14.7924  -44.0016 C.2       1 UNK         0.5000 
     66 O           0.6589  -15.8320  -43.7745 O.2       1 UNK        -0.5000 
     67 C          -5.0008  -21.9852  -47.8928 C.2       11 UNK         0.5000 
     68 O          -4.4791  -22.4731  -48.8972 O.2       11 UNK        -0.5000 
     69 N          -5.3677  -22.7027  -46.8213 N.am      12 UNK        -0.5000 
     70 CA         -5.1802  -24.1444  -46.6598 C.3       12 UNK         0.1400 
     71 CB         -5.8156  -24.5880  -45.3341 C.3       12 UNK        -0.1800 
     72 C          -3.7044  -24.5777  -46.7237 C.2       12 UNK         0.5000 
     73 O          -3.4098  -25.6270  -47.2954 O.2       12 UNK        -0.5000 
     74 N          -2.8109  -23.7550  -46.1605 N.am      13 UNK        -0.5000 
     75 CA         -1.3689  -23.9808  -46.1796 C.3       13 UNK         0.1400 
     76 CB         -0.7583  -23.4495  -44.8767 C.3       13 UNK        -0.1800 
     77 C          -0.7057  -23.3108  -47.3909 C.2       13 UNK         0.5000 
     78 O           0.1389  -23.9319  -48.0362 O.2       13 UNK        -0.5000 
     79 N          -1.0787  -22.0527  -47.6633 N.am      14 UNK        -0.5000 
     80 CA         -0.4350  -21.2108  -48.6716 C.3       14 UNK         0.1400 
     81 CB         -0.8942  -19.7595  -48.4819 C.3       14 UNK        -0.1800 
     82 C          -0.7036  -21.6544  -50.1183 C.2       14 UNK         0.5000 
     83 O           0.2147  -21.6303  -50.9385 O.2       14 UNK        -0.5000 
     84 N          -1.9572  -22.0233  -50.4042 N.am      15 UNK        -0.5000 
     85 CA         -2.4646  -22.2240  -51.7599 C.3       15 UNK         0.1400 
     86 CB         -3.4172  -21.0656  -52.0807 C.3       15 UNK        -0.1800 
     87 C          -3.1763  -23.5716  -51.9352 C.2       15 UNK         0.5000 
     88 O          -3.8364  -23.7624  -52.9591 O.2       15 UNK        -0.5000 
     89 N          -3.0662  -24.4643  -50.9409 N.am      16 UNK        -0.5000 
     90 CA         -3.7270  -25.7724  -50.8652 C.3       16 UNK         0.1400 
     91 CB         -3.1503  -26.7305  -51.9295 C.3       16 UNK        -0.1800 
     92 C          -5.2663  -25.6559  -50.9221 C.2       16 UNK         0.5000 
     93 O          -5.9210  -26.4360  -51.6130 O.2       16 UNK        -0.5000 
     94 N          -5.8056  -24.6431  -50.2261 N.am      17 UNK        -0.5000 
     95 CA         -7.2136  -24.2273  -50.2115 C.3       17 UNK         0.1400 
     96 CB         -8.1201  -25.3223  -49.6114 C.3       17 UNK        -0.1800 
     97 C          -7.6770  -23.7276  -51.5955 C.2       17 UNK         0.5000 
     98 O          -8.7650  -24.0746  -52.0570 O.2       17 UNK        -0.5000 
     99 N          -6.8068  -22.9275  -52.2279 N.am      18 UNK        -0.5000 
    100 CA        -6.9342  -22.3063  -53.5503 C.3       18 UNK         0.1400 
    101 CB        -8.1735  -21.3910  -53.6291 C.3       18 UNK        -0.1800 
    102 C         -6.8498  -23.2952  -54.7326 C.2       18 UNK         0.5000 
    103 O         -7.1343  -22.9006  -55.8640 O.2       18 UNK        -0.5000 
    104 N         -6.4268  -24.5420  -54.4787 N.am      19 UNK        -0.5000 
    105 CA        -6.1939  -25.5550  -55.5092 C.3       19 UNK         0.1400 
    106 CB        -6.1641  -26.9501  -54.8690 C.3       19 UNK        -0.1800 
    107 C         -4.8991  -25.2912  -56.2991 C.2       19 UNK         0.5000 
    108 O         -4.8799  -25.4968  -57.5133 O.2       19 UNK        -0.5000 
    109 N         -3.8520  -24.8253  -55.6039 N.am      20 UNK        -0.5000 
    110 CA        -2.5816  -24.4103  -56.2019 C.3       20 UNK         0.1400 
    111 CB        -1.4313  -24.7608  -55.2449 C.3       20 UNK        -0.1800 
    112 C         -2.5719  -22.9053  -56.5240 C.2       20 UNK         0.5000 
    113 O         -1.8114  -22.4804  -57.3948 O.2       20 UNK        -0.5000 
    114 N         -3.3983  -22.1250  -55.8066 N.am      21 UNK        -0.5000 
    115 CA        -3.6380  -20.6819  -55.9763 C.3       21 UNK         0.1400 
    116 CB        -4.3778  -20.4244  -57.3047 C.3       21 UNK        -0.1800 
    117 C         -2.3740  -19.8018  -55.8254 C.2       21 UNK         0.5000 
    118 O         -2.3323  -18.6944  -56.3633 O.2       21 UNK        -0.5000 
    119 N         -1.3641  -20.3211  -55.1132 N.am      22 UNK        -0.5000 
    120 CA        -0.0012  -19.7704  -54.9922 C.3       22 UNK         0.1400 
    121 C          0.8181  -19.7946  -56.3220 C.2       22 UNK         0.5000 
    122 N          0.4375  -20.5758  -57.3272 N.am      22 UNK        -0.7600 
    123 O          1.8378  -19.1204  -56.4409 O.2       22 UNK        -0.5000 
    124 C124        0.0604  -18.3910  -54.2734 C.3       23 UNK        -0.0398 
    125 S125       -0.6164  -18.4583  -52.5811 S.3       23 UNK        -0.2404 
    126 C126       -1.9418  -17.2133  -52.6638 C.3       23 UNK        -0.0205 
    127 H127       -1.1403  -10.7326  -46.2884 H         1 UNK         0.0600 
    128 H128        0.0942  -10.7725  -47.5511 H         1 UNK         0.0600 
    129 H129        0.5356  -10.3340  -45.8975 H         1 UNK         0.0600 
    130 H130       -1.7237  -12.7920  -45.6419 H         1 UNK         0.3000 
    131 H131       -0.0730  -15.1109  -46.1119 H         1 UNK         0.0600 
    132 H132       -2.6964  -14.8724  -44.5543 H         1 UNK         0.0800 
    133 H133       -1.9437  -16.3674  -45.0385 H         1 UNK         0.0800 
    134 H134       -1.3678  -16.8429  -47.7093 H         1 UNK         0.0800 
    135 H135       -2.7545  -17.6192  -46.9866 H         1 UNK         0.0800 
    136 H136       -1.2442  -16.6642  -50.0883 H         1 UNK         0.1150 
    137 H137       -4.5779  -17.8974  -52.4815 H         1 UNK         0.1150 
    138 H138       -5.0314  -17.4481  -48.2428 H         1 UNK         0.1150 
    139 H139       -7.0450  -17.5874  -49.8005 H         1 UNK         0.0800 
    140 H140       -6.7935  -17.9074  -51.4925 H         1 UNK         0.0800 
    141 H141       -7.3829  -20.7504  -48.0998 H         1 UNK         0.0800 
    142 H142       -6.9112  -19.0886  -48.0154 H         1 UNK         0.0800 
    143 H143       -4.4324  -20.0066  -48.4075 H         1 UNK         0.0600 
    144 H144       -5.8853  -19.4375  -46.0891 H         1 UNK         0.3000 
    145 H145       -3.8833  -18.2426  -44.4923 H         1 UNK         0.0600 
    146 H146       -6.2593  -18.8157  -44.3040 H         1 UNK         0.0600 
    147 H147       -5.8863  -20.3857  -43.5964 H         1 UNK         0.0600 
    148 H148       -5.5589  -18.9043  -42.7043 H         1 UNK         0.0600 
    149 H149       -2.4480  -19.0483  -43.0290 H         1 UNK         0.3000 
    150 H150       -1.9818  -20.4003  -41.0020 H         1 UNK         0.0600 
    151 H151       -2.6783  -22.7492  -40.6428 H         1 UNK         0.0600 
    152 H152       -0.9473  -22.5673  -40.4126 H         1 UNK         0.0600 
    153 H153       -1.5688  -23.3013  -41.8879 H         1 UNK         0.0600 
    154 H154       -0.0103  -21.6191  -42.7935 H         1 UNK         0.3000 
    155 H155        1.7842  -20.4149  -43.4523 H         1 UNK         0.0600 
    156 H156        0.1999  -18.4658  -45.2172 H         1 UNK         0.0600 
    157 H157        0.2123  -20.2191  -45.3736 H         1 UNK         0.0600 
    158 H158        1.6789  -19.3026  -45.6864 H         1 UNK         0.0600 
    159 H159        1.6513  -17.4387  -43.5146 H         1 UNK         0.3000 
    160 H160        3.0791  -16.4842  -41.3617 H         1 UNK         0.0600 
    161 H161        5.5931  -16.2307  -41.2249 H         1 UNK         0.0600 
    162 H162        5.7693  -17.8164  -41.9667 H         1 UNK         0.0600 
    163 H163        4.9954  -17.6588  -40.3973 H         1 UNK         0.0600 
    164 H164        3.2995  -15.3194  -43.2288 H         1 UNK         0.3000 
    165 H165        5.3435  -15.6049  -46.1158 H         1 UNK         0.0600 
    166 H166        3.2422  -15.0054  -47.2959 H         1 UNK         0.0600 
    167 H167        3.2105  -16.6989  -46.8219 H         1 UNK         0.0600 
    168 H168        2.2914  -15.5132  -45.9050 H         1 UNK         0.0600 
    169 H169        3.9664  -13.8979  -44.1327 H         1 UNK         0.3000 
    170 H170        5.8856  -11.1136  -45.2791 H         1 UNK         0.0600 
    171 H171        3.5253  -10.8185  -46.0952 H         1 UNK         0.0600 
    172 H172        2.9270  -11.4329  -44.5610 H         1 UNK         0.0600 
    173 H173        3.8404   -9.9257  -44.6149 H         1 UNK         0.0600 
    174 H174        4.6718  -11.4437  -42.7924 H         1 UNK         0.3000 
    175 H175        6.6690  -13.3527  -40.9631 H         1 UNK         0.0600 
    176 H176        7.9493  -10.6027  -41.3276 H         1 UNK         0.0600 
    177 H177        8.0492  -11.5974  -39.8747 H         1 UNK         0.0600 
    178 H178        8.7804  -12.1528  -41.3693 H         1 UNK         0.0600 
    179 H179        5.6521  -10.6193  -40.5867 H         1 UNK         0.3000 
    180 H180        4.5831  -14.0601  -41.1676 H         1 UNK         0.0600 
    181 H181        3.9279  -13.9149  -38.1716 H         1 UNK         0.0600 
    182 H182        5.5153  -14.2343  -38.8582 H         1 UNK         0.0600 
    183 H183        4.2159  -15.3944  -39.0841 H         1 UNK         0.0600 
    184 H184        2.0334  -13.9267  -39.7495 H         1 UNK         0.3000 
    185 H185        0.1839  -14.6450  -41.2566 H         1 UNK         0.0600 
    186 H186        0.1847  -11.5840  -41.5412 H         1 UNK         0.0600 
    187 H187       -1.1933  -12.5622  -41.0362 H         1 UNK         0.0600 
    188 H188        0.2323  -12.4644  -40.0201 H         1 UNK         0.0600 
    189 H189       -0.5603  -12.9532  -43.4341 H         1 UNK         0.3000 
    190 H190       -5.7661  -22.2133  -46.0336 H         1 UNK         0.3000 
    191 H191       -5.7090  -24.6461  -47.4708 H         1 UNK         0.0600 
    192 H192       -5.3520  -24.0918  -44.4799 H         1 UNK         0.0600 
    193 H193       -5.7060  -25.6635  -45.1887 H         1 UNK         0.0600 
    194 H194       -6.8826  -24.3657  -45.3139 H         1 UNK         0.0600 
    195 H195       -3.1338  -22.8951  -45.7352 H         1 UNK         0.3000 
    196 H196       -1.1598  -25.0517  -46.2313 H         1 UNK         0.0600 
    197 H197       -1.1481  -23.9978  -44.0205 H         1 UNK         0.0600 
    198 H198       -0.9818  -22.3923  -44.7353 H         1 UNK         0.0600 
    199 H199        0.3264  -23.5649  -44.8725 H         1 UNK         0.0600 
    200 H200       -1.7742  -21.6020  -47.0741 H         1 UNK         0.3000 
    201 H201        0.6437  -21.2484  -48.5049 H         1 UNK         0.0600 
    202 H202       -0.6565  -19.3908  -47.4860 H         1 UNK         0.0600 
    203 H203       -1.9706  -19.6634  -48.6247 H         1 UNK         0.0600 
    204 H204       -0.4069  -19.0983  -49.1997 H         1 UNK         0.0600 
    205 H205       -2.6526  -22.0453  -49.6655 H         1 UNK         0.3000 
    206 H206       -1.6512  -22.2113  -52.4873 H         1 UNK         0.0600 
    207 H207       -2.9093  -20.1089  -51.9898 H         1 UNK         0.0600 
    208 H208       -3.8017  -21.1316  -53.0945 H         1 UNK         0.0600 
    209 H209       -4.2681  -21.0541  -51.4026 H         1 UNK         0.0600 
    210 H210       -2.5087  -24.2043  -50.1398 H         1 UNK         0.3000 
    211 H211       -3.4885  -26.1892  -49.8869 H         1 UNK         0.0600 
    212 H212       -3.3640  -26.3928  -52.9433 H         1 UNK         0.0600 
    213 H213       -3.5685  -27.7320  -51.8233 H         1 UNK         0.0600 
    214 H214       -2.0686  -26.8200  -51.8309 H         1 UNK         0.0600 
    215 H215       -5.1697  -24.0176  -49.7376 H         1 UNK         0.3000 
    216 H216       -7.2691  -23.3634  -49.5479 H         1 UNK         0.0600 
    217 H217       -9.1370  -24.9524  -49.4760 H         1 UNK         0.0600 
    218 H218       -7.7592  -25.6423  -48.6342 H         1 UNK         0.0600 
    219 H219       -8.1781  -26.2021  -50.2526 H         1 UNK         0.0600 
    220 H220       -5.9304  -22.7475  -51.7600 H         1 UNK         0.3000 
    221 H221       -6.0609  -21.6624  -53.6507 H         1 UNK         0.0600 
    222 H222       -9.1020  -21.9619  -53.6275 H         1 UNK         0.0600 
    223 H223       -8.2050  -20.6947  -52.7913 H         1 UNK         0.0600 
    224 H224       -8.1616  -20.7946  -54.5421 H         1 UNK         0.0600 
    225 H225       -6.1940  -24.7927  -53.5272 H         1 UNK         0.3000 
    226 H226       -7.0284  -25.5286  -56.2133 H         1 UNK         0.0600 
    227 H227       -7.0794  -27.1488  -54.3111 H         1 UNK         0.0600 
    228 H228       -6.0707  -27.7254  -55.6303 H         1 UNK         0.0600 
    229 H229       -5.3239  -27.0629  -54.1842 H         1 UNK         0.0600 
    230 H230       -3.9565  -24.6584  -54.6062 H         1 UNK         0.3000 
    231 H231       -2.4166  -24.9516  -57.1359 H         1 UNK         0.0600 
    232 H232       -1.4297  -25.8239  -55.0037 H         1 UNK         0.0600 
    233 H233       -1.4940  -24.2062  -54.3095 H         1 UNK         0.0600 
    234 H234       -0.4661  -24.5286  -55.6968 H         1 UNK         0.0600 
    235 H235       -3.9479  -22.5826  -55.0933 H         1 UNK         0.3000 
    236 H236       -4.3122  -20.3793  -55.1753 H         1 UNK         0.0600 
    237 H237       -3.7465  -20.6407  -58.1671 H         1 UNK         0.0600 
    238 H238       -5.2735  -21.0413  -57.3814 H         1 UNK         0.0600 
    239 H239       -4.6958  -19.3843  -57.3840 H         1 UNK         0.0600 
    240 H240       -1.4941  -21.2410  -54.7230 H         1 UNK         0.3000 
    241 H241        0.5277  -20.4768  -54.3512 H         1 UNK         0.0600 
    242 H242        0.9843  -20.5870  -58.1734 H         1 UNK         0.3800 
    243 H243       -0.3899  -21.1617  -57.2630 H         1 UNK         0.3800 
    244 H244       -0.4498  -17.6249  -54.8578 H         1 UNK         0.0800 
    245 H245        1.0943  -18.0550  -54.1811 H         1 UNK         0.0800 
    246 H246       -2.5395  -17.3860  -53.5603 H         1 UNK         0.0800 
    247 H247       -1.5022  -16.2202  -52.7653 H         1 UNK         0.0800 
@<TRIPOS>BOND
     1    1    2 1    
     2    1  127 1    
     3    1  128 1    
     4    1  129 1    
     5    2    3 2    
     6    2    4 am   BACKBONE|DICT|INTERRES
     7    4    5 1    
     8    4  130 1    
     9    5    6 1    
    10    5   65 1    
    11    5  131 1    
    12    6    7 1    
    13    6  132 1    
    14    6  133 1    
    15    7    8 1    
    16    8    9 1    
    17    8  134 1    
    18    8  135 1    
    19    9   10 ar   
    20    9   14 ar   
    21   10   11 ar   
    22   10  136 1    
    23   11   12 ar   
    24   11  126 1    
    25   12   13 ar   
    26   12  137 1    
    27   13   14 ar   
    28   13   15 1    
    29   14  138 1    
    30   15   16 1    
    31   15  139 1    
    32   15  140 1    
    33   16   17 1    
    34   17   18 1    
    35   17  141 1    
    36   17  142 1    
    37   18   19 1    
    38   18   67 1    
    39   18  143 1    
    40   19   20 am   BACKBONE|DICT|INTERRES
    41   19  144 1    
    42   20   21 2    
    43   20   22 1    
    44   22   23 1    
    45   22   24 1    
    46   22  145 1    
    47   23  146 1    
    48   23  147 1    
    49   23  148 1    
    50   24   25 am   BACKBONE|DICT|INTERRES
    51   24  149 1    
    52   25   26 2    
    53   25   27 1    
    54   27   28 1    
    55   27   29 1    
    56   27  150 1    
    57   28  151 1    
    58   28  152 1    
    59   28  153 1    
    60   29   30 am   BACKBONE|DICT|INTERRES
    61   29  154 1    
    62   30   31 2    
    63   30   32 1    
    64   32   33 1    
    65   32   34 1    
    66   32  155 1    
    67   33  156 1    
    68   33  157 1    
    69   33  158 1    
    70   34   35 am   BACKBONE|DICT|INTERRES
    71   34  159 1    
    72   35   36 2    
    73   35   37 1    
    74   37   38 1    
    75   37   39 1    
    76   37  160 1    
    77   38  161 1    
    78   38  162 1    
    79   38  163 1    
    80   39   40 am   BACKBONE|DICT|INTERRES
    81   39  164 1    
    82   40   41 2    
    83   40   42 1    
    84   42   43 1    
    85   42   44 1    
    86   42  165 1    
    87   43  166 1    
    88   43  167 1    
    89   43  168 1    
    90   44   45 am   BACKBONE|DICT|INTERRES
    91   44  169 1    
    92   45   46 2    
    93   45   47 1    
    94   47   48 1    
    95   47   49 1    
    96   47  170 1    
    97   48  171 1    
    98   48  172 1    
    99   48  173 1    
   100   49   50 am   BACKBONE|DICT|INTERRES
   101   49  174 1    
   102   50   51 2    
   103   50   52 1    
   104   52   53 1    
   105   52   54 1    
   106   52  175 1    
   107   53  176 1    
   108   53  177 1    
   109   53  178 1    
   110   54   55 am   BACKBONE|DICT|INTERRES
   111   54  179 1    
   112   55   56 2    
   113   55   57 1    
   114   57   58 1    
   115   57   59 1    
   116   57  180 1    
   117   58  181 1    
   118   58  182 1    
   119   58  183 1    
   120   59   60 am   BACKBONE|DICT|INTERRES
   121   59  184 1    
   122   60   61 2    
   123   60   62 1    
   124   62   63 1    
   125   62   64 1    
   126   62  185 1    
   127   63  186 1    
   128   63  187 1    
   129   63  188 1    
   130   64   65 am   BACKBONE|DICT|INTERRES
   131   64  189 1    
   132   65   66 2    
   133   67   68 2    
   134   67   69 am   BACKBONE|DICT|INTERRES
   135   69   70 1    
   136   69  190 1    
   137   70   71 1    
   138   70   72 1    
   139   70  191 1    
   140   71  192 1    
   141   71  193 1    
   142   71  194 1    
   143   72   73 2    
   144   72   74 am   BACKBONE|DICT|INTERRES
   145   74   75 1    
   146   74  195 1    
   147   75   76 1    
   148   75   77 1    
   149   75  196 1    
   150   76  197 1    
   151   76  198 1    
   152   76  199 1    
   153   77   78 2    
   154   77   79 am   BACKBONE|DICT|INTERRES
   155   79   80 1    
   156   79  200 1    
   157   80   81 1    
   158   80   82 1    
   159   80  201 1    
   160   81  202 1    
   161   81  203 1    
   162   81  204 1    
   163   82   83 2    
   164   82   84 am   BACKBONE|DICT|INTERRES
   165   84   85 1    
   166   84  205 1    
   167   85   86 1    
   168   85   87 1    
   169   85  206 1    
   170   86  207 1    
   171   86  208 1    
   172   86  209 1    
   173   87   88 2    
   174   87   89 am   BACKBONE|DICT|INTERRES
   175   89   90 1    
   176   89  210 1    
   177   90   91 1    
   178   90   92 1    
   179   90  211 1    
   180   91  212 1    
   181   91  213 1    
   182   91  214 1    
   183   92   93 2    
   184   92   94 am   BACKBONE|DICT|INTERRES
   185   94   95 1    
   186   94  215 1    
   187   95   96 1    
   188   95   97 1    
   189   95  216 1    
   190   96  217 1    
   191   96  218 1    
   192   96  219 1    
   193   97   98 2    
   194   97   99 am   BACKBONE|DICT|INTERRES
   195   99  100 1    
   196   99  220 1    
   197  100  101 1    
   198  100  102 1    
   199  100  221 1    
   200  101  222 1    
   201  101  223 1    
   202  101  224 1    
   203  102  103 2    
   204  102  104 am   BACKBONE|DICT|INTERRES
   205  104  105 1    
   206  104  225 1    
   207  105  106 1    
   208  105  107 1    
   209  105  226 1    
   210  106  227 1    
   211  106  228 1    
   212  106  229 1    
   213  107  108 2    
   214  107  109 am   BACKBONE|DICT|INTERRES
   215  109  110 1    
   216  109  230 1    
   217  110  111 1    
   218  110  112 1    
   219  110  231 1    
   220  111  232 1    
   221  111  233 1    
   222  111  234 1    
   223  112  113 2    
   224  112  114 am   BACKBONE|DICT|INTERRES
   225  114  115 1    
   226  114  235 1    
   227  115  116 1    
   228  115  117 1    
   229  115  236 1    
   230  116  237 1    
   231  116  238 1    
   232  116  239 1    
   233  117  118 2    
   234  117  119 am   BACKBONE|DICT|INTERRES
   235  119  120 1    
   236  119  240 1    
   237  120  121 1    
   238  120  124 1    
   239  120  241 1    
   240  121  122 am   BACKBONE|DICT|INTERRES
   241  121  123 2    
   242  122  242 1    
   243  122  243 1    
   244  124  125 1    
   245  124  244 1    
   246  124  245 1    
   247  125  126 1    
   248  126  246 1    
   249  126  247 1    
@<TRIPOS>SUBSTRUCTURE
     1 UNK         1 GROUP             0       ****    0 ROOT    
