@<TRIPOS>MOLECULE
3R540
247   249    1
SMALL
USER_CHARGES


@<TRIPOS>ATOM
      1 CA         -3.1830  -14.8844  -50.3603 C.3       0 UNK        -0.1800 
      2 C          -1.8249  -14.2006  -50.3231 C.2       0 UNK         0.5000 
      3 O          -1.7120  -13.0477  -50.7389 O.2       0 UNK        -0.5000 
      4 N          -0.7967  -14.9168  -49.8485 N.am      1 UNK        -0.5000 
      5 CA          0.5990  -14.4637  -49.7932 C.3       1 UNK         0.1400 
      6 C6          1.5650  -15.5893  -49.3490 C.3       23 UNK        -0.0398 
      7 S7          1.6432  -16.9749  -50.5355 S.3       23 UNK        -0.2404 
      8 C8          1.0512  -18.3823  -49.5466 C.3       23 UNK        -0.0205 
      9 C9         -0.4582  -18.5456  -49.6242 C.ar      23 UNK        -0.0193 
     10 C10        -1.0310  -19.3301  -50.6306 C.ar      23 UNK        -0.1150 
     11 C11        -2.4152  -19.5232  -50.6767 C.ar      23 UNK        -0.0193 
     12 C12        -3.2289  -18.9140  -49.7208 C.ar      23 UNK        -0.1150 
     13 C13        -2.6678  -18.1333  -48.7100 C.ar      23 UNK        -0.0193 
     14 C14        -1.2820  -17.9492  -48.6668 C.ar      23 UNK        -0.1150 
     15 C15        -3.5601  -17.5009  -47.6576 C.3       23 UNK        -0.0205 
     16 S16        -3.1603  -18.1108  -45.9979 S.3       23 UNK        -0.2404 
     17 C17        -3.8285  -19.8056  -45.9838 C.3       23 UNK        -0.0398 
     18 CA         -2.9170  -20.9433  -46.5361 C.3       11 UNK         0.1400 
     19 N          -1.4957  -20.8553  -46.1690 N.am      11 UNK        -0.5000 
     20 C          -0.5431  -21.6802  -46.6396 C.2       10 UNK         0.5000 
     21 O          -0.7435  -22.5215  -47.5184 O.2       10 UNK        -0.5000 
     22 CA          0.8515  -21.6194  -45.9836 C.3       10 UNK         0.1400 
     23 CB          1.7951  -20.6621  -46.7251 C.3       10 UNK        -0.1800 
     24 N           0.8012  -21.2699  -44.5633 N.am      10 UNK        -0.5000 
     25 C           0.3391  -22.0807  -43.6016 C.2       9 UNK         0.5000 
     26 O          -0.0538  -23.2263  -43.8134 O.2       9 UNK        -0.5000 
     27 CA          0.2574  -21.5100  -42.1724 C.3       9 UNK         0.1400 
     28 CB          1.5981  -21.6716  -41.4417 C.3       9 UNK        -0.1800 
     29 N          -0.1454  -20.1051  -42.1452 N.am      9 UNK        -0.5000 
     30 C          -1.3307  -19.6471  -42.5722 C.2       8 UNK         0.5000 
     31 O          -2.2483  -20.3754  -42.9557 O.2       8 UNK        -0.5000 
     32 CA         -1.4830  -18.1157  -42.6436 C.3       8 UNK         0.1400 
     33 CB         -1.8733  -17.5385  -41.2755 C.3       8 UNK        -0.1800 
     34 N          -0.2759  -17.4462  -43.1399 N.am      8 UNK        -0.5000 
     35 C           0.3013  -17.6765  -44.3284 C.2       7 UNK         0.5000 
     36 O          -0.1374  -18.4691  -45.1544 O.2       7 UNK        -0.5000 
     37 CA          1.6312  -16.9687  -44.6251 C.3       7 UNK         0.1400 
     38 CB          1.4085  -15.5512  -45.1615 C.3       7 UNK        -0.1800 
     39 N           2.4938  -16.9313  -43.4484 N.am      7 UNK        -0.5000 
     40 C           3.1805  -17.9871  -42.9913 C.2       6 UNK         0.5000 
     41 O           3.2105  -19.0799  -43.5574 O.2       6 UNK        -0.5000 
     42 CA          3.9344  -17.7959  -41.6619 C.3       6 UNK         0.1400 
     43 CB          5.3400  -17.2305  -41.9142 C.3       6 UNK        -0.1800 
     44 N           3.2211  -16.9190  -40.7308 N.am      6 UNK        -0.5000 
     45 C           2.0605  -17.2328  -40.1383 C.2       5 UNK         0.5000 
     46 O           1.4909  -18.3149  -40.2844 O.2       5 UNK        -0.5000 
     47 CA          1.4062  -16.1338  -39.2767 C.3       5 UNK         0.1400 
     48 CB          1.9540  -16.1775  -37.8425 C.3       5 UNK        -0.1800 
     49 N           1.5643  -14.7770  -39.8167 N.am      5 UNK        -0.5000 
     50 C           1.1125  -14.3749  -41.0124 C.2       4 UNK         0.5000 
     51 O           0.5738  -15.1311  -41.8203 O.2       4 UNK        -0.5000 
     52 CA          1.3578  -12.9024  -41.3924 C.3       4 UNK         0.1400 
     53 CB          2.7800  -12.7357  -41.9512 C.3       4 UNK        -0.1800 
     54 N           0.4092  -12.4086  -42.3945 N.am      4 UNK        -0.5000 
     55 C          -0.9153  -12.2789  -42.2258 C.2       3 UNK         0.5000 
     56 O          -1.4913  -12.5273  -41.1653 O.2       3 UNK        -0.5000 
     57 CA         -1.7380  -11.7524  -43.4233 C.3       3 UNK         0.1400 
     58 CB         -2.3969  -10.4068  -43.0755 C.3       3 UNK        -0.1800 
     59 N          -0.9360  -11.5730  -44.6385 N.am      3 UNK        -0.5000 
     60 C          -0.7580  -12.5043  -45.5830 C.2       2 UNK         0.5000 
     61 O          -1.2996  -13.6127  -45.5676 O.2       2 UNK        -0.5000 
     62 CA          0.2090  -12.1391  -46.7220 C.3       2 UNK         0.1400 
     63 CB          1.6376  -11.9158  -46.1739 C.3       2 UNK        -0.1800 
     64 N           0.1820  -13.2097  -47.7180 N.am      2 UNK        -0.5000 
     65 C           0.7946  -13.2120  -48.9088 C.2       1 UNK         0.5000 
     66 O           1.4829  -12.2806  -49.3286 O.2       1 UNK        -0.5000 
     67 C          -3.5004  -22.3013  -46.0905 C.2       11 UNK         0.5000 
     68 O          -4.1305  -22.9940  -46.8892 O.2       11 UNK        -0.5000 
     69 N          -3.2558  -22.6549  -44.8184 N.am      12 UNK        -0.5000 
     70 CA         -3.7218  -23.8870  -44.1793 C.3       12 UNK         0.1400 
     71 CB         -3.4535  -23.8069  -42.6688 C.3       12 UNK        -0.1800 
     72 C          -3.0965  -25.1590  -44.7812 C.2       12 UNK         0.5000 
     73 O          -3.7977  -26.1560  -44.9562 O.2       12 UNK        -0.5000 
     74 N          -1.8000  -25.0940  -45.1126 N.am      13 UNK        -0.5000 
     75 CA         -1.0488  -26.1597  -45.7811 C.3       13 UNK         0.1400 
     76 CB          0.4543  -25.8762  -45.6349 C.3       13 UNK        -0.1800 
     77 C          -1.4120  -26.3347  -47.2697 C.2       13 UNK         0.5000 
     78 O          -1.0427  -27.3529  -47.8560 O.2       13 UNK        -0.5000 
     79 N          -2.1096  -25.3455  -47.8473 N.am      14 UNK        -0.5000 
     80 CA         -2.5082  -25.2292  -49.2499 C.3       14 UNK         0.1400 
     81 CB         -3.5190  -26.3273  -49.6388 C.3       14 UNK        -0.1800 
     82 C          -1.2836  -25.1576  -50.1849 C.2       14 UNK         0.5000 
     83 O          -1.1449  -25.9740  -51.0974 O.2       14 UNK        -0.5000 
     84 N          -0.3978  -24.1894  -49.9084 N.am      15 UNK        -0.5000 
     85 CA          0.8911  -23.9967  -50.5802 C.3       15 UNK         0.1400 
     86 CB          1.6562  -22.8746  -49.8644 C.3       15 UNK        -0.1800 
     87 C           0.8095  -23.6990  -52.0913 C.2       15 UNK         0.5000 
     88 O           1.7542  -24.0187  -52.8133 O.2       15 UNK        -0.5000 
     89 N          -0.2987  -23.0853  -52.5355 N.am      16 UNK        -0.5000 
     90 CA         -0.6237  -22.7420  -53.9294 C.3       16 UNK         0.1400 
     91 CB         -0.7828  -24.0138  -54.7876 C.3       16 UNK        -0.1800 
     92 C           0.3157  -21.6977  -54.5694 C.2       16 UNK         0.5000 
     93 O           0.3850  -21.5994  -55.7951 O.2       16 UNK        -0.5000 
     94 N           0.9997  -20.9133  -53.7280 N.am      17 UNK        -0.5000 
     95 CA          1.9483  -19.8748  -54.1314 C.3       17 UNK         0.1400 
     96 CB          2.9891  -19.7128  -53.0123 C.3       17 UNK        -0.1800 
     97 C           1.2839  -18.5227  -54.4673 C.2       17 UNK         0.5000 
     98 O           1.9795  -17.6227  -54.9412 O.2       17 UNK        -0.5000 
     99 N          -0.0257  -18.3875  -54.2172 N.am      18 UNK        -0.5000 
    100 CA        -0.7852  -17.1586  -54.4262 C.3       18 UNK         0.1400 
    101 CB        -0.6965  -16.2632  -53.1727 C.3       18 UNK        -0.1800 
    102 C         -2.2242  -17.4834  -54.8581 C.2       18 UNK         0.5000 
    103 O         -2.4529  -17.7431  -56.0401 O.2       18 UNK        -0.5000 
    104 N         -3.1671  -17.4083  -53.9100 N.am      19 UNK        -0.5000 
    105 CA        -4.6122  -17.4512  -54.1347 C.3       19 UNK         0.1400 
    106 CB        -5.3180  -17.1263  -52.8071 C.3       19 UNK        -0.1800 
    107 C         -5.1401  -18.7828  -54.7004 C.2       19 UNK         0.5000 
    108 O         -4.5492  -19.8417  -54.4791 O.2       19 UNK        -0.5000 
    109 N         -6.3092  -18.7046  -55.3502 N.am      20 UNK        -0.5000 
    110 CA        -7.0781  -19.8520  -55.8430 C.3       20 UNK         0.1400 
    111 CB        -8.1709  -19.3464  -56.7971 C.3       20 UNK        -0.1800 
    112 C         -7.6980  -20.7049  -54.7160 C.2       20 UNK         0.5000 
    113 O         -8.0661  -21.8542  -54.9611 O.2       20 UNK        -0.5000 
    114 N         -7.7715  -20.1472  -53.4969 N.am      21 UNK        -0.5000 
    115 CA        -8.2467  -20.7923  -52.2675 C.3       21 UNK         0.1400 
    116 CB        -8.1866  -19.7685  -51.1229 C.3       21 UNK        -0.1800 
    117 C         -7.4716  -22.0695  -51.8809 C.2       21 UNK         0.5000 
    118 O         -8.0265  -22.9319  -51.1991 O.2       21 UNK        -0.5000 
    119 N         -6.2209  -22.1761  -52.3454 N.am      22 UNK        -0.5000 
    120 CA        -5.3889  -23.3841  -52.2628 C.3       22 UNK         0.1400 
    121 C         -5.8246  -24.5335  -53.2227 C.2       22 UNK         0.5000 
    122 N         -6.7304  -24.3238  -54.1714 N.am      22 UNK        -0.7600 
    123 O         -5.3314  -25.6504  -53.0979 O.2       22 UNK        -0.5000 
    124 C124       -3.8964  -23.0354  -52.4733 C.3       23 UNK        -0.0398 
    125 S125       -3.1882  -22.1114  -51.0700 S.3       23 UNK        -0.2404 
    126 C126       -3.0402  -20.4265  -51.7223 C.3       23 UNK        -0.0205 
    127 H127       -3.7259  -14.6975  -49.4343 H         1 UNK         0.0600 
    128 H128       -3.0826  -15.9604  -50.4979 H         1 UNK         0.0600 
    129 H129       -3.7772  -14.4957  -51.1871 H         1 UNK         0.0600 
    130 H130       -0.9547  -15.8721  -49.5605 H         1 UNK         0.3000 
    131 H131        0.8745  -14.1738  -50.8097 H         1 UNK         0.0600 
    132 H132        2.5812  -15.2016  -49.2552 H         1 UNK         0.0800 
    133 H133        1.2940  -15.9576  -48.3593 H         1 UNK         0.0800 
    134 H134        1.3719  -18.2673  -48.5117 H         1 UNK         0.0800 
    135 H135        1.5329  -19.2924  -49.9051 H         1 UNK         0.0800 
    136 H136       -0.3965  -19.8085  -51.3610 H         1 UNK         0.1150 
    137 H137       -4.2976  -19.0736  -49.7487 H         1 UNK         0.1150 
    138 H138       -0.8464  -17.3669  -47.8664 H         1 UNK         0.1150 
    139 H139       -3.4125  -16.4208  -47.6732 H         1 UNK         0.0800 
    140 H140       -4.6165  -17.6733  -47.8689 H         1 UNK         0.0800 
    141 H141       -4.7788  -19.8051  -46.5203 H         1 UNK         0.0800 
    142 H142       -4.0866  -19.9952  -44.9403 H         1 UNK         0.0800 
    143 H143       -2.9615  -20.9065  -47.6264 H         1 UNK         0.0600 
    144 H144       -1.2308  -20.1176  -45.5238 H         1 UNK         0.3000 
    145 H145        1.2840  -22.6184  -46.0619 H         1 UNK         0.0600 
    146 H146        1.8719  -20.9222  -47.7797 H         1 UNK         0.0600 
    147 H147        2.8008  -20.6992  -46.3063 H         1 UNK         0.0600 
    148 H148        1.4531  -19.6322  -46.6728 H         1 UNK         0.0600 
    149 H149        1.0701  -20.3260  -44.3206 H         1 UNK         0.3000 
    150 H150       -0.4970  -22.0832  -41.6297 H         1 UNK         0.0600 
    151 H151        1.9058  -22.7177  -41.4179 H         1 UNK         0.0600 
    152 H152        1.5280  -21.3285  -40.4092 H         1 UNK         0.0600 
    153 H153        2.3932  -21.1059  -41.9278 H         1 UNK         0.0600 
    154 H154        0.5336  -19.4386  -41.7942 H         1 UNK         0.3000 
    155 H155       -2.2922  -17.8911  -43.3367 H         1 UNK         0.0600 
    156 H156       -1.9897  -16.4553  -41.3211 H         1 UNK         0.0600 
    157 H157       -2.8224  -17.9550  -40.9361 H         1 UNK         0.0600 
    158 H158       -1.1279  -17.7650  -40.5143 H         1 UNK         0.0600 
    159 H159        0.1184  -16.7184  -42.5475 H         1 UNK         0.3000 
    160 H160        2.1376  -17.5372  -45.4083 H         1 UNK         0.0600 
    161 H161        0.9752  -14.8931  -44.4090 H         1 UNK         0.0600 
    162 H162        0.7293  -15.5631  -46.0139 H         1 UNK         0.0600 
    163 H163        2.3481  -15.1133  -45.4970 H         1 UNK         0.0600 
    164 H164        2.4601  -16.0924  -42.8883 H         1 UNK         0.3000 
    165 H165        4.0385  -18.7778  -41.1950 H         1 UNK         0.0600 
    166 H166        5.9090  -17.1599  -40.9870 H         1 UNK         0.0600 
    167 H167        5.9031  -17.8740  -42.5916 H         1 UNK         0.0600 
    168 H168        5.3012  -16.2365  -42.3618 H         1 UNK         0.0600 
    169 H169        3.6234  -16.0103  -40.5549 H         1 UNK         0.3000 
    170 H170        0.3362  -16.3454  -39.2348 H         1 UNK         0.0600 
    171 H171        1.8307  -17.1704  -37.4075 H         1 UNK         0.0600 
    172 H172        3.0166  -15.9339  -37.8089 H         1 UNK         0.0600 
    173 H173        1.4271  -15.4746  -37.1970 H         1 UNK         0.0600 
    174 H174        2.0153  -14.1048  -39.2127 H         1 UNK         0.3000 
    175 H175        1.2526  -12.2901  -40.4947 H         1 UNK         0.0600 
    176 H176        2.9267  -13.3214  -42.8600 H         1 UNK         0.0600 
    177 H177        2.9911  -11.6926  -42.1879 H         1 UNK         0.0600 
    178 H178        3.5295  -13.0590  -41.2277 H         1 UNK         0.0600 
    179 H179        0.7878  -12.2015  -43.3047 H         1 UNK         0.3000 
    180 H180       -2.5325  -12.4776  -43.6118 H         1 UNK         0.0600 
    181 H181       -1.6540   -9.6400  -42.8530 H         1 UNK         0.0600 
    182 H182       -3.0444  -10.4998  -42.2026 H         1 UNK         0.0600 
    183 H183       -3.0156  -10.0470  -43.8979 H         1 UNK         0.0600 
    184 H184       -0.4679  -10.6826  -44.7327 H         1 UNK         0.3000 
    185 H185       -0.1508  -11.2221  -47.1924 H         1 UNK         0.0600 
    186 H186        2.0302  -12.8085  -45.6900 H         1 UNK         0.0600 
    187 H187        2.3365  -11.6322  -46.9597 H         1 UNK         0.0600 
    188 H188        1.6610  -11.1110  -45.4388 H         1 UNK         0.0600 
    189 H189       -0.4121  -13.9864  -47.4537 H         1 UNK         0.3000 
    190 H190       -2.7361  -22.0101  -44.2321 H         1 UNK         0.3000 
    191 H191       -4.8017  -23.9484  -44.3285 H         1 UNK         0.0600 
    192 H192       -2.3881  -23.7279  -42.4516 H         1 UNK         0.0600 
    193 H193       -3.8277  -24.6950  -42.1582 H         1 UNK         0.0600 
    194 H194       -3.9490  -22.9429  -42.2255 H         1 UNK         0.0600 
    195 H195       -1.2713  -24.2659  -44.8509 H         1 UNK         0.3000 
    196 H196       -1.2693  -27.1026  -45.2766 H         1 UNK         0.0600 
    197 H197        0.7343  -24.9466  -46.1308 H         1 UNK         0.0600 
    198 H198        1.0498  -26.6759  -46.0769 H         1 UNK         0.0600 
    199 H199        0.7428  -25.7994  -44.5865 H         1 UNK         0.0600 
    200 H200       -2.3378  -24.5444  -47.2730 H         1 UNK         0.3000 
    201 H201       -3.0269  -24.2754  -49.3236 H         1 UNK         0.0600 
    202 H202       -4.3802  -26.3225  -48.9707 H         1 UNK         0.0600 
    203 H203       -3.0755  -27.3227  -49.6087 H         1 UNK         0.0600 
    204 H204       -3.8923  -26.1674  -50.6510 H         1 UNK         0.0600 
    205 H205       -0.5858  -23.5778  -49.1166 H         1 UNK         0.3000 
    206 H206        1.4584  -24.9225  -50.4658 H         1 UNK         0.0600 
    207 H207        1.8438  -23.1350  -48.8226 H         1 UNK         0.0600 
    208 H208        2.6248  -22.6933  -50.3324 H         1 UNK         0.0600 
    209 H209        1.0987  -21.9372  -49.8832 H         1 UNK         0.0600 
    210 H210       -1.0098  -22.8643  -51.8501 H         1 UNK         0.3000 
    211 H211       -1.5941  -22.2527  -53.9035 H         1 UNK         0.0600 
    212 H212        0.1699  -24.5209  -54.9415 H         1 UNK         0.0600 
    213 H213       -1.1880  -23.7758  -55.7717 H         1 UNK         0.0600 
    214 H214       -1.4672  -24.7217  -54.3197 H         1 UNK         0.0600 
    215 H215        0.9061  -21.0818  -52.7385 H         1 UNK         0.3000 
    216 H216        2.4742  -20.2043  -55.0300 H         1 UNK         0.0600 
    217 H217        3.7365  -18.9626  -53.2734 H         1 UNK         0.0600 
    218 H218        3.5193  -20.6477  -52.8291 H         1 UNK         0.0600 
    219 H219        2.5264  -19.4020  -52.0770 H         1 UNK         0.0600 
    220 H220       -0.5434  -19.1864  -53.8849 H         1 UNK         0.3000 
    221 H221       -0.3502  -16.6017  -55.2591 H         1 UNK         0.0600 
    222 H222       -0.9972  -16.7925  -52.2682 H         1 UNK         0.0600 
    223 H223        0.3234  -15.9100  -53.0225 H         1 UNK         0.0600 
    224 H224       -1.3253  -15.3774  -53.2710 H         1 UNK         0.0600 
    225 H225       -2.8727  -17.2176  -52.9646 H         1 UNK         0.3000 
    226 H226       -4.8510  -16.6645  -54.8535 H         1 UNK         0.0600 
    227 H227       -5.0359  -16.1386  -52.4447 H         1 UNK         0.0600 
    228 H228       -6.4025  -17.1223  -52.9219 H         1 UNK         0.0600 
    229 H229       -5.0733  -17.8504  -52.0296 H         1 UNK         0.0600 
    230 H230       -6.7324  -17.7974  -55.4860 H         1 UNK         0.3000 
    231 H231       -6.4024  -20.4990  -56.4065 H         1 UNK         0.0600 
    232 H232       -8.7444  -20.1772  -57.2106 H         1 UNK         0.0600 
    233 H233       -7.7401  -18.8020  -57.6377 H         1 UNK         0.0600 
    234 H234       -8.8730  -18.6832  -56.2903 H         1 UNK         0.0600 
    235 H235       -7.4564  -19.1943  -53.4032 H         1 UNK         0.3000 
    236 H236       -9.2887  -21.0772  -52.4253 H         1 UNK         0.0600 
    237 H237       -8.7987  -18.8933  -51.3418 H         1 UNK         0.0600 
    238 H238       -7.1660  -19.4289  -50.9406 H         1 UNK         0.0600 
    239 H239       -8.5598  -20.1992  -50.1928 H         1 UNK         0.0600 
    240 H240       -5.8518  -21.4209  -52.9051 H         1 UNK         0.3000 
    241 H241       -5.4969  -23.7918  -51.2556 H         1 UNK         0.0600 
    242 H242       -6.9940  -25.0891  -54.7713 H         1 UNK         0.3800 
    243 H243       -7.1637  -23.4157  -54.3094 H         1 UNK         0.3800 
    244 H244       -3.2969  -23.9415  -52.5820 H         1 UNK         0.0800 
    245 H245       -3.7741  -22.4733  -53.3999 H         1 UNK         0.0800 
    246 H246       -2.4520  -20.4169  -52.6397 H         1 UNK         0.0800 
    247 H247       -4.0341  -20.0606  -51.9765 H         1 UNK         0.0800 
@<TRIPOS>BOND
     1    1    2 1    
     2    1  127 1    
     3    1  128 1    
     4    1  129 1    
     5    2    3 2    
     6    2    4 am   BACKBONE|DICT|INTERRES
     7    4    5 1    
     8    4  130 1    
     9    5    6 1    
    10    5   65 1    
    11    5  131 1    
    12    6    7 1    
    13    6  132 1    
    14    6  133 1    
    15    7    8 1    
    16    8    9 1    
    17    8  134 1    
    18    8  135 1    
    19    9   10 ar   
    20    9   14 ar   
    21   10   11 ar   
    22   10  136 1    
    23   11   12 ar   
    24   11  126 1    
    25   12   13 ar   
    26   12  137 1    
    27   13   14 ar   
    28   13   15 1    
    29   14  138 1    
    30   15   16 1    
    31   15  139 1    
    32   15  140 1    
    33   16   17 1    
    34   17   18 1    
    35   17  141 1    
    36   17  142 1    
    37   18   19 1    
    38   18   67 1    
    39   18  143 1    
    40   19   20 am   BACKBONE|DICT|INTERRES
    41   19  144 1    
    42   20   21 2    
    43   20   22 1    
    44   22   23 1    
    45   22   24 1    
    46   22  145 1    
    47   23  146 1    
    48   23  147 1    
    49   23  148 1    
    50   24   25 am   BACKBONE|DICT|INTERRES
    51   24  149 1    
    52   25   26 2    
    53   25   27 1    
    54   27   28 1    
    55   27   29 1    
    56   27  150 1    
    57   28  151 1    
    58   28  152 1    
    59   28  153 1    
    60   29   30 am   BACKBONE|DICT|INTERRES
    61   29  154 1    
    62   30   31 2    
    63   30   32 1    
    64   32   33 1    
    65   32   34 1    
    66   32  155 1    
    67   33  156 1    
    68   33  157 1    
    69   33  158 1    
    70   34   35 am   BACKBONE|DICT|INTERRES
    71   34  159 1    
    72   35   36 2    
    73   35   37 1    
    74   37   38 1    
    75   37   39 1    
    76   37  160 1    
    77   38  161 1    
    78   38  162 1    
    79   38  163 1    
    80   39   40 am   BACKBONE|DICT|INTERRES
    81   39  164 1    
    82   40   41 2    
    83   40   42 1    
    84   42   43 1    
    85   42   44 1    
    86   42  165 1    
    87   43  166 1    
    88   43  167 1    
    89   43  168 1    
    90   44   45 am   BACKBONE|DICT|INTERRES
    91   44  169 1    
    92   45   46 2    
    93   45   47 1    
    94   47   48 1    
    95   47   49 1    
    96   47  170 1    
    97   48  171 1    
    98   48  172 1    
    99   48  173 1    
   100   49   50 am   BACKBONE|DICT|INTERRES
   101   49  174 1    
   102   50   51 2    
   103   50   52 1    
   104   52   53 1    
   105   52   54 1    
   106   52  175 1    
   107   53  176 1    
   108   53  177 1    
   109   53  178 1    
   110   54   55 am   BACKBONE|DICT|INTERRES
   111   54  179 1    
   112   55   56 2    
   113   55   57 1    
   114   57   58 1    
   115   57   59 1    
   116   57  180 1    
   117   58  181 1    
   118   58  182 1    
   119   58  183 1    
   120   59   60 am   BACKBONE|DICT|INTERRES
   121   59  184 1    
   122   60   61 2    
   123   60   62 1    
   124   62   63 1    
   125   62   64 1    
   126   62  185 1    
   127   63  186 1    
   128   63  187 1    
   129   63  188 1    
   130   64   65 am   BACKBONE|DICT|INTERRES
   131   64  189 1    
   132   65   66 2    
   133   67   68 2    
   134   67   69 am   BACKBONE|DICT|INTERRES
   135   69   70 1    
   136   69  190 1    
   137   70   71 1    
   138   70   72 1    
   139   70  191 1    
   140   71  192 1    
   141   71  193 1    
   142   71  194 1    
   143   72   73 2    
   144   72   74 am   BACKBONE|DICT|INTERRES
   145   74   75 1    
   146   74  195 1    
   147   75   76 1    
   148   75   77 1    
   149   75  196 1    
   150   76  197 1    
   151   76  198 1    
   152   76  199 1    
   153   77   78 2    
   154   77   79 am   BACKBONE|DICT|INTERRES
   155   79   80 1    
   156   79  200 1    
   157   80   81 1    
   158   80   82 1    
   159   80  201 1    
   160   81  202 1    
   161   81  203 1    
   162   81  204 1    
   163   82   83 2    
   164   82   84 am   BACKBONE|DICT|INTERRES
   165   84   85 1    
   166   84  205 1    
   167   85   86 1    
   168   85   87 1    
   169   85  206 1    
   170   86  207 1    
   171   86  208 1    
   172   86  209 1    
   173   87   88 2    
   174   87   89 am   BACKBONE|DICT|INTERRES
   175   89   90 1    
   176   89  210 1    
   177   90   91 1    
   178   90   92 1    
   179   90  211 1    
   180   91  212 1    
   181   91  213 1    
   182   91  214 1    
   183   92   93 2    
   184   92   94 am   BACKBONE|DICT|INTERRES
   185   94   95 1    
   186   94  215 1    
   187   95   96 1    
   188   95   97 1    
   189   95  216 1    
   190   96  217 1    
   191   96  218 1    
   192   96  219 1    
   193   97   98 2    
   194   97   99 am   BACKBONE|DICT|INTERRES
   195   99  100 1    
   196   99  220 1    
   197  100  101 1    
   198  100  102 1    
   199  100  221 1    
   200  101  222 1    
   201  101  223 1    
   202  101  224 1    
   203  102  103 2    
   204  102  104 am   BACKBONE|DICT|INTERRES
   205  104  105 1    
   206  104  225 1    
   207  105  106 1    
   208  105  107 1    
   209  105  226 1    
   210  106  227 1    
   211  106  228 1    
   212  106  229 1    
   213  107  108 2    
   214  107  109 am   BACKBONE|DICT|INTERRES
   215  109  110 1    
   216  109  230 1    
   217  110  111 1    
   218  110  112 1    
   219  110  231 1    
   220  111  232 1    
   221  111  233 1    
   222  111  234 1    
   223  112  113 2    
   224  112  114 am   BACKBONE|DICT|INTERRES
   225  114  115 1    
   226  114  235 1    
   227  115  116 1    
   228  115  117 1    
   229  115  236 1    
   230  116  237 1    
   231  116  238 1    
   232  116  239 1    
   233  117  118 2    
   234  117  119 am   BACKBONE|DICT|INTERRES
   235  119  120 1    
   236  119  240 1    
   237  120  121 1    
   238  120  124 1    
   239  120  241 1    
   240  121  122 am   BACKBONE|DICT|INTERRES
   241  121  123 2    
   242  122  242 1    
   243  122  243 1    
   244  124  125 1    
   245  124  244 1    
   246  124  245 1    
   247  125  126 1    
   248  126  246 1    
   249  126  247 1    
@<TRIPOS>SUBSTRUCTURE
     1 UNK         1 GROUP             0       ****    0 ROOT    
