@<TRIPOS>MOLECULE
3R540
247   249    1
SMALL
USER_CHARGES


@<TRIPOS>ATOM
      1 CA          6.0336   -9.2255  -50.7648 C.3       0 UNK        -0.1800 
      2 C           5.2519   -9.9704  -49.6915 C.2       0 UNK         0.5000 
      3 O           4.7240   -9.3433  -48.7725 O.2       0 UNK        -0.5000 
      4 N           5.1841  -11.3030  -49.7996 N.am      1 UNK        -0.5000 
      5 CA          4.4185  -12.1782  -48.9067 C.3       1 UNK         0.1400 
      6 C6          4.8862  -13.6492  -49.0360 C.3       23 UNK        -0.0398 
      7 S7          4.5521  -14.6173  -47.5268 S.3       23 UNK        -0.2404 
      8 C8          5.0868  -16.2823  -48.0529 C.3       23 UNK        -0.0205 
      9 C9          4.0758  -17.1035  -48.8580 C.ar      23 UNK        -0.0193 
     10 C10         2.8894  -16.5702  -49.3842 C.ar      23 UNK        -0.1150 
     11 C11         1.9911  -17.3800  -50.0849 C.ar      23 UNK        -0.0193 
     12 C12         2.2960  -18.7260  -50.2912 C.ar      23 UNK        -0.1150 
     13 C13         3.4716  -19.2754  -49.7759 C.ar      23 UNK        -0.0193 
     14 C14         4.3534  -18.4595  -49.0628 C.ar      23 UNK        -0.1150 
     15 C15         3.7867  -20.7495  -49.9879 C.3       23 UNK        -0.0205 
     16 S16         3.2035  -21.7813  -48.6041 S.3       23 UNK        -0.2404 
     17 C17         1.3985  -21.6014  -48.7747 C.3       23 UNK        -0.0398 
     18 CA          0.6001  -22.6084  -47.9173 C.3       11 UNK         0.1400 
     19 N           0.7640  -22.3883  -46.4757 N.am      11 UNK        -0.5000 
     20 C           0.2928  -23.2102  -45.5267 C.2       10 UNK         0.5000 
     21 O          -0.2777  -24.2739  -45.7701 O.2       10 UNK        -0.5000 
     22 CA          0.4280  -22.7468  -44.0640 C.3       10 UNK         0.1400 
     23 CB          1.8425  -23.0078  -43.5256 C.3       10 UNK        -0.1800 
     24 N           0.0761  -21.3370  -43.8866 N.am      10 UNK        -0.5000 
     25 C          -1.1509  -20.8343  -44.0897 C.2       9 UNK         0.5000 
     26 O          -2.1263  -21.5202  -44.3925 O.2       9 UNK        -0.5000 
     27 CA         -1.3088  -19.3055  -43.9942 C.3       9 UNK         0.1400 
     28 CB         -1.4563  -18.8536  -42.5343 C.3       9 UNK        -0.1800 
     29 N          -0.2008  -18.5885  -44.6214 N.am      9 UNK        -0.5000 
     30 C           0.1174  -18.6655  -45.9208 C.2       8 UNK         0.5000 
     31 O          -0.5268  -19.3049  -46.7495 O.2       8 UNK        -0.5000 
     32 CA          1.3986  -17.9448  -46.3601 C.3       8 UNK         0.1400 
     33 CB          1.1220  -16.4540  -46.5621 C.3       8 UNK        -0.1800 
     34 N           2.4875  -18.1156  -45.4014 N.am      8 UNK        -0.5000 
     35 C           3.0754  -19.2890  -45.1334 C.2       7 UNK         0.5000 
     36 O           2.7608  -20.3504  -45.6678 O.2       7 UNK        -0.5000 
     37 CA          4.1547  -19.2788  -44.0380 C.3       7 UNK         0.1400 
     38 CB          5.4819  -18.7320  -44.5854 C.3       7 UNK        -0.1800 
     39 N           3.7467  -18.4940  -42.8726 N.am      7 UNK        -0.5000 
     40 C           2.7221  -18.8102  -42.0674 C.2       6 UNK         0.5000 
     41 O           2.0488  -19.8340  -42.1852 O.2       6 UNK        -0.5000 
     42 CA          2.3623  -17.7826  -40.9778 C.3       6 UNK         0.1400 
     43 CB          3.2043  -18.0159  -39.7147 C.3       6 UNK        -0.1800 
     44 N           2.5196  -16.3925  -41.4196 N.am      6 UNK        -0.5000 
     45 C           1.8108  -15.8293  -42.4070 C.2       5 UNK         0.5000 
     46 O           0.9717  -16.4377  -43.0737 O.2       5 UNK        -0.5000 
     47 CA          2.1363  -14.3629  -42.7401 C.3       5 UNK         0.1400 
     48 CB          3.1815  -14.2915  -43.8643 C.3       5 UNK        -0.1800 
     49 N           0.9384  -13.6319  -43.1515 N.am      5 UNK        -0.5000 
     50 C          -0.0314  -13.2383  -42.3122 C.2       4 UNK         0.5000 
     51 O           0.0267  -13.3902  -41.0908 O.2       4 UNK        -0.5000 
     52 CA         -1.2705  -12.5463  -42.9200 C.3       4 UNK         0.1400 
     53 CB         -1.1406  -11.0193  -42.8083 C.3       4 UNK        -0.1800 
     54 N          -1.5062  -12.8961  -44.3202 N.am      4 UNK        -0.5000 
     55 C          -1.9048  -14.0986  -44.7535 C.2       3 UNK         0.5000 
     56 O          -2.2398  -15.0133  -44.0008 O.2       3 UNK        -0.5000 
     57 CA         -1.9391  -14.3311  -46.2802 C.3       3 UNK         0.1400 
     58 CB         -3.3921  -14.3854  -46.7781 C.3       3 UNK        -0.1800 
     59 N          -1.1985  -13.3704  -47.1134 N.am      3 UNK        -0.5000 
     60 C           0.0951  -13.0335  -47.0133 C.2       2 UNK         0.5000 
     61 O           0.8346  -13.3849  -46.0914 O.2       2 UNK        -0.5000 
     62 CA          0.6455  -12.1212  -48.1163 C.3       2 UNK         0.1400 
     63 CB          0.2089  -10.6621  -47.8979 C.3       2 UNK        -0.1800 
     64 N           2.1015  -12.2040  -48.1046 N.am      2 UNK        -0.5000 
     65 C           2.9008  -12.0300  -49.1603 C.2       1 UNK         0.5000 
     66 O           2.4876  -11.7760  -50.2952 O.2       1 UNK        -0.5000 
     67 C          -0.8860  -22.5999  -48.3325 C.2       11 UNK         0.5000 
     68 O          -1.3067  -23.4762  -49.0869 O.2       11 UNK        -0.5000 
     69 N          -1.6643  -21.6390  -47.8158 N.am      12 UNK        -0.5000 
     70 CA         -3.1027  -21.5291  -48.0534 C.3       12 UNK         0.1400 
     71 CB         -3.6328  -20.2021  -47.4933 C.3       12 UNK        -0.1800 
     72 C          -3.8938  -22.7223  -47.4922 C.2       12 UNK         0.5000 
     73 O          -4.8052  -23.2034  -48.1647 O.2       12 UNK        -0.5000 
     74 N          -3.5062  -23.2056  -46.3034 N.am      13 UNK        -0.5000 
     75 CA         -4.0511  -24.4099  -45.6763 C.3       13 UNK         0.1400 
     76 CB         -3.5523  -24.5156  -44.2278 C.3       13 UNK        -0.1800 
     77 C          -3.7214  -25.6897  -46.4657 C.2       13 UNK         0.5000 
     78 O          -4.5971  -26.5402  -46.6231 O.2       13 UNK        -0.5000 
     79 N          -2.4930  -25.7883  -46.9961 N.am      14 UNK        -0.5000 
     80 CA         -2.0629  -26.8662  -47.8943 C.3       14 UNK         0.1400 
     81 CB         -0.5455  -26.7813  -48.1167 C.3       14 UNK        -0.1800 
     82 C          -2.8215  -26.8593  -49.2379 C.2       14 UNK         0.5000 
     83 O          -3.1115  -27.9249  -49.7815 O.2       14 UNK        -0.5000 
     84 N          -3.1836  -25.6598  -49.7115 N.am      15 UNK        -0.5000 
     85 CA         -4.0580  -25.4109  -50.8600 C.3       15 UNK         0.1400 
     86 CB         -3.7150  -24.0278  -51.4374 C.3       15 UNK        -0.1800 
     87 C          -5.5647  -25.5196  -50.5227 C.2       15 UNK         0.5000 
     88 O          -6.3970  -25.1413  -51.3524 O.2       15 UNK        -0.5000 
     89 N          -5.8933  -25.9935  -49.3087 N.am      16 UNK        -0.5000 
     90 CA         -7.2287  -26.2508  -48.7525 C.3       16 UNK         0.1400 
     91 CB         -7.9087  -27.3985  -49.5274 C.3       16 UNK        -0.1800 
     92 C          -8.1329  -25.0039  -48.6554 C.2       16 UNK         0.5000 
     93 O          -9.3531  -25.1454  -48.5631 O.2       16 UNK        -0.5000 
     94 N          -7.5272  -23.8084  -48.7266 N.am      17 UNK        -0.5000 
     95 CA         -8.1491  -22.4897  -48.8920 C.3       17 UNK         0.1400 
     96 CB         -8.9440  -22.0994  -47.6300 C.3       17 UNK        -0.1800 
     97 C          -8.9849  -22.3449  -50.1875 C.2       17 UNK         0.5000 
     98 O          -9.7401  -21.3802  -50.3140 O.2       17 UNK        -0.5000 
     99 N          -8.8379  -23.2910  -51.1271 N.am      18 UNK        -0.5000 
    100 CA        -9.5654  -23.3384  -52.3914 C.3       18 UNK         0.1400 
    101 CB        -9.7186  -24.8020  -52.8397 C.3       18 UNK        -0.1800 
    102 C         -8.8337  -22.4921  -53.4392 C.2       18 UNK         0.5000 
    103 O         -9.3884  -21.5068  -53.9274 O.2       18 UNK        -0.5000 
    104 N         -7.5797  -22.8677  -53.7253 N.am      19 UNK        -0.5000 
    105 CA        -6.6657  -22.0772  -54.5514 C.3       19 UNK         0.1400 
    106 CB        -5.6431  -23.0114  -55.2166 C.3       19 UNK        -0.1800 
    107 C         -5.9591  -20.9850  -53.7266 C.2       19 UNK         0.5000 
    108 O         -5.5662  -19.9640  -54.2892 O.2       19 UNK        -0.5000 
    109 N         -5.8050  -21.2321  -52.4140 N.am      20 UNK        -0.5000 
    110 CA        -5.2164  -20.3583  -51.3874 C.3       20 UNK         0.1400 
    111 CB        -6.0867  -19.1029  -51.1829 C.3       20 UNK        -0.1800 
    112 C         -3.7259  -20.0067  -51.6026 C.2       20 UNK         0.5000 
    113 O         -3.2125  -19.1105  -50.9317 O.2       20 UNK        -0.5000 
    114 N         -3.0553  -20.7315  -52.5097 N.am      21 UNK        -0.5000 
    115 CA        -1.6567  -20.6267  -52.9424 C.3       21 UNK         0.1400 
    116 CB        -0.6867  -20.8978  -51.7796 C.3       21 UNK        -0.1800 
    117 C         -1.3117  -19.3191  -53.6844 C.2       21 UNK         0.5000 
    118 O         -0.7642  -19.3832  -54.7858 O.2       21 UNK        -0.5000 
    119 N         -1.6497  -18.1724  -53.0898 N.am      22 UNK        -0.5000 
    120 CA        -1.5288  -16.8348  -53.6804 C.3       22 UNK         0.1400 
    121 C         -2.9237  -16.3492  -54.1495 C.2       22 UNK         0.5000 
    122 N         -3.0495  -15.8965  -55.3894 N.am      22 UNK        -0.7600 
    123 O         -3.8861  -16.3419  -53.3854 O.2       22 UNK        -0.5000 
    124 C124       -0.9075  -15.8224  -52.6855 C.3       23 UNK        -0.0398 
    125 S125        0.8331  -16.2113  -52.2988 S.3       23 UNK        -0.2404 
    126 C126        0.6754  -16.8149  -50.5937 C.3       23 UNK        -0.0205 
    127 H127        6.4547   -9.9054  -51.5059 H         1 UNK         0.0600 
    128 H128        6.8526   -8.6661  -50.3128 H         1 UNK         0.0600 
    129 H129        5.3822   -8.5208  -51.2818 H         1 UNK         0.0600 
    130 H130        5.6092  -11.7532  -50.5975 H         1 UNK         0.3000 
    131 H131        4.6241  -11.8423  -47.8874 H         1 UNK         0.0600 
    132 H132        5.9657  -13.6823  -49.1906 H         1 UNK         0.0800 
    133 H133        4.4457  -14.1355  -49.9082 H         1 UNK         0.0800 
    134 H134        6.0129  -16.1992  -48.6231 H         1 UNK         0.0800 
    135 H135        5.3353  -16.8402  -47.1496 H         1 UNK         0.0800 
    136 H136        2.6367  -15.5316  -49.2349 H         1 UNK         0.1150 
    137 H137        1.6079  -19.3496  -50.8415 H         1 UNK         0.1150 
    138 H138        5.2600  -18.8871  -48.6577 H         1 UNK         0.1150 
    139 H139        3.3455  -21.1035  -50.9209 H         1 UNK         0.0800 
    140 H140        4.8644  -20.8820  -50.0942 H         1 UNK         0.0800 
    141 H141        1.1627  -21.7361  -49.8307 H         1 UNK         0.0800 
    142 H142        1.1192  -20.5789  -48.5179 H         1 UNK         0.0800 
    143 H143        0.9817  -23.6082  -48.1355 H         1 UNK         0.0600 
    144 H144        1.2800  -21.5581  -46.1977 H         1 UNK         0.3000 
    145 H145       -0.2696  -23.3375  -43.4667 H         1 UNK         0.0600 
    146 H146        2.1037  -24.0629  -43.6140 H         1 UNK         0.0600 
    147 H147        2.5961  -22.4376  -44.0678 H         1 UNK         0.0600 
    148 H148        1.9175  -22.7408  -42.4713 H         1 UNK         0.0600 
    149 H149        0.8216  -20.7119  -43.5992 H         1 UNK         0.3000 
    150 H150       -2.2213  -19.0306  -44.5268 H         1 UNK         0.0600 
    151 H151       -1.6163  -17.7767  -42.4708 H         1 UNK         0.0600 
    152 H152       -0.5718  -19.0953  -41.9455 H         1 UNK         0.0600 
    153 H153       -2.3099  -19.3395  -42.0604 H         1 UNK         0.0600 
    154 H154        0.3482  -17.9779  -44.0214 H         1 UNK         0.3000 
    155 H155        1.7204  -18.3730  -47.3108 H         1 UNK         0.0600 
    156 H156        0.4245  -16.2994  -47.3850 H         1 UNK         0.0600 
    157 H157        2.0311  -15.9069  -46.8009 H         1 UNK         0.0600 
    158 H158        0.6920  -16.0012  -45.6692 H         1 UNK         0.0600 
    159 H159        2.7619  -17.2999  -44.8766 H         1 UNK         0.3000 
    160 H160        4.3144  -20.3105  -43.7171 H         1 UNK         0.0600 
    161 H161        5.7920  -19.2788  -45.4771 H         1 UNK         0.0600 
    162 H162        6.2805  -18.8307  -43.8500 H         1 UNK         0.0600 
    163 H163        5.4041  -17.6784  -44.8553 H         1 UNK         0.0600 
    164 H164        4.2475  -17.6355  -42.6990 H         1 UNK         0.3000 
    165 H165        1.3123  -17.9325  -40.7186 H         1 UNK         0.0600 
    166 H166        2.8961  -17.3518  -38.9069 H         1 UNK         0.0600 
    167 H167        3.0902  -19.0389  -39.3535 H         1 UNK         0.0600 
    168 H168        4.2662  -17.8498  -39.9004 H         1 UNK         0.0600 
    169 H169        3.1985  -15.8354  -40.9209 H         1 UNK         0.3000 
    170 H170        2.5498  -13.8797  -41.8523 H         1 UNK         0.0600 
    171 H171        3.4294  -13.2583  -44.1079 H         1 UNK         0.0600 
    172 H172        4.1079  -14.7883  -43.5740 H         1 UNK         0.0600 
    173 H173        2.8255  -14.7696  -44.7766 H         1 UNK         0.0600 
    174 H174        0.8062  -13.5138  -44.1520 H         1 UNK         0.3000 
    175 H175       -2.1403  -12.8593  -42.3387 H         1 UNK         0.0600 
    176 H176       -0.2942  -10.6448  -43.3856 H         1 UNK         0.0600 
    177 H177       -2.0404  -10.5189  -43.1667 H         1 UNK         0.0600 
    178 H178       -0.9917  -10.7144  -41.7716 H         1 UNK         0.0600 
    179 H179       -1.2393  -12.2104  -45.0103 H         1 UNK         0.3000 
    180 H180       -1.4993  -15.3136  -46.4509 H         1 UNK         0.0600 
    181 H181       -3.4405  -14.6787  -47.8270 H         1 UNK         0.0600 
    182 H182       -3.8872  -13.4191  -46.6743 H         1 UNK         0.0600 
    183 H183       -3.9749  -15.1151  -46.2141 H         1 UNK         0.0600 
    184 H184       -1.7223  -12.9887  -47.8877 H         1 UNK         0.3000 
    185 H185        0.2656  -12.4814  -49.0748 H         1 UNK         0.0600 
    186 H186        0.5672  -10.2754  -46.9429 H         1 UNK         0.0600 
    187 H187        0.5935  -10.0135  -48.6853 H         1 UNK         0.0600 
    188 H188       -0.8776  -10.5687  -47.9050 H         1 UNK         0.0600 
    189 H189        2.4873  -12.5002  -47.2157 H         1 UNK         0.3000 
    190 H190       -1.2395  -20.9062  -47.2502 H         1 UNK         0.3000 
    191 H191       -3.2491  -21.5203  -49.1334 H         1 UNK         0.0600 
    192 H192       -3.4845  -20.1318  -46.4157 H         1 UNK         0.0600 
    193 H193       -4.7004  -20.0940  -47.6884 H         1 UNK         0.0600 
    194 H194       -3.1306  -19.3526  -47.9572 H         1 UNK         0.0600 
    195 H195       -2.7908  -22.7067  -45.7821 H         1 UNK         0.3000 
    196 H196       -5.1382  -24.3084  -45.6523 H         1 UNK         0.0600 
    197 H197       -3.9632  -25.3982  -43.7363 H         1 UNK         0.0600 
    198 H198       -3.8556  -23.6470  -43.6432 H         1 UNK         0.0600 
    199 H199       -2.4658  -24.5878  -44.1788 H         1 UNK         0.0600 
    200 H200       -1.8043  -25.0757  -46.7737 H         1 UNK         0.3000 
    201 H201       -2.2781  -27.8157  -47.4000 H         1 UNK         0.0600 
    202 H202       -0.0051  -26.8354  -47.1715 H         1 UNK         0.0600 
    203 H203       -0.2592  -25.8541  -48.6121 H         1 UNK         0.0600 
    204 H204       -0.1966  -27.6060  -48.7393 H         1 UNK         0.0600 
    205 H205       -2.8331  -24.8369  -49.2321 H         1 UNK         0.3000 
    206 H206       -3.8492  -26.1581  -51.6279 H         1 UNK         0.0600 
    207 H207       -4.2800  -23.8307  -52.3464 H         1 UNK         0.0600 
    208 H208       -3.9392  -23.2308  -50.7300 H         1 UNK         0.0600 
    209 H209       -2.6575  -23.9573  -51.6931 H         1 UNK         0.0600 
    210 H210       -5.1341  -26.2142  -48.6763 H         1 UNK         0.3000 
    211 H211       -7.0739  -26.5892  -47.7276 H         1 UNK         0.0600 
    212 H212       -8.1606  -27.1039  -50.5468 H         1 UNK         0.0600 
    213 H213       -8.8328  -27.7106  -49.0396 H         1 UNK         0.0600 
    214 H214       -7.2622  -28.2745  -49.5812 H         1 UNK         0.0600 
    215 H215       -6.5094  -23.7980  -48.7246 H         1 UNK         0.3000 
    216 H216       -7.3235  -21.7835  -48.9901 H         1 UNK         0.0600 
    217 H217       -9.2778  -21.0625  -47.6816 H         1 UNK         0.0600 
    218 H218       -8.3311  -22.1967  -46.7339 H         1 UNK         0.0600 
    219 H219       -9.8303  -22.7209  -47.5004 H         1 UNK         0.0600 
    220 H220       -8.1643  -24.0311  -50.9661 H         1 UNK         0.3000 
    221 H221      -10.5661  -22.9230  -52.2540 H         1 UNK         0.0600 
    222 H222       -8.7563  -25.3031  -52.9499 H         1 UNK         0.0600 
    223 H223      -10.3044  -25.3706  -52.1169 H         1 UNK         0.0600 
    224 H224      -10.2353  -24.8646  -53.7982 H         1 UNK         0.0600 
    225 H225       -7.2083  -23.7026  -53.2917 H         1 UNK         0.3000 
    226 H226       -7.2282  -21.5799  -55.3448 H         1 UNK         0.0600 
    227 H227       -6.1382  -23.7296  -55.8703 H         1 UNK         0.0600 
    228 H228       -4.9395  -22.4473  -55.8305 H         1 UNK         0.0600 
    229 H229       -5.0641  -23.5734  -54.4851 H         1 UNK         0.0600 
    230 H230       -6.1661  -22.1113  -52.0747 H         1 UNK         0.3000 
    231 H231       -5.2523  -20.9295  -50.4590 H         1 UNK         0.0600 
    232 H232       -6.0472  -18.4401  -52.0482 H         1 UNK         0.0600 
    233 H233       -7.1296  -19.3692  -51.0097 H         1 UNK         0.0600 
    234 H234       -5.7517  -18.5291  -50.3179 H         1 UNK         0.0600 
    235 H235       -3.5996  -21.4095  -53.0213 H         1 UNK         0.3000 
    236 H236       -1.5195  -21.4338  -53.6639 H         1 UNK         0.0600 
    237 H237       -0.7606  -20.1444  -50.9950 H         1 UNK         0.0600 
    238 H238       -0.8850  -21.8707  -51.3309 H         1 UNK         0.0600 
    239 H239        0.3446  -20.9077  -52.1333 H         1 UNK         0.0600 
    240 H240       -2.1694  -18.2338  -52.2180 H         1 UNK         0.3000 
    241 H241       -0.8744  -16.8779  -54.5534 H         1 UNK         0.0600 
    242 H242       -3.9502  -15.5658  -55.6997 H         1 UNK         0.3800 
    243 H243       -2.2720  -15.8864  -56.0318 H         1 UNK         0.3800 
    244 H244       -0.9234  -14.8172  -53.1106 H         1 UNK         0.0800 
    245 H245       -1.4949  -15.7705  -51.7669 H         1 UNK         0.0800 
    246 H246       -0.0987  -17.5830  -50.5476 H         1 UNK         0.0800 
    247 H247        0.3408  -15.9997  -49.9503 H         1 UNK         0.0800 
@<TRIPOS>BOND
     1    1    2 1    
     2    1  127 1    
     3    1  128 1    
     4    1  129 1    
     5    2    3 2    
     6    2    4 am   BACKBONE|DICT|INTERRES
     7    4    5 1    
     8    4  130 1    
     9    5    6 1    
    10    5   65 1    
    11    5  131 1    
    12    6    7 1    
    13    6  132 1    
    14    6  133 1    
    15    7    8 1    
    16    8    9 1    
    17    8  134 1    
    18    8  135 1    
    19    9   10 ar   
    20    9   14 ar   
    21   10   11 ar   
    22   10  136 1    
    23   11   12 ar   
    24   11  126 1    
    25   12   13 ar   
    26   12  137 1    
    27   13   14 ar   
    28   13   15 1    
    29   14  138 1    
    30   15   16 1    
    31   15  139 1    
    32   15  140 1    
    33   16   17 1    
    34   17   18 1    
    35   17  141 1    
    36   17  142 1    
    37   18   19 1    
    38   18   67 1    
    39   18  143 1    
    40   19   20 am   BACKBONE|DICT|INTERRES
    41   19  144 1    
    42   20   21 2    
    43   20   22 1    
    44   22   23 1    
    45   22   24 1    
    46   22  145 1    
    47   23  146 1    
    48   23  147 1    
    49   23  148 1    
    50   24   25 am   BACKBONE|DICT|INTERRES
    51   24  149 1    
    52   25   26 2    
    53   25   27 1    
    54   27   28 1    
    55   27   29 1    
    56   27  150 1    
    57   28  151 1    
    58   28  152 1    
    59   28  153 1    
    60   29   30 am   BACKBONE|DICT|INTERRES
    61   29  154 1    
    62   30   31 2    
    63   30   32 1    
    64   32   33 1    
    65   32   34 1    
    66   32  155 1    
    67   33  156 1    
    68   33  157 1    
    69   33  158 1    
    70   34   35 am   BACKBONE|DICT|INTERRES
    71   34  159 1    
    72   35   36 2    
    73   35   37 1    
    74   37   38 1    
    75   37   39 1    
    76   37  160 1    
    77   38  161 1    
    78   38  162 1    
    79   38  163 1    
    80   39   40 am   BACKBONE|DICT|INTERRES
    81   39  164 1    
    82   40   41 2    
    83   40   42 1    
    84   42   43 1    
    85   42   44 1    
    86   42  165 1    
    87   43  166 1    
    88   43  167 1    
    89   43  168 1    
    90   44   45 am   BACKBONE|DICT|INTERRES
    91   44  169 1    
    92   45   46 2    
    93   45   47 1    
    94   47   48 1    
    95   47   49 1    
    96   47  170 1    
    97   48  171 1    
    98   48  172 1    
    99   48  173 1    
   100   49   50 am   BACKBONE|DICT|INTERRES
   101   49  174 1    
   102   50   51 2    
   103   50   52 1    
   104   52   53 1    
   105   52   54 1    
   106   52  175 1    
   107   53  176 1    
   108   53  177 1    
   109   53  178 1    
   110   54   55 am   BACKBONE|DICT|INTERRES
   111   54  179 1    
   112   55   56 2    
   113   55   57 1    
   114   57   58 1    
   115   57   59 1    
   116   57  180 1    
   117   58  181 1    
   118   58  182 1    
   119   58  183 1    
   120   59   60 am   BACKBONE|DICT|INTERRES
   121   59  184 1    
   122   60   61 2    
   123   60   62 1    
   124   62   63 1    
   125   62   64 1    
   126   62  185 1    
   127   63  186 1    
   128   63  187 1    
   129   63  188 1    
   130   64   65 am   BACKBONE|DICT|INTERRES
   131   64  189 1    
   132   65   66 2    
   133   67   68 2    
   134   67   69 am   BACKBONE|DICT|INTERRES
   135   69   70 1    
   136   69  190 1    
   137   70   71 1    
   138   70   72 1    
   139   70  191 1    
   140   71  192 1    
   141   71  193 1    
   142   71  194 1    
   143   72   73 2    
   144   72   74 am   BACKBONE|DICT|INTERRES
   145   74   75 1    
   146   74  195 1    
   147   75   76 1    
   148   75   77 1    
   149   75  196 1    
   150   76  197 1    
   151   76  198 1    
   152   76  199 1    
   153   77   78 2    
   154   77   79 am   BACKBONE|DICT|INTERRES
   155   79   80 1    
   156   79  200 1    
   157   80   81 1    
   158   80   82 1    
   159   80  201 1    
   160   81  202 1    
   161   81  203 1    
   162   81  204 1    
   163   82   83 2    
   164   82   84 am   BACKBONE|DICT|INTERRES
   165   84   85 1    
   166   84  205 1    
   167   85   86 1    
   168   85   87 1    
   169   85  206 1    
   170   86  207 1    
   171   86  208 1    
   172   86  209 1    
   173   87   88 2    
   174   87   89 am   BACKBONE|DICT|INTERRES
   175   89   90 1    
   176   89  210 1    
   177   90   91 1    
   178   90   92 1    
   179   90  211 1    
   180   91  212 1    
   181   91  213 1    
   182   91  214 1    
   183   92   93 2    
   184   92   94 am   BACKBONE|DICT|INTERRES
   185   94   95 1    
   186   94  215 1    
   187   95   96 1    
   188   95   97 1    
   189   95  216 1    
   190   96  217 1    
   191   96  218 1    
   192   96  219 1    
   193   97   98 2    
   194   97   99 am   BACKBONE|DICT|INTERRES
   195   99  100 1    
   196   99  220 1    
   197  100  101 1    
   198  100  102 1    
   199  100  221 1    
   200  101  222 1    
   201  101  223 1    
   202  101  224 1    
   203  102  103 2    
   204  102  104 am   BACKBONE|DICT|INTERRES
   205  104  105 1    
   206  104  225 1    
   207  105  106 1    
   208  105  107 1    
   209  105  226 1    
   210  106  227 1    
   211  106  228 1    
   212  106  229 1    
   213  107  108 2    
   214  107  109 am   BACKBONE|DICT|INTERRES
   215  109  110 1    
   216  109  230 1    
   217  110  111 1    
   218  110  112 1    
   219  110  231 1    
   220  111  232 1    
   221  111  233 1    
   222  111  234 1    
   223  112  113 2    
   224  112  114 am   BACKBONE|DICT|INTERRES
   225  114  115 1    
   226  114  235 1    
   227  115  116 1    
   228  115  117 1    
   229  115  236 1    
   230  116  237 1    
   231  116  238 1    
   232  116  239 1    
   233  117  118 2    
   234  117  119 am   BACKBONE|DICT|INTERRES
   235  119  120 1    
   236  119  240 1    
   237  120  121 1    
   238  120  124 1    
   239  120  241 1    
   240  121  122 am   BACKBONE|DICT|INTERRES
   241  121  123 2    
   242  122  242 1    
   243  122  243 1    
   244  124  125 1    
   245  124  244 1    
   246  124  245 1    
   247  125  126 1    
   248  126  246 1    
   249  126  247 1    
@<TRIPOS>SUBSTRUCTURE
     1 UNK         1 GROUP             0       ****    0 ROOT    
