@<TRIPOS>MOLECULE
3R540
247   249    1
SMALL
USER_CHARGES


@<TRIPOS>ATOM
      1 CA         -4.3492  -16.6570  -44.5008 C.3       0 UNK        -0.1800 
      2 C          -4.3578  -15.2051  -44.9554 C.2       0 UNK         0.5000 
      3 O          -4.4331  -14.2989  -44.1264 O.2       0 UNK        -0.5000 
      4 N          -4.2945  -14.9855  -46.2733 N.am      1 UNK        -0.5000 
      5 CA         -4.3196  -13.6652  -46.9158 C.3       1 UNK         0.1400 
      6 C6         -4.8008  -13.7489  -48.3909 C.3       23 UNK        -0.0398 
      7 S7         -3.9852  -15.0520  -49.3825 S.3       23 UNK        -0.2404 
      8 C8         -2.6402  -14.1195  -50.1846 C.3       23 UNK        -0.0205 
      9 C9         -1.5768  -15.0427  -50.7617 C.ar      23 UNK        -0.0193 
     10 C10        -1.1950  -14.9340  -52.1025 C.ar      23 UNK        -0.1150 
     11 C11        -0.2044  -15.7693  -52.6282 C.ar      23 UNK        -0.0193 
     12 C12         0.3991  -16.7245  -51.8036 C.ar      23 UNK        -0.1150 
     13 C13         0.0297  -16.8390  -50.4601 C.ar      23 UNK        -0.0193 
     14 C14        -0.9508  -15.9896  -49.9445 C.ar      23 UNK        -0.1150 
     15 C15         0.6967  -17.8718  -49.5653 C.3       23 UNK        -0.0205 
     16 S16        -0.1726  -19.4685  -49.6256 S.3       23 UNK        -0.2404 
     17 C17        -1.5454  -19.2217  -48.4432 C.3       23 UNK        -0.0398 
     18 CA         -1.7670  -20.4811  -47.5659 C.3       11 UNK         0.1400 
     19 N          -0.6000  -20.8010  -46.7385 N.am      11 UNK        -0.5000 
     20 C          -0.1912  -22.0352  -46.4220 C.2       10 UNK         0.5000 
     21 O          -0.7644  -23.0572  -46.7906 O.2       10 UNK        -0.5000 
     22 CA          0.9999  -22.1476  -45.4579 C.3       10 UNK         0.1400 
     23 CB          2.3118  -21.7470  -46.1496 C.3       10 UNK        -0.1800 
     24 N           0.8047  -21.3524  -44.2453 N.am      10 UNK        -0.5000 
     25 C          -0.1919  -21.5360  -43.3648 C.2       9 UNK         0.5000 
     26 O          -1.0419  -22.4245  -43.4626 O.2       9 UNK        -0.5000 
     27 CA         -0.2627  -20.5438  -42.1896 C.3       9 UNK         0.1400 
     28 CB          0.7666  -20.9028  -41.1074 C.3       9 UNK        -0.1800 
     29 N          -0.0618  -19.1590  -42.6171 N.am      9 UNK        -0.5000 
     30 C          -0.9232  -18.4758  -43.3842 C.2       8 UNK         0.5000 
     31 O          -2.0090  -18.9163  -43.7491 O.2       8 UNK        -0.5000 
     32 CA         -0.4890  -17.0790  -43.8575 C.3       8 UNK         0.1400 
     33 CB         -0.7502  -16.0249  -42.7725 C.3       8 UNK        -0.1800 
     34 N           0.9158  -17.0367  -44.2568 N.am      8 UNK        -0.5000 
     35 C           1.4381  -17.7254  -45.2805 C.2       7 UNK         0.5000 
     36 O           0.7789  -18.4456  -46.0275 O.2       7 UNK        -0.5000 
     37 CA          2.9587  -17.6232  -45.4791 C.3       7 UNK         0.1400 
     38 CB          3.3246  -16.3669  -46.2812 C.3       7 UNK        -0.1800 
     39 N           3.6768  -17.6214  -44.2055 N.am      7 UNK        -0.5000 
     40 C           3.7652  -18.6801  -43.3884 C.2       6 UNK         0.5000 
     41 O           3.2760  -19.7820  -43.6373 O.2       6 UNK        -0.5000 
     42 CA          4.4810  -18.4487  -42.0462 C.3       6 UNK         0.1400 
     43 CB          6.0060  -18.4798  -42.2275 C.3       6 UNK        -0.1800 
     44 N           4.0886  -17.1856  -41.4187 N.am      6 UNK        -0.5000 
     45 C           2.8597  -16.9298  -40.9488 C.2       5 UNK         0.5000 
     46 O           1.9353  -17.7417  -40.9762 O.2       5 UNK        -0.5000 
     47 CA          2.6118  -15.5184  -40.3859 C.3       5 UNK         0.1400 
     48 CB          3.0245  -15.4484  -38.9081 C.3       5 UNK        -0.1800 
     49 N           3.2878  -14.4510  -41.1301 N.am      5 UNK        -0.5000 
     50 C           3.0702  -14.1620  -42.4196 C.2       4 UNK         0.5000 
     51 O           2.3476  -14.8293  -43.1616 O.2       4 UNK        -0.5000 
     52 CA          3.8031  -12.9388  -42.9896 C.3       4 UNK         0.1400 
     53 CB          4.9537  -13.3752  -43.9095 C.3       4 UNK        -0.1800 
     54 N           2.8714  -12.1020  -43.7432 N.am      4 UNK        -0.5000 
     55 C           2.0150  -11.2340  -43.1868 C.2       3 UNK         0.5000 
     56 O           1.9698  -10.9988  -41.9784 O.2       3 UNK        -0.5000 
     57 CA          1.0523  -10.4970  -44.1373 C.3       3 UNK         0.1400 
     58 CB          1.6927   -9.1972  -44.6490 C.3       3 UNK        -0.1800 
     59 N           0.6456  -11.3150  -45.2822 N.am      3 UNK        -0.5000 
     60 C          -0.2699  -12.2905  -45.2203 C.2       2 UNK         0.5000 
     61 O          -0.8779  -12.5958  -44.1923 O.2       2 UNK        -0.5000 
     62 CA         -0.5199  -13.0651  -46.5281 C.3       2 UNK         0.1400 
     63 CB          0.4994  -14.2017  -46.6788 C.3       2 UNK        -0.1800 
     64 N          -1.8701  -13.6247  -46.6006 N.am      2 UNK        -0.5000 
     65 C          -2.9804  -12.9024  -46.8052 C.2       1 UNK         0.5000 
     66 O          -2.9763  -11.6781  -46.9453 O.2       1 UNK        -0.5000 
     67 C          -3.0578  -20.4247  -46.7140 C.2       11 UNK         0.5000 
     68 O          -3.9011  -19.5516  -46.9201 O.2       11 UNK        -0.5000 
     69 N          -3.2082  -21.3964  -45.8062 N.am      12 UNK        -0.5000 
     70 CA         -4.4225  -21.7007  -45.0516 C.3       12 UNK         0.1400 
     71 CB         -4.4134  -21.0202  -43.6753 C.3       12 UNK        -0.1800 
     72 C          -4.5644  -23.2246  -44.9340 C.2       12 UNK         0.5000 
     73 O          -5.6380  -23.7568  -45.2198 O.2       12 UNK        -0.5000 
     74 N          -3.4621  -23.9099  -44.5972 N.am      13 UNK        -0.5000 
     75 CA         -3.3308  -25.3664  -44.6834 C.3       13 UNK         0.1400 
     76 CB         -1.9964  -25.7679  -44.0363 C.3       13 UNK        -0.1800 
     77 C          -3.3906  -25.8745  -46.1405 C.2       13 UNK         0.5000 
     78 O          -3.1293  -25.1070  -47.0671 O.2       13 UNK        -0.5000 
     79 N          -3.7138  -27.1644  -46.3182 N.am      14 UNK        -0.5000 
     80 CA         -3.7170  -27.8977  -47.5948 C.3       14 UNK         0.1400 
     81 CB         -2.2679  -28.1288  -48.0733 C.3       14 UNK        -0.1800 
     82 C          -4.6003  -27.2392  -48.6781 C.2       14 UNK         0.5000 
     83 O          -4.1309  -26.9690  -49.7862 O.2       14 UNK        -0.5000 
     84 N          -5.8580  -26.9482  -48.3103 N.am      15 UNK        -0.5000 
     85 CA         -6.8611  -26.2347  -49.1148 C.3       15 UNK         0.1400 
     86 CB         -7.2981  -27.0826  -50.3284 C.3       15 UNK        -0.1800 
     87 C          -6.3871  -24.8195  -49.5084 C.2       15 UNK         0.5000 
     88 O          -6.5198  -24.4115  -50.6641 O.2       15 UNK        -0.5000 
     89 N          -5.7928  -24.1214  -48.5309 N.am      16 UNK        -0.5000 
     90 CA         -5.1310  -22.8227  -48.6509 C.3       16 UNK         0.1400 
     91 CB         -6.1601  -21.7019  -48.9037 C.3       16 UNK        -0.1800 
     92 C          -3.9799  -22.8386  -49.6725 C.2       16 UNK         0.5000 
     93 O          -3.9237  -21.9675  -50.5351 O.2       16 UNK        -0.5000 
     94 N          -3.1042  -23.8478  -49.5726 N.am      17 UNK        -0.5000 
     95 CA         -2.0169  -24.1771  -50.5024 C.3       17 UNK         0.1400 
     96 CB         -0.8864  -23.1311  -50.4182 C.3       17 UNK        -0.1800 
     97 C          -2.5237  -24.3917  -51.9450 C.2       17 UNK         0.5000 
     98 O          -1.9361  -23.8664  -52.8919 O.2       17 UNK        -0.5000 
     99 N          -3.6319  -25.1383  -52.0686 N.am      18 UNK        -0.5000 
    100 CA        -4.4093  -25.3758  -53.2893 C.3       18 UNK         0.1400 
    101 CB        -3.6291  -26.2868  -54.2595 C.3       18 UNK        -0.1800 
    102 C         -4.8892  -24.0591  -53.9404 C.2       18 UNK         0.5000 
    103 O         -4.6268  -23.8160  -55.1201 O.2       18 UNK        -0.5000 
    104 N         -5.5710  -23.2305  -53.1350 N.am      19 UNK        -0.5000 
    105 CA        -6.0704  -21.8878  -53.4548 C.3       19 UNK         0.1400 
    106 CB        -7.2070  -21.9602  -54.4956 C.3       19 UNK        -0.1800 
    107 C         -4.9412  -20.9110  -53.8519 C.2       19 UNK         0.5000 
    108 O         -5.0231  -20.2414  -54.8839 O.2       19 UNK        -0.5000 
    109 N         -3.8958  -20.8718  -53.0170 N.am      20 UNK        -0.5000 
    110 CA        -2.6681  -20.0699  -53.0500 C.3       20 UNK         0.1400 
    111 CB        -2.9896  -18.5698  -52.9400 C.3       20 UNK        -0.1800 
    112 C         -1.7171  -20.3631  -54.2273 C.2       20 UNK         0.5000 
    113 O         -0.5017  -20.3756  -54.0241 O.2       20 UNK        -0.5000 
    114 N         -2.2744  -20.5902  -55.4245 N.am      21 UNK        -0.5000 
    115 CA        -1.6423  -20.8656  -56.7198 C.3       21 UNK         0.1400 
    116 CB        -0.8073  -22.1599  -56.6789 C.3       21 UNK        -0.1800 
    117 C         -0.8347  -19.6776  -57.2786 C.2       21 UNK         0.5000 
    118 O         -1.1147  -19.2254  -58.3894 O.2       21 UNK        -0.5000 
    119 N          0.1268  -19.1843  -56.4903 N.am      22 UNK        -0.5000 
    120 CA         0.9397  -17.9765  -56.7212 C.3       22 UNK         0.1400 
    121 C          1.9089  -18.0472  -57.9415 C.2       22 UNK         0.5000 
    122 N          2.2149  -19.2236  -58.4749 N.am      22 UNK        -0.7600 
    123 O          2.4215  -17.0271  -58.3949 O.2       22 UNK        -0.5000 
    124 C124        0.0979  -16.6674  -56.6973 C.3       23 UNK        -0.0398 
    125 S125       -0.9220  -16.5133  -55.1896 S.3       23 UNK        -0.2404 
    126 C126        0.2219  -15.6359  -54.0822 C.3       23 UNK        -0.0205 
    127 H127       -3.8190  -16.7596  -43.5549 H         1 UNK         0.0600 
    128 H128       -3.8615  -17.3027  -45.2317 H         1 UNK         0.0600 
    129 H129       -5.3694  -17.0121  -44.3569 H         1 UNK         0.0600 
    130 H130       -4.2488  -15.7695  -46.9101 H         1 UNK         0.3000 
    131 H131       -5.0513  -13.0558  -46.3807 H         1 UNK         0.0600 
    132 H132       -5.8683  -13.9723  -48.3959 H         1 UNK         0.0800 
    133 H133       -4.7100  -12.7855  -48.8965 H         1 UNK         0.0800 
    134 H134       -3.0685  -13.4837  -50.9609 H         1 UNK         0.0800 
    135 H135       -2.1587  -13.4538  -49.4696 H         1 UNK         0.0800 
    136 H136       -1.6654  -14.1991  -52.7406 H         1 UNK         0.1150 
    137 H137        1.1568  -17.3814  -52.2074 H         1 UNK         0.1150 
    138 H138       -1.2373  -16.0723  -48.9060 H         1 UNK         0.1150 
    139 H139        1.7272  -18.0247  -49.8887 H         1 UNK         0.0800 
    140 H140        0.7553  -17.5108  -48.5381 H         1 UNK         0.0800 
    141 H141       -2.4377  -18.9919  -49.0284 H         1 UNK         0.0800 
    142 H142       -1.3538  -18.3517  -47.8139 H         1 UNK         0.0800 
    143 H143       -1.9246  -21.3074  -48.2603 H         1 UNK         0.0600 
    144 H144       -0.0841  -19.9999  -46.3777 H         1 UNK         0.3000 
    145 H145        1.0846  -23.1933  -45.1551 H         1 UNK         0.0600 
    146 H146        3.1670  -21.8981  -45.4908 H         1 UNK         0.0600 
    147 H147        2.4794  -22.3483  -47.0440 H         1 UNK         0.0600 
    148 H148        2.3051  -20.7012  -46.4556 H         1 UNK         0.0600 
    149 H149        1.4863  -20.6216  -44.0688 H         1 UNK         0.3000 
    150 H150       -1.2588  -20.6210  -41.7489 H         1 UNK         0.0600 
    151 H151        0.6336  -21.9303  -40.7668 H         1 UNK         0.0600 
    152 H152        0.6632  -20.2548  -40.2368 H         1 UNK         0.0600 
    153 H153        1.7890  -20.8063  -41.4744 H         1 UNK         0.0600 
    154 H154        0.7872  -18.7003  -42.3021 H         1 UNK         0.3000 
    155 H155       -1.0896  -16.8216  -44.7324 H         1 UNK         0.0600 
    156 H156       -1.8062  -15.9884  -42.5051 H         1 UNK         0.0600 
    157 H157       -0.4674  -15.0297  -43.1141 H         1 UNK         0.0600 
    158 H158       -0.1902  -16.2372  -41.8626 H         1 UNK         0.0600 
    159 H159        1.5185  -16.4079  -43.7317 H         1 UNK         0.3000 
    160 H160        3.2810  -18.4951  -46.0518 H         1 UNK         0.0600 
    161 H161        3.0460  -15.4580  -45.7495 H         1 UNK         0.0600 
    162 H162        2.8120  -16.3551  -47.2440 H         1 UNK         0.0600 
    163 H163        4.3952  -16.3240  -46.4817 H         1 UNK         0.0600 
    164 H164        4.0576  -16.7390  -43.8989 H         1 UNK         0.3000 
    165 H165        4.2007  -19.2635  -41.3750 H         1 UNK         0.0600 
    166 H166        6.5182  -18.3961  -41.2689 H         1 UNK         0.0600 
    167 H167        6.3248  -19.4177  -42.6842 H         1 UNK         0.0600 
    168 H168        6.3549  -17.6679  -42.8668 H         1 UNK         0.0600 
    169 H169        4.7899  -16.4623  -41.3581 H         1 UNK         0.3000 
    170 H170        1.5386  -15.3274  -40.4445 H         1 UNK         0.0600 
    171 H171        2.5201  -16.2202  -38.3248 H         1 UNK         0.0600 
    172 H172        4.0984  -15.5906  -38.7817 H         1 UNK         0.0600 
    173 H173        2.7584  -14.4866  -38.4690 H         1 UNK         0.0600 
    174 H174        3.9056  -13.8575  -40.5955 H         1 UNK         0.3000 
    175 H175        4.2252  -12.3552  -42.1684 H         1 UNK         0.0600 
    176 H176        4.5948  -13.9375  -44.7714 H         1 UNK         0.0600 
    177 H177        5.5065  -12.5126  -44.2819 H         1 UNK         0.0600 
    178 H178        5.6630  -14.0088  -43.3756 H         1 UNK         0.0600 
    179 H179        2.8104  -12.2730  -44.7350 H         1 UNK         0.3000 
    180 H180        0.1613  -10.2297  -43.5645 H         1 UNK         0.0600 
    181 H181        2.5858   -9.3932  -45.2438 H         1 UNK         0.0600 
    182 H182        1.9865   -8.5538  -43.8184 H         1 UNK         0.0600 
    183 H183        0.9953   -8.6302  -45.2660 H         1 UNK         0.0600 
    184 H184        1.0986  -11.1167  -46.1627 H         1 UNK         0.3000 
    185 H185       -0.3931  -12.3780  -47.3677 H         1 UNK         0.0600 
    186 H186        0.3582  -14.7469  -47.6113 H         1 UNK         0.0600 
    187 H187        1.5182  -13.8134  -46.6838 H         1 UNK         0.0600 
    188 H188        0.4222  -14.9104  -45.8562 H         1 UNK         0.0600 
    189 H189       -1.9653  -14.6168  -46.4501 H         1 UNK         0.3000 
    190 H190       -2.4719  -22.0901  -45.7502 H         1 UNK         0.3000 
    191 H191       -5.2914  -21.3387  -45.6056 H         1 UNK         0.0600 
    192 H192       -4.4523  -19.9359  -43.7785 H         1 UNK         0.0600 
    193 H193       -5.2795  -21.3195  -43.0842 H         1 UNK         0.0600 
    194 H194       -3.5197  -21.2718  -43.1043 H         1 UNK         0.0600 
    195 H195       -2.6228  -23.4053  -44.3314 H         1 UNK         0.3000 
    196 H196       -4.1501  -25.8196  -44.1219 H         1 UNK         0.0600 
    197 H197       -1.8612  -26.8501  -44.0454 H         1 UNK         0.0600 
    198 H198       -1.9484  -25.4431  -42.9967 H         1 UNK         0.0600 
    199 H199       -1.1492  -25.3253  -44.5630 H         1 UNK         0.0600 
    200 H200       -3.9327  -27.7186  -45.5018 H         1 UNK         0.3000 
    201 H201       -4.1570  -28.8756  -47.3944 H         1 UNK         0.0600 
    202 H202       -1.6782  -28.6385  -47.3115 H         1 UNK         0.0600 
    203 H203       -1.7657  -27.1908  -48.3128 H         1 UNK         0.0600 
    204 H204       -2.2457  -28.7499  -48.9696 H         1 UNK         0.0600 
    205 H205       -6.1417  -27.1906  -47.3711 H         1 UNK         0.3000 
    206 H206       -7.7348  -26.0979  -48.4761 H         1 UNK         0.0600 
    207 H207       -7.6440  -28.0677  -50.0160 H         1 UNK         0.0600 
    208 H208       -8.1206  -26.6046  -50.8617 H         1 UNK         0.0600 
    209 H209       -6.4863  -27.2236  -51.0422 H         1 UNK         0.0600 
    210 H210       -5.7052  -24.5619  -47.6249 H         1 UNK         0.3000 
    211 H211       -4.6657  -22.6355  -47.6903 H         1 UNK         0.0600 
    212 H212       -6.6550  -21.8135  -49.8687 H         1 UNK         0.0600 
    213 H213       -5.6800  -20.7226  -48.8937 H         1 UNK         0.0600 
    214 H214       -6.9281  -21.6928  -48.1305 H         1 UNK         0.0600 
    215 H215       -3.1968  -24.4749  -48.7743 H         1 UNK         0.3000 
    216 H216       -1.6105  -25.1340  -50.1721 H         1 UNK         0.0600 
    217 H217       -0.0430  -23.4132  -51.0491 H         1 UNK         0.0600 
    218 H218       -0.5072  -23.0383  -49.4024 H         1 UNK         0.0600 
    219 H219       -1.2209  -22.1464  -50.7434 H         1 UNK         0.0600 
    220 H220       -4.0055  -25.5612  -51.2237 H         1 UNK         0.3000 
    221 H221       -5.3073  -25.9137  -52.9820 H         1 UNK         0.0600 
    222 H222       -2.7244  -25.8050  -54.6315 H         1 UNK         0.0600 
    223 H223       -3.3378  -27.2187  -53.7750 H         1 UNK         0.0600 
    224 H224       -4.2398  -26.5474  -55.1246 H         1 UNK         0.0600 
    225 H225       -5.7566  -23.5487  -52.1862 H         1 UNK         0.3000 
    226 H226       -6.4982  -21.4972  -52.5304 H         1 UNK         0.0600 
    227 H227       -8.0000  -22.6316  -54.1661 H         1 UNK         0.0600 
    228 H228       -7.6565  -20.9786  -54.6498 H         1 UNK         0.0600 
    229 H229       -6.8507  -22.3114  -55.4643 H         1 UNK         0.0600 
    230 H230       -3.9525  -21.4632  -52.1868 H         1 UNK         0.3000 
    231 H231       -2.1260  -20.3470  -52.1447 H         1 UNK         0.0600 
    232 H232       -3.4972  -18.1944  -53.8289 H         1 UNK         0.0600 
    233 H233       -2.0748  -17.9915  -52.8154 H         1 UNK         0.0600 
    234 H234       -3.6195  -18.3617  -52.0751 H         1 UNK         0.0600 
    235 H235       -3.2885  -20.5108  -55.4523 H         1 UNK         0.3000 
    236 H236       -2.4678  -21.0370  -57.4123 H         1 UNK         0.0600 
    237 H237       -1.4096  -23.0029  -56.3387 H         1 UNK         0.0600 
    238 H238       -0.4285  -22.4087  -57.6707 H         1 UNK         0.0600 
    239 H239        0.0521  -22.0756  -56.0136 H         1 UNK         0.0600 
    240 H240        0.2235  -19.6134  -55.5734 H         1 UNK         0.3000 
    241 H241        1.6097  -17.9307  -55.8624 H         1 UNK         0.0600 
    242 H242        2.8499  -19.2664  -59.2567 H         1 UNK         0.3800 
    243 H243        1.8093  -20.0702  -58.1091 H         1 UNK         0.3800 
    244 H244       -0.5650  -16.6293  -57.5628 H         1 UNK         0.0800 
    245 H245        0.7407  -15.7888  -56.7724 H         1 UNK         0.0800 
    246 H246        1.2312  -16.0302  -54.2094 H         1 UNK         0.0800 
    247 H247        0.2642  -14.5830  -54.3650 H         1 UNK         0.0800 
@<TRIPOS>BOND
     1    1    2 1    
     2    1  127 1    
     3    1  128 1    
     4    1  129 1    
     5    2    3 2    
     6    2    4 am   BACKBONE|DICT|INTERRES
     7    4    5 1    
     8    4  130 1    
     9    5    6 1    
    10    5   65 1    
    11    5  131 1    
    12    6    7 1    
    13    6  132 1    
    14    6  133 1    
    15    7    8 1    
    16    8    9 1    
    17    8  134 1    
    18    8  135 1    
    19    9   10 ar   
    20    9   14 ar   
    21   10   11 ar   
    22   10  136 1    
    23   11   12 ar   
    24   11  126 1    
    25   12   13 ar   
    26   12  137 1    
    27   13   14 ar   
    28   13   15 1    
    29   14  138 1    
    30   15   16 1    
    31   15  139 1    
    32   15  140 1    
    33   16   17 1    
    34   17   18 1    
    35   17  141 1    
    36   17  142 1    
    37   18   19 1    
    38   18   67 1    
    39   18  143 1    
    40   19   20 am   BACKBONE|DICT|INTERRES
    41   19  144 1    
    42   20   21 2    
    43   20   22 1    
    44   22   23 1    
    45   22   24 1    
    46   22  145 1    
    47   23  146 1    
    48   23  147 1    
    49   23  148 1    
    50   24   25 am   BACKBONE|DICT|INTERRES
    51   24  149 1    
    52   25   26 2    
    53   25   27 1    
    54   27   28 1    
    55   27   29 1    
    56   27  150 1    
    57   28  151 1    
    58   28  152 1    
    59   28  153 1    
    60   29   30 am   BACKBONE|DICT|INTERRES
    61   29  154 1    
    62   30   31 2    
    63   30   32 1    
    64   32   33 1    
    65   32   34 1    
    66   32  155 1    
    67   33  156 1    
    68   33  157 1    
    69   33  158 1    
    70   34   35 am   BACKBONE|DICT|INTERRES
    71   34  159 1    
    72   35   36 2    
    73   35   37 1    
    74   37   38 1    
    75   37   39 1    
    76   37  160 1    
    77   38  161 1    
    78   38  162 1    
    79   38  163 1    
    80   39   40 am   BACKBONE|DICT|INTERRES
    81   39  164 1    
    82   40   41 2    
    83   40   42 1    
    84   42   43 1    
    85   42   44 1    
    86   42  165 1    
    87   43  166 1    
    88   43  167 1    
    89   43  168 1    
    90   44   45 am   BACKBONE|DICT|INTERRES
    91   44  169 1    
    92   45   46 2    
    93   45   47 1    
    94   47   48 1    
    95   47   49 1    
    96   47  170 1    
    97   48  171 1    
    98   48  172 1    
    99   48  173 1    
   100   49   50 am   BACKBONE|DICT|INTERRES
   101   49  174 1    
   102   50   51 2    
   103   50   52 1    
   104   52   53 1    
   105   52   54 1    
   106   52  175 1    
   107   53  176 1    
   108   53  177 1    
   109   53  178 1    
   110   54   55 am   BACKBONE|DICT|INTERRES
   111   54  179 1    
   112   55   56 2    
   113   55   57 1    
   114   57   58 1    
   115   57   59 1    
   116   57  180 1    
   117   58  181 1    
   118   58  182 1    
   119   58  183 1    
   120   59   60 am   BACKBONE|DICT|INTERRES
   121   59  184 1    
   122   60   61 2    
   123   60   62 1    
   124   62   63 1    
   125   62   64 1    
   126   62  185 1    
   127   63  186 1    
   128   63  187 1    
   129   63  188 1    
   130   64   65 am   BACKBONE|DICT|INTERRES
   131   64  189 1    
   132   65   66 2    
   133   67   68 2    
   134   67   69 am   BACKBONE|DICT|INTERRES
   135   69   70 1    
   136   69  190 1    
   137   70   71 1    
   138   70   72 1    
   139   70  191 1    
   140   71  192 1    
   141   71  193 1    
   142   71  194 1    
   143   72   73 2    
   144   72   74 am   BACKBONE|DICT|INTERRES
   145   74   75 1    
   146   74  195 1    
   147   75   76 1    
   148   75   77 1    
   149   75  196 1    
   150   76  197 1    
   151   76  198 1    
   152   76  199 1    
   153   77   78 2    
   154   77   79 am   BACKBONE|DICT|INTERRES
   155   79   80 1    
   156   79  200 1    
   157   80   81 1    
   158   80   82 1    
   159   80  201 1    
   160   81  202 1    
   161   81  203 1    
   162   81  204 1    
   163   82   83 2    
   164   82   84 am   BACKBONE|DICT|INTERRES
   165   84   85 1    
   166   84  205 1    
   167   85   86 1    
   168   85   87 1    
   169   85  206 1    
   170   86  207 1    
   171   86  208 1    
   172   86  209 1    
   173   87   88 2    
   174   87   89 am   BACKBONE|DICT|INTERRES
   175   89   90 1    
   176   89  210 1    
   177   90   91 1    
   178   90   92 1    
   179   90  211 1    
   180   91  212 1    
   181   91  213 1    
   182   91  214 1    
   183   92   93 2    
   184   92   94 am   BACKBONE|DICT|INTERRES
   185   94   95 1    
   186   94  215 1    
   187   95   96 1    
   188   95   97 1    
   189   95  216 1    
   190   96  217 1    
   191   96  218 1    
   192   96  219 1    
   193   97   98 2    
   194   97   99 am   BACKBONE|DICT|INTERRES
   195   99  100 1    
   196   99  220 1    
   197  100  101 1    
   198  100  102 1    
   199  100  221 1    
   200  101  222 1    
   201  101  223 1    
   202  101  224 1    
   203  102  103 2    
   204  102  104 am   BACKBONE|DICT|INTERRES
   205  104  105 1    
   206  104  225 1    
   207  105  106 1    
   208  105  107 1    
   209  105  226 1    
   210  106  227 1    
   211  106  228 1    
   212  106  229 1    
   213  107  108 2    
   214  107  109 am   BACKBONE|DICT|INTERRES
   215  109  110 1    
   216  109  230 1    
   217  110  111 1    
   218  110  112 1    
   219  110  231 1    
   220  111  232 1    
   221  111  233 1    
   222  111  234 1    
   223  112  113 2    
   224  112  114 am   BACKBONE|DICT|INTERRES
   225  114  115 1    
   226  114  235 1    
   227  115  116 1    
   228  115  117 1    
   229  115  236 1    
   230  116  237 1    
   231  116  238 1    
   232  116  239 1    
   233  117  118 2    
   234  117  119 am   BACKBONE|DICT|INTERRES
   235  119  120 1    
   236  119  240 1    
   237  120  121 1    
   238  120  124 1    
   239  120  241 1    
   240  121  122 am   BACKBONE|DICT|INTERRES
   241  121  123 2    
   242  122  242 1    
   243  122  243 1    
   244  124  125 1    
   245  124  244 1    
   246  124  245 1    
   247  125  126 1    
   248  126  246 1    
   249  126  247 1    
@<TRIPOS>SUBSTRUCTURE
     1 UNK         1 GROUP             0       ****    0 ROOT    
