@<TRIPOS>MOLECULE
3R540
247   249    1
SMALL
USER_CHARGES


@<TRIPOS>ATOM
      1 CA         -1.3854  -16.4939  -51.9377 C.3       0 UNK        -0.1800 
      2 C          -0.8549  -15.8169  -50.6842 C.2       0 UNK         0.5000 
      3 O          -1.5984  -15.1074  -50.0065 O.2       0 UNK        -0.5000 
      4 N           0.4275  -16.0428  -50.3666 N.am      1 UNK        -0.5000 
      5 CA          1.1550  -15.4001  -49.2608 C.3       1 UNK         0.1400 
      6 C6          2.6852  -15.6418  -49.3174 C.3       23 UNK        -0.0398 
      7 S7          3.3831  -15.3143  -50.9787 S.3       23 UNK        -0.2404 
      8 C8          4.3377  -16.8257  -51.3550 C.3       23 UNK        -0.0205 
      9 C9          3.5804  -18.1166  -51.0685 C.ar      23 UNK        -0.0193 
     10 C10         2.3911  -18.4156  -51.7399 C.ar      23 UNK        -0.1150 
     11 C11         1.6807  -19.5863  -51.4457 C.ar      23 UNK        -0.0193 
     12 C12         2.1826  -20.4643  -50.4784 C.ar      23 UNK        -0.1150 
     13 C13         3.3744  -20.1783  -49.8042 C.ar      23 UNK        -0.0193 
     14 C14         4.0689  -19.0063  -50.1083 C.ar      23 UNK        -0.1150 
     15 C15         3.9208  -21.1278  -48.7462 C.3       23 UNK        -0.0205 
     16 S16         3.6819  -20.4933  -47.0519 S.3       23 UNK        -0.2404 
     17 C17         1.8847  -20.7048  -46.8519 C.3       23 UNK        -0.0398 
     18 CA          1.5236  -22.0834  -46.2492 C.3       11 UNK         0.1400 
     19 N           1.9271  -22.2061  -44.8465 N.am      11 UNK        -0.5000 
     20 C           2.0877  -23.3719  -44.2072 C.2       10 UNK         0.5000 
     21 O           1.7638  -24.4581  -44.6890 O.2       10 UNK        -0.5000 
     22 CA          2.7294  -23.3290  -42.8117 C.3       10 UNK         0.1400 
     23 CB          4.2560  -23.1863  -42.9232 C.3       10 UNK        -0.1800 
     24 N           2.2018  -22.2399  -41.9890 N.am      10 UNK        -0.5000 
     25 C           1.8010  -22.3785  -40.7165 C.2       9 UNK         0.5000 
     26 O           1.8472  -23.4445  -40.1003 O.2       9 UNK        -0.5000 
     27 CA          1.2587  -21.1287  -39.9883 C.3       9 UNK         0.1400 
     28 CB          2.3320  -20.5446  -39.0566 C.3       9 UNK        -0.1800 
     29 N           0.7880  -20.0640  -40.8724 N.am      9 UNK        -0.5000 
     30 C          -0.2116  -20.1643  -41.7578 C.2       8 UNK         0.5000 
     31 O          -0.8999  -21.1731  -41.9033 O.2       8 UNK        -0.5000 
     32 CA         -0.4577  -18.9411  -42.6608 C.3       8 UNK         0.1400 
     33 CB         -1.5445  -18.0616  -42.0254 C.3       8 UNK        -0.1800 
     34 N           0.7336  -18.1232  -42.9282 N.am      8 UNK        -0.5000 
     35 C           1.9144  -18.5572  -43.3986 C.2       7 UNK         0.5000 
     36 O           2.1681  -19.7400  -43.6252 O.2       7 UNK        -0.5000 
     37 CA          3.0079  -17.5025  -43.6204 C.3       7 UNK         0.1400 
     38 CB          2.8473  -16.8414  -44.9944 C.3       7 UNK        -0.1800 
     39 N           2.9773  -16.4765  -42.5804 N.am      7 UNK        -0.5000 
     40 C           3.5668  -16.5991  -41.3833 C.2       6 UNK         0.5000 
     41 O           4.2447  -17.5713  -41.0499 O.2       6 UNK        -0.5000 
     42 CA          3.3520  -15.4468  -40.3833 C.3       6 UNK         0.1400 
     43 CB          4.4259  -14.3641  -40.5696 C.3       6 UNK        -0.1800 
     44 N           2.0278  -14.8337  -40.4967 N.am      6 UNK        -0.5000 
     45 C           0.8800  -15.4406  -40.1646 C.2       5 UNK         0.5000 
     46 O           0.8194  -16.5726  -39.6837 O.2       5 UNK        -0.5000 
     47 CA         -0.4214  -14.6618  -40.4415 C.3       5 UNK         0.1400 
     48 CB         -0.8352  -13.8544  -39.2021 C.3       5 UNK        -0.1800 
     49 N          -0.3603  -13.7639  -41.6013 N.am      5 UNK        -0.5000 
     50 C          -0.1168  -14.1477  -42.8613 C.2       4 UNK         0.5000 
     51 O           0.1936  -15.2984  -43.1781 O.2       4 UNK        -0.5000 
     52 CA         -0.1910  -13.0595  -43.9436 C.3       4 UNK         0.1400 
     53 CB          1.2187  -12.7014  -44.4388 C.3       4 UNK        -0.1800 
     54 N          -0.9919  -13.5397  -45.0665 N.am      4 UNK        -0.5000 
     55 C          -2.3329  -13.5040  -45.1118 C.2       3 UNK         0.5000 
     56 O          -3.0249  -12.9308  -44.2692 O.2       3 UNK        -0.5000 
     57 CA         -3.0280  -14.2440  -46.2775 C.3       3 UNK         0.1400 
     58 CB         -3.3123  -13.2804  -47.4393 C.3       3 UNK        -0.1800 
     59 N          -2.2478  -15.3734  -46.7811 N.am      3 UNK        -0.5000 
     60 C          -1.9405  -16.4640  -46.0646 C.2       2 UNK         0.5000 
     61 O          -2.4794  -16.7355  -44.9935 O.2       2 UNK        -0.5000 
     62 CA         -0.8466  -17.4063  -46.6133 C.3       2 UNK         0.1400 
     63 CB         -1.4571  -18.7713  -46.9613 C.3       2 UNK        -0.1800 
     64 N          -0.1211  -16.9050  -47.7862 N.am      2 UNK        -0.5000 
     65 C           0.5978  -15.7738  -47.8715 C.2       1 UNK         0.5000 
     66 O           0.7748  -15.0053  -46.9282 O.2       1 UNK        -0.5000 
     67 C           0.0367  -22.3827  -46.4933 C.2       11 UNK         0.5000 
     68 O          -0.2988  -22.7491  -47.6176 O.2       11 UNK        -0.5000 
     69 N          -0.8311  -22.2266  -45.4819 N.am      12 UNK        -0.5000 
     70 CA         -2.2890  -22.3548  -45.6195 C.3       12 UNK         0.1400 
     71 CB         -2.9667  -22.0239  -44.2835 C.3       12 UNK        -0.1800 
     72 C          -2.7640  -23.7235  -46.1453 C.2       12 UNK         0.5000 
     73 O          -3.7459  -23.7799  -46.8861 O.2       12 UNK        -0.5000 
     74 N          -2.0307  -24.7894  -45.7969 N.am      13 UNK        -0.5000 
     75 CA         -2.2751  -26.1559  -46.2612 C.3       13 UNK         0.1400 
     76 CB         -1.4063  -27.1217  -45.4412 C.3       13 UNK        -0.1800 
     77 C          -2.0186  -26.3488  -47.7698 C.2       13 UNK         0.5000 
     78 O          -2.6634  -27.1981  -48.3858 O.2       13 UNK        -0.5000 
     79 N          -1.0905  -25.5645  -48.3335 N.am      14 UNK        -0.5000 
     80 CA         -0.7519  -25.5687  -49.7558 C.3       14 UNK         0.1400 
     81 CB          0.7554  -25.3087  -49.9132 C.3       14 UNK        -0.1800 
     82 C          -1.5602  -24.5112  -50.5247 C.2       14 UNK         0.5000 
     83 O          -2.0160  -24.7799  -51.6363 O.2       14 UNK        -0.5000 
     84 N          -1.7076  -23.3248  -49.9214 N.am      15 UNK        -0.5000 
     85 CA         -2.3575  -22.1551  -50.5028 C.3       15 UNK         0.1400 
     86 CB         -1.9889  -20.9207  -49.6694 C.3       15 UNK        -0.1800 
     87 C          -3.8829  -22.2859  -50.6130 C.2       15 UNK         0.5000 
     88 O          -4.4539  -21.6962  -51.5273 O.2       15 UNK        -0.5000 
     89 N          -4.5112  -23.0330  -49.6917 N.am      16 UNK        -0.5000 
     90 CA         -5.9444  -23.3351  -49.6210 C.3       16 UNK         0.1400 
     91 CB         -6.3380  -24.3131  -50.7505 C.3       16 UNK        -0.1800 
     92 C          -6.8152  -22.0605  -49.5774 C.2       16 UNK         0.5000 
     93 O          -6.9576  -21.4599  -48.5122 O.2       16 UNK        -0.5000 
     94 N          -7.3557  -21.6579  -50.7354 N.am      17 UNK        -0.5000 
     95 CA         -8.1602  -20.4499  -50.9389 C.3       17 UNK         0.1400 
     96 CB         -9.0651  -20.6710  -52.1627 C.3       17 UNK        -0.1800 
     97 C          -7.3214  -19.1596  -51.0929 C.2       17 UNK         0.5000 
     98 O          -7.8839  -18.1147  -51.4233 O.2       17 UNK        -0.5000 
     99 N          -6.0017  -19.2506  -50.8764 N.am      18 UNK        -0.5000 
    100 CA        -4.9931  -18.2030  -51.0351 C.3       18 UNK         0.1400 
    101 CB        -5.2487  -16.9960  -50.1042 C.3       18 UNK        -0.1800 
    102 C         -4.8185  -17.8577  -52.5226 C.2       18 UNK         0.5000 
    103 O         -4.6372  -18.7759  -53.3218 O.2       18 UNK        -0.5000 
    104 N         -4.8706  -16.5708  -52.8886 N.am      19 UNK        -0.5000 
    105 CA        -4.6383  -16.0633  -54.2476 C.3       19 UNK         0.1400 
    106 CB        -4.7123  -14.5292  -54.2188 C.3       19 UNK        -0.1800 
    107 C         -5.5777  -16.6324  -55.3343 C.2       19 UNK         0.5000 
    108 O         -5.2400  -16.5695  -56.5164 O.2       19 UNK        -0.5000 
    109 N         -6.7245  -17.1880  -54.9222 N.am      20 UNK        -0.5000 
    110 CA        -7.6755  -17.8793  -55.7900 C.3       20 UNK         0.1400 
    111 CB        -9.0368  -17.9303  -55.0797 C.3       20 UNK        -0.1800 
    112 C         -7.2262  -19.2981  -56.2032 C.2       20 UNK         0.5000 
    113 O         -7.7674  -19.8223  -57.1779 O.2       20 UNK        -0.5000 
    114 N         -6.2788  -19.9021  -55.4697 N.am      21 UNK        -0.5000 
    115 CA        -5.7987  -21.2700  -55.6960 C.3       21 UNK         0.1400 
    116 CB        -6.2644  -22.1644  -54.5365 C.3       21 UNK        -0.1800 
    117 C         -4.2716  -21.3499  -55.8740 C.2       21 UNK         0.5000 
    118 O         -3.8044  -22.1901  -56.6443 O.2       21 UNK        -0.5000 
    119 N         -3.5198  -20.4903  -55.1760 N.am      22 UNK        -0.5000 
    120 CA        -2.0600  -20.3512  -55.2774 C.3       22 UNK         0.1400 
    121 C         -1.6127  -19.8666  -56.6871 C.2       22 UNK         0.5000 
    122 N         -0.6176  -20.5047  -57.2885 N.am      22 UNK        -0.7600 
    123 O         -2.1410  -18.8958  -57.2246 O.2       22 UNK        -0.5000 
    124 C124       -1.5376  -19.4118  -54.1608 C.3       23 UNK        -0.0398 
    125 S125        0.2678  -19.5140  -53.8842 S.3       23 UNK        -0.2404 
    126 C126        0.3341  -19.8803  -52.0994 C.3       23 UNK        -0.0205 
    127 H127       -1.9833  -17.3630  -51.6688 H         1 UNK         0.0600 
    128 H128       -2.0122  -15.8032  -52.5012 H         1 UNK         0.0600 
    129 H129       -0.5745  -16.8184  -52.5895 H         1 UNK         0.0600 
    130 H130        0.9942  -16.6296  -50.9620 H         1 UNK         0.3000 
    131 H131        0.9957  -14.3254  -49.3729 H         1 UNK         0.0600 
    132 H132        2.9249  -16.6548  -48.9946 H         1 UNK         0.0800 
    133 H133        3.1916  -14.9829  -48.6097 H         1 UNK         0.0800 
    134 H134        4.6231  -16.8088  -52.4076 H         1 UNK         0.0800 
    135 H135        5.2692  -16.7931  -50.7878 H         1 UNK         0.0800 
    136 H136        2.0131  -17.7243  -52.4797 H         1 UNK         0.1150 
    137 H137        1.6361  -21.3654  -50.2358 H         1 UNK         0.1150 
    138 H138        4.9856  -18.7821  -49.5809 H         1 UNK         0.1150 
    139 H139        3.4622  -22.1137  -48.8366 H         1 UNK         0.0800 
    140 H140        4.9883  -21.2746  -48.9168 H         1 UNK         0.0800 
    141 H141        1.4138  -20.5605  -47.8245 H         1 UNK         0.0800 
    142 H142        1.5078  -19.8982  -46.2224 H         1 UNK         0.0800 
    143 H143        2.0705  -22.8425  -46.8133 H         1 UNK         0.0600 
    144 H144        2.1914  -21.3357  -44.3893 H         1 UNK         0.3000 
    145 H145        2.5146  -24.2930  -42.3458 H         1 UNK         0.0600 
    146 H146        4.7290  -23.2512  -41.9432 H         1 UNK         0.0600 
    147 H147        4.6799  -23.9781  -43.5422 H         1 UNK         0.0600 
    148 H148        4.5391  -22.2317  -43.3689 H         1 UNK         0.0600 
    149 H149        2.1259  -21.3283  -42.4280 H         1 UNK         0.3000 
    150 H150        0.4117  -21.4504  -39.3792 H         1 UNK         0.0600 
    151 H151        2.6923  -21.2957  -38.3524 H         1 UNK         0.0600 
    152 H152        1.9371  -19.7141  -38.4708 H         1 UNK         0.0600 
    153 H153        3.1934  -20.1789  -39.6177 H         1 UNK         0.0600 
    154 H154        1.2845  -19.1855  -40.8236 H         1 UNK         0.3000 
    155 H155       -0.8207  -19.3016  -43.6249 H         1 UNK         0.0600 
    156 H156       -1.2845  -17.7801  -41.0050 H         1 UNK         0.0600 
    157 H157       -2.4971  -18.5911  -41.9850 H         1 UNK         0.0600 
    158 H158       -1.7066  -17.1450  -42.5894 H         1 UNK         0.0600 
    159 H159        0.6064  -17.1194  -42.8282 H         1 UNK         0.3000 
    160 H160        3.9739  -18.0119  -43.6030 H         1 UNK         0.0600 
    161 H161        3.6642  -16.1496  -45.1992 H         1 UNK         0.0600 
    162 H162        1.9151  -16.2824  -45.0504 H         1 UNK         0.0600 
    163 H163        2.8383  -17.5836  -45.7939 H         1 UNK         0.0600 
    164 H164        2.3839  -15.6764  -42.7530 H         1 UNK         0.3000 
    165 H165        3.4523  -15.8580  -39.3765 H         1 UNK         0.0600 
    166 H166        4.3293  -13.5793  -39.8191 H         1 UNK         0.0600 
    167 H167        5.4268  -14.7862  -40.4698 H         1 UNK         0.0600 
    168 H168        4.3627  -13.8982  -41.5539 H         1 UNK         0.0600 
    169 H169        1.9849  -13.9005  -40.8787 H         1 UNK         0.3000 
    170 H170       -1.2036  -15.3958  -40.6411 H         1 UNK         0.0600 
    171 H171       -0.9157  -14.4981  -38.3250 H         1 UNK         0.0600 
    172 H172       -0.1106  -13.0728  -38.9704 H         1 UNK         0.0600 
    173 H173       -1.8069  -13.3813  -39.3450 H         1 UNK         0.0600 
    174 H174       -0.5907  -12.7965  -41.4251 H         1 UNK         0.3000 
    175 H175       -0.6487  -12.1589  -43.5289 H         1 UNK         0.0600 
    176 H176        1.7428  -13.5723  -44.8348 H         1 UNK         0.0600 
    177 H177        1.1802  -11.9491  -45.2266 H         1 UNK         0.0600 
    178 H178        1.8254  -12.2949  -43.6288 H         1 UNK         0.0600 
    179 H179       -0.4877  -14.0763  -45.7668 H         1 UNK         0.3000 
    180 H180       -3.9807  -14.6279  -45.9070 H         1 UNK         0.0600 
    181 H181       -2.3901  -12.8822  -47.8649 H         1 UNK         0.0600 
    182 H182       -3.9155  -12.4342  -47.1077 H         1 UNK         0.0600 
    183 H183       -3.8610  -13.7784  -48.2391 H         1 UNK         0.0600 
    184 H184       -1.8030  -15.2470  -47.6811 H         1 UNK         0.3000 
    185 H185       -0.1178  -17.5478  -45.8134 H         1 UNK         0.0600 
    186 H186       -1.9107  -19.2310  -46.0825 H         1 UNK         0.0600 
    187 H187       -2.2351  -18.6751  -47.7194 H         1 UNK         0.0600 
    188 H188       -0.7054  -19.4627  -47.3369 H         1 UNK         0.0600 
    189 H189       -0.2265  -17.4421  -48.6336 H         1 UNK         0.3000 
    190 H190       -0.4784  -21.9630  -44.5729 H         1 UNK         0.3000 
    191 H191       -2.6124  -21.6100  -46.3483 H         1 UNK         0.0600 
    192 H192       -2.6360  -22.6933  -43.4886 H         1 UNK         0.0600 
    193 H193       -4.0510  -22.1150  -44.3604 H         1 UNK         0.0600 
    194 H194       -2.7517  -21.0008  -43.9754 H         1 UNK         0.0600 
    195 H195       -1.2264  -24.6465  -45.2028 H         1 UNK         0.3000 
    196 H196       -3.3239  -26.3946  -46.0727 H         1 UNK         0.0600 
    197 H197       -0.3433  -26.9098  -45.5650 H         1 UNK         0.0600 
    198 H198       -1.5738  -28.1551  -45.7476 H         1 UNK         0.0600 
    199 H199       -1.6399  -27.0570  -44.3784 H         1 UNK         0.0600 
    200 H200       -0.6469  -24.8531  -47.7669 H         1 UNK         0.3000 
    201 H201       -0.9722  -26.5461  -50.1904 H         1 UNK         0.0600 
    202 H202        1.3410  -26.0794  -49.4119 H         1 UNK         0.0600 
    203 H203        1.0477  -24.3436  -49.4973 H         1 UNK         0.0600 
    204 H204        1.0442  -25.3136  -50.9650 H         1 UNK         0.0600 
    205 H205       -1.2556  -23.1793  -49.0204 H         1 UNK         0.3000 
    206 H206       -1.9682  -22.0212  -51.5137 H         1 UNK         0.0600 
    207 H207       -0.9096  -20.8262  -49.5519 H         1 UNK         0.0600 
    208 H208       -2.3439  -20.0070  -50.1425 H         1 UNK         0.0600 
    209 H209       -2.4285  -20.9715  -48.6735 H         1 UNK         0.0600 
    210 H210       -3.9612  -23.4122  -48.9285 H         1 UNK         0.3000 
    211 H211       -6.1046  -23.8488  -48.6719 H         1 UNK         0.0600 
    212 H212       -6.1196  -23.9158  -51.7423 H         1 UNK         0.0600 
    213 H213       -7.4021  -24.5495  -50.7129 H         1 UNK         0.0600 
    214 H214       -5.7963  -25.2539  -50.6511 H         1 UNK         0.0600 
    215 H215       -7.1309  -22.1876  -51.5650 H         1 UNK         0.3000 
    216 H216       -8.8021  -20.3106  -50.0667 H         1 UNK         0.0600 
    217 H217       -9.7810  -19.8557  -52.2719 H         1 UNK         0.0600 
    218 H218       -9.6413  -21.5918  -52.0695 H         1 UNK         0.0600 
    219 H219       -8.4870  -20.7266  -53.0851 H         1 UNK         0.0600 
    220 H220       -5.6265  -20.1844  -50.7555 H         1 UNK         0.3000 
    221 H221       -4.0501  -18.6496  -50.7255 H         1 UNK         0.0600 
    222 H222       -6.1499  -16.4441  -50.3723 H         1 UNK         0.0600 
    223 H223       -5.3582  -17.3217  -49.0697 H         1 UNK         0.0600 
    224 H224       -4.4112  -16.2971  -50.1284 H         1 UNK         0.0600 
    225 H225       -5.0531  -15.8770  -52.1781 H         1 UNK         0.3000 
    226 H226       -3.6232  -16.3491  -54.5304 H         1 UNK         0.0600 
    227 H227       -3.9761  -14.1107  -53.5322 H         1 UNK         0.0600 
    228 H228       -4.5102  -14.1079  -55.2045 H         1 UNK         0.0600 
    229 H229       -5.6986  -14.1815  -53.9090 H         1 UNK         0.0600 
    230 H230       -6.9249  -17.1956  -53.9318 H         1 UNK         0.3000 
    231 H231       -7.7960  -17.2978  -56.7066 H         1 UNK         0.0600 
    232 H232       -9.4133  -16.9274  -54.8778 H         1 UNK         0.0600 
    233 H233       -8.9725  -18.4599  -54.1296 H         1 UNK         0.0600 
    234 H234       -9.7825  -18.4395  -55.6916 H         1 UNK         0.0600 
    235 H235       -5.8521  -19.3943  -54.7015 H         1 UNK         0.3000 
    236 H236       -6.2270  -21.6762  -56.6144 H         1 UNK         0.0600 
    237 H237       -5.8207  -23.1591  -54.5969 H         1 UNK         0.0600 
    238 H238       -5.9911  -21.7372  -53.5730 H         1 UNK         0.0600 
    239 H239       -7.3466  -22.2911  -54.5522 H         1 UNK         0.0600 
    240 H240       -3.9766  -19.8476  -54.5327 H         1 UNK         0.3000 
    241 H241       -1.6422  -21.3449  -55.1034 H         1 UNK         0.0600 
    242 H242       -0.3119  -20.1917  -58.1967 H         1 UNK         0.3800 
    243 H243       -0.1595  -21.2922  -56.8565 H         1 UNK         0.3800 
    244 H244       -1.8039  -18.3747  -54.3728 H         1 UNK         0.0800 
    245 H245       -2.0409  -19.6586  -53.2251 H         1 UNK         0.0800 
    246 H246        0.0691  -20.9289  -51.9623 H         1 UNK         0.0800 
    247 H247       -0.4183  -19.2901  -51.5780 H         1 UNK         0.0800 
@<TRIPOS>BOND
     1    1    2 1    
     2    1  127 1    
     3    1  128 1    
     4    1  129 1    
     5    2    3 2    
     6    2    4 am   BACKBONE|DICT|INTERRES
     7    4    5 1    
     8    4  130 1    
     9    5    6 1    
    10    5   65 1    
    11    5  131 1    
    12    6    7 1    
    13    6  132 1    
    14    6  133 1    
    15    7    8 1    
    16    8    9 1    
    17    8  134 1    
    18    8  135 1    
    19    9   10 ar   
    20    9   14 ar   
    21   10   11 ar   
    22   10  136 1    
    23   11   12 ar   
    24   11  126 1    
    25   12   13 ar   
    26   12  137 1    
    27   13   14 ar   
    28   13   15 1    
    29   14  138 1    
    30   15   16 1    
    31   15  139 1    
    32   15  140 1    
    33   16   17 1    
    34   17   18 1    
    35   17  141 1    
    36   17  142 1    
    37   18   19 1    
    38   18   67 1    
    39   18  143 1    
    40   19   20 am   BACKBONE|DICT|INTERRES
    41   19  144 1    
    42   20   21 2    
    43   20   22 1    
    44   22   23 1    
    45   22   24 1    
    46   22  145 1    
    47   23  146 1    
    48   23  147 1    
    49   23  148 1    
    50   24   25 am   BACKBONE|DICT|INTERRES
    51   24  149 1    
    52   25   26 2    
    53   25   27 1    
    54   27   28 1    
    55   27   29 1    
    56   27  150 1    
    57   28  151 1    
    58   28  152 1    
    59   28  153 1    
    60   29   30 am   BACKBONE|DICT|INTERRES
    61   29  154 1    
    62   30   31 2    
    63   30   32 1    
    64   32   33 1    
    65   32   34 1    
    66   32  155 1    
    67   33  156 1    
    68   33  157 1    
    69   33  158 1    
    70   34   35 am   BACKBONE|DICT|INTERRES
    71   34  159 1    
    72   35   36 2    
    73   35   37 1    
    74   37   38 1    
    75   37   39 1    
    76   37  160 1    
    77   38  161 1    
    78   38  162 1    
    79   38  163 1    
    80   39   40 am   BACKBONE|DICT|INTERRES
    81   39  164 1    
    82   40   41 2    
    83   40   42 1    
    84   42   43 1    
    85   42   44 1    
    86   42  165 1    
    87   43  166 1    
    88   43  167 1    
    89   43  168 1    
    90   44   45 am   BACKBONE|DICT|INTERRES
    91   44  169 1    
    92   45   46 2    
    93   45   47 1    
    94   47   48 1    
    95   47   49 1    
    96   47  170 1    
    97   48  171 1    
    98   48  172 1    
    99   48  173 1    
   100   49   50 am   BACKBONE|DICT|INTERRES
   101   49  174 1    
   102   50   51 2    
   103   50   52 1    
   104   52   53 1    
   105   52   54 1    
   106   52  175 1    
   107   53  176 1    
   108   53  177 1    
   109   53  178 1    
   110   54   55 am   BACKBONE|DICT|INTERRES
   111   54  179 1    
   112   55   56 2    
   113   55   57 1    
   114   57   58 1    
   115   57   59 1    
   116   57  180 1    
   117   58  181 1    
   118   58  182 1    
   119   58  183 1    
   120   59   60 am   BACKBONE|DICT|INTERRES
   121   59  184 1    
   122   60   61 2    
   123   60   62 1    
   124   62   63 1    
   125   62   64 1    
   126   62  185 1    
   127   63  186 1    
   128   63  187 1    
   129   63  188 1    
   130   64   65 am   BACKBONE|DICT|INTERRES
   131   64  189 1    
   132   65   66 2    
   133   67   68 2    
   134   67   69 am   BACKBONE|DICT|INTERRES
   135   69   70 1    
   136   69  190 1    
   137   70   71 1    
   138   70   72 1    
   139   70  191 1    
   140   71  192 1    
   141   71  193 1    
   142   71  194 1    
   143   72   73 2    
   144   72   74 am   BACKBONE|DICT|INTERRES
   145   74   75 1    
   146   74  195 1    
   147   75   76 1    
   148   75   77 1    
   149   75  196 1    
   150   76  197 1    
   151   76  198 1    
   152   76  199 1    
   153   77   78 2    
   154   77   79 am   BACKBONE|DICT|INTERRES
   155   79   80 1    
   156   79  200 1    
   157   80   81 1    
   158   80   82 1    
   159   80  201 1    
   160   81  202 1    
   161   81  203 1    
   162   81  204 1    
   163   82   83 2    
   164   82   84 am   BACKBONE|DICT|INTERRES
   165   84   85 1    
   166   84  205 1    
   167   85   86 1    
   168   85   87 1    
   169   85  206 1    
   170   86  207 1    
   171   86  208 1    
   172   86  209 1    
   173   87   88 2    
   174   87   89 am   BACKBONE|DICT|INTERRES
   175   89   90 1    
   176   89  210 1    
   177   90   91 1    
   178   90   92 1    
   179   90  211 1    
   180   91  212 1    
   181   91  213 1    
   182   91  214 1    
   183   92   93 2    
   184   92   94 am   BACKBONE|DICT|INTERRES
   185   94   95 1    
   186   94  215 1    
   187   95   96 1    
   188   95   97 1    
   189   95  216 1    
   190   96  217 1    
   191   96  218 1    
   192   96  219 1    
   193   97   98 2    
   194   97   99 am   BACKBONE|DICT|INTERRES
   195   99  100 1    
   196   99  220 1    
   197  100  101 1    
   198  100  102 1    
   199  100  221 1    
   200  101  222 1    
   201  101  223 1    
   202  101  224 1    
   203  102  103 2    
   204  102  104 am   BACKBONE|DICT|INTERRES
   205  104  105 1    
   206  104  225 1    
   207  105  106 1    
   208  105  107 1    
   209  105  226 1    
   210  106  227 1    
   211  106  228 1    
   212  106  229 1    
   213  107  108 2    
   214  107  109 am   BACKBONE|DICT|INTERRES
   215  109  110 1    
   216  109  230 1    
   217  110  111 1    
   218  110  112 1    
   219  110  231 1    
   220  111  232 1    
   221  111  233 1    
   222  111  234 1    
   223  112  113 2    
   224  112  114 am   BACKBONE|DICT|INTERRES
   225  114  115 1    
   226  114  235 1    
   227  115  116 1    
   228  115  117 1    
   229  115  236 1    
   230  116  237 1    
   231  116  238 1    
   232  116  239 1    
   233  117  118 2    
   234  117  119 am   BACKBONE|DICT|INTERRES
   235  119  120 1    
   236  119  240 1    
   237  120  121 1    
   238  120  124 1    
   239  120  241 1    
   240  121  122 am   BACKBONE|DICT|INTERRES
   241  121  123 2    
   242  122  242 1    
   243  122  243 1    
   244  124  125 1    
   245  124  244 1    
   246  124  245 1    
   247  125  126 1    
   248  126  246 1    
   249  126  247 1    
@<TRIPOS>SUBSTRUCTURE
     1 UNK         1 GROUP             0       ****    0 ROOT    
