@<TRIPOS>MOLECULE
3R540
247   249    1
SMALL
USER_CHARGES


@<TRIPOS>ATOM
      1 CA          2.9167  -15.2860  -40.0823 C.3       0 UNK        -0.1800 
      2 C           2.3570  -15.1336  -41.4885 C.2       0 UNK         0.5000 
      3 O           2.7201  -15.9062  -42.3740 O.2       0 UNK        -0.5000 
      4 N           1.4950  -14.1280  -41.6997 N.am      1 UNK        -0.5000 
      5 CA          0.7563  -13.8183  -42.9377 C.3       1 UNK         0.1400 
      6 C6         -0.2002  -14.9591  -43.3860 C.3       23 UNK        -0.0398 
      7 S7         -1.5663  -15.2262  -42.2087 S.3       23 UNK        -0.2404 
      8 C8         -3.0195  -15.1119  -43.3035 C.3       23 UNK        -0.0205 
      9 C9         -3.1520  -16.3366  -44.1989 C.ar      23 UNK        -0.0193 
     10 C10        -2.7676  -16.2851  -45.5435 C.ar      23 UNK        -0.1150 
     11 C11        -2.8862  -17.4155  -46.3596 C.ar      23 UNK        -0.0193 
     12 C12        -3.3923  -18.6012  -45.8220 C.ar      23 UNK        -0.1150 
     13 C13        -3.7935  -18.6601  -44.4848 C.ar      23 UNK        -0.0193 
     14 C14        -3.6728  -17.5250  -43.6790 C.ar      23 UNK        -0.1150 
     15 C15        -4.3537  -19.9531  -43.9128 C.3       23 UNK        -0.0205 
     16 S16        -3.1976  -20.7794  -42.7701 S.3       23 UNK        -0.2404 
     17 C17        -1.6345  -20.8175  -43.7137 C.3       23 UNK        -0.0398 
     18 CA         -1.6551  -21.7576  -44.9423 C.3       11 UNK         0.1400 
     19 N          -0.6149  -21.4038  -45.9169 N.am      11 UNK        -0.5000 
     20 C          -0.4696  -21.9683  -47.1243 C.2       10 UNK         0.5000 
     21 O          -1.2288  -22.8270  -47.5683 O.2       10 UNK        -0.5000 
     22 CA          0.7489  -21.5466  -47.9583 C.3       10 UNK         0.1400 
     23 CB          0.4366  -20.2977  -48.7917 C.3       10 UNK        -0.1800 
     24 N           1.9167  -21.3074  -47.1124 N.am      10 UNK        -0.5000 
     25 C           2.6634  -22.2878  -46.5824 C.2       9 UNK         0.5000 
     26 O           2.4920  -23.4824  -46.8264 O.2       9 UNK        -0.5000 
     27 CA          3.7558  -21.8705  -45.5780 C.3       9 UNK         0.1400 
     28 CB          5.0444  -21.4751  -46.3143 C.3       9 UNK        -0.1800 
     29 N           3.3413  -20.7680  -44.7092 N.am      9 UNK        -0.5000 
     30 C           2.3190  -20.8156  -43.8434 C.2       8 UNK         0.5000 
     31 O           1.6617  -21.8320  -43.6235 O.2       8 UNK        -0.5000 
     32 CA          1.9253  -19.4993  -43.1441 C.3       8 UNK         0.1400 
     33 CB          2.5563  -19.4230  -41.7466 C.3       8 UNK        -0.1800 
     34 N           2.2741  -18.2902  -43.8915 N.am      8 UNK        -0.5000 
     35 C           1.8902  -17.9824  -45.1369 C.2       7 UNK         0.5000 
     36 O           1.1517  -18.6969  -45.8187 O.2       7 UNK        -0.5000 
     37 CA          2.4555  -16.6546  -45.6752 C.3       7 UNK         0.1400 
     38 CB          4.0009  -16.6563  -45.6718 C.3       7 UNK        -0.1800 
     39 N           1.9291  -16.2472  -46.9810 N.am      7 UNK        -0.5000 
     40 C           2.1953  -16.7871  -48.1771 C.2       6 UNK         0.5000 
     41 O           2.8983  -17.7868  -48.3337 O.2       6 UNK        -0.5000 
     42 CA          1.6062  -16.0884  -49.4252 C.3       6 UNK         0.1400 
     43 CB          0.8617  -17.0914  -50.3220 C.3       6 UNK        -0.1800 
     44 N           0.7126  -14.9489  -49.1790 N.am      6 UNK        -0.5000 
     45 C           1.0495  -13.7351  -48.7195 C.2       5 UNK         0.5000 
     46 O           2.1728  -13.4536  -48.3025 O.2       5 UNK        -0.5000 
     47 CA         -0.0461  -12.6503  -48.7559 C.3       5 UNK         0.1400 
     48 CB         -1.4715  -13.2072  -48.9810 C.3       5 UNK        -0.1800 
     49 N          -0.0074  -11.8396  -47.5410 N.am      5 UNK        -0.5000 
     50 C          -0.5615  -10.6257  -47.4196 C.2       4 UNK         0.5000 
     51 O          -1.0943  -10.0192  -48.3502 O.2       4 UNK        -0.5000 
     52 CA         -0.5298   -9.9793  -46.0271 C.3       4 UNK         0.1400 
     53 CB         -1.5027  -10.6905  -45.0702 C.3       4 UNK        -0.1800 
     54 N           0.8152   -9.9993  -45.4599 N.am      4 UNK        -0.5000 
     55 C           1.6982   -8.9952  -45.5555 C.2       3 UNK         0.5000 
     56 O           1.4733   -7.9431  -46.1551 O.2       3 UNK        -0.5000 
     57 CA          3.0543   -9.1759  -44.8434 C.3       3 UNK         0.1400 
     58 CB          3.0779   -8.3825  -43.5274 C.3       3 UNK        -0.1800 
     59 N           3.3535  -10.5774  -44.5511 N.am      3 UNK        -0.5000 
     60 C           3.8399  -11.4492  -45.4434 C.2       2 UNK         0.5000 
     61 O           4.1905  -11.1376  -46.5815 O.2       2 UNK        -0.5000 
     62 CA          3.9317  -12.9184  -44.9904 C.3       2 UNK         0.1400 
     63 CB          5.3475  -13.2444  -44.4921 C.3       2 UNK        -0.1800 
     64 N           2.9656  -13.2784  -43.9461 N.am      2 UNK        -0.5000 
     65 C           1.6375  -13.3343  -44.1146 C.2       1 UNK         0.5000 
     66 O           1.0900  -13.0014  -45.1658 O.2       1 UNK        -0.5000 
     67 C          -1.5866  -23.2431  -44.5282 C.2       11 UNK         0.5000 
     68 O          -2.6147  -23.9201  -44.5155 O.2       11 UNK        -0.5000 
     69 N          -0.3676  -23.7424  -44.2797 N.am      12 UNK        -0.5000 
     70 CA         -0.0714  -25.1463  -43.9804 C.3       12 UNK         0.1400 
     71 CB          1.4146  -25.2715  -43.6123 C.3       12 UNK        -0.1800 
     72 C          -0.4275  -26.1176  -45.1258 C.2       12 UNK         0.5000 
     73 O          -0.7159  -27.2850  -44.8616 O.2       12 UNK        -0.5000 
     74 N          -0.4270  -25.6142  -46.3667 N.am      13 UNK        -0.5000 
     75 CA         -0.8356  -26.3311  -47.5745 C.3       13 UNK         0.1400 
     76 CB          0.0773  -25.8886  -48.7313 C.3       13 UNK        -0.1800 
     77 C          -2.3195  -26.0966  -47.9291 C.2       13 UNK         0.5000 
     78 O          -2.7588  -26.5571  -48.9838 O.2       13 UNK        -0.5000 
     79 N          -3.0584  -25.3561  -47.0867 N.am      14 UNK        -0.5000 
     80 CA         -4.4493  -24.9247  -47.2693 C.3       14 UNK         0.1400 
     81 CB         -5.4081  -26.1310  -47.1902 C.3       14 UNK        -0.1800 
     82 C          -4.6433  -24.0823  -48.5478 C.2       14 UNK         0.5000 
     83 O          -5.6051  -24.2912  -49.2875 O.2       14 UNK        -0.5000 
     84 N          -3.6874  -23.1781  -48.8095 N.am      15 UNK        -0.5000 
     85 CA         -3.5541  -22.3496  -50.0123 C.3       15 UNK         0.1400 
     86 CB         -4.6989  -21.3233  -50.1034 C.3       15 UNK        -0.1800 
     87 C          -3.3833  -23.2045  -51.2857 C.2       15 UNK         0.5000 
     88 O          -3.9885  -22.9130  -52.3211 O.2       15 UNK        -0.5000 
     89 N          -2.5749  -24.2676  -51.1487 N.am      16 UNK        -0.5000 
     90 CA         -2.3297  -25.3484  -52.1086 C.3       16 UNK         0.1400 
     91 CB         -1.5848  -24.8224  -53.3516 C.3       16 UNK        -0.1800 
     92 C          -3.6316  -26.0966  -52.4523 C.2       16 UNK         0.5000 
     93 O          -3.9804  -26.2228  -53.6251 O.2       16 UNK        -0.5000 
     94 N          -4.3626  -26.5169  -51.4090 N.am      17 UNK        -0.5000 
     95 CA         -5.7150  -27.0915  -51.4591 C.3       17 UNK         0.1400 
     96 CB         -5.6715  -28.5218  -52.0342 C.3       17 UNK        -0.1800 
     97 C          -6.7156  -26.1711  -52.1970 C.2       17 UNK         0.5000 
     98 O          -7.4997  -26.6327  -53.0279 O.2       17 UNK        -0.5000 
     99 N          -6.6159  -24.8687  -51.8989 N.am      18 UNK        -0.5000 
    100 CA        -7.3204  -23.7300  -52.4927 C.3       18 UNK         0.1400 
    101 CB        -8.8367  -23.8274  -52.2288 C.3       18 UNK        -0.1800 
    102 C         -7.0034  -23.4563  -53.9809 C.2       18 UNK         0.5000 
    103 O         -7.6562  -22.5941  -54.5711 O.2       18 UNK        -0.5000 
    104 N         -6.0188  -24.1497  -54.5740 N.am      19 UNK        -0.5000 
    105 CA        -5.6394  -23.9757  -55.9785 C.3       19 UNK         0.1400 
    106 CB        -4.8930  -25.2192  -56.4838 C.3       19 UNK        -0.1800 
    107 C         -4.7956  -22.7116  -56.2156 C.2       19 UNK         0.5000 
    108 O         -4.9271  -22.0962  -57.2747 O.2       19 UNK        -0.5000 
    109 N         -3.9526  -22.3406  -55.2405 N.am      20 UNK        -0.5000 
    110 CA        -3.1521  -21.1150  -55.2889 C.3       20 UNK         0.1400 
    111 CB        -1.8529  -21.2978  -54.4884 C.3       20 UNK        -0.1800 
    112 C         -3.9439  -19.9085  -54.7627 C.2       20 UNK         0.5000 
    113 O         -3.7154  -18.7899  -55.2248 O.2       20 UNK        -0.5000 
    114 N         -4.8468  -20.1555  -53.7988 N.am      21 UNK        -0.5000 
    115 CA        -5.7731  -19.1929  -53.1835 C.3       21 UNK         0.1400 
    116 CB        -6.8705  -18.7998  -54.1932 C.3       21 UNK        -0.1800 
    117 C         -5.0696  -17.9648  -52.5586 C.2       21 UNK         0.5000 
    118 O         -5.6271  -16.8662  -52.5608 O.2       21 UNK        -0.5000 
    119 N         -3.8435  -18.1816  -52.0612 N.am      22 UNK        -0.5000 
    120 CA        -2.9079  -17.1692  -51.5411 C.3       22 UNK         0.1400 
    121 C         -2.3117  -16.2176  -52.6255 C.2       22 UNK         0.5000 
    122 N         -2.4536  -16.4930  -53.9167 N.am      22 UNK        -0.7600 
    123 O         -1.6725  -15.2241  -52.2911 O.2       22 UNK        -0.5000 
    124 C124       -3.4481  -16.3874  -50.3102 C.3       23 UNK        -0.0398 
    125 S125       -3.9342  -17.4573  -48.9147 S.3       23 UNK        -0.2404 
    126 C126       -2.4768  -17.3608  -47.8229 C.3       23 UNK        -0.0205 
    127 H127        4.0027  -15.1960  -40.0996 H         1 UNK         0.0600 
    128 H128        2.6614  -16.2679  -39.6841 H         1 UNK         0.0600 
    129 H129        2.5218  -14.5298  -39.4035 H         1 UNK         0.0600 
    130 H130        1.2672  -13.5275  -40.9194 H         1 UNK         0.3000 
    131 H131        0.1360  -12.9541  -42.6947 H         1 UNK         0.0600 
    132 H132       -0.6285  -14.7407  -44.3646 H         1 UNK         0.0800 
    133 H133        0.3303  -15.9034  -43.4989 H         1 UNK         0.0800 
    134 H134       -3.9153  -15.0191  -42.6876 H         1 UNK         0.0800 
    135 H135       -2.9655  -14.1978  -43.8971 H         1 UNK         0.0800 
    136 H136       -2.3789  -15.3646  -45.9553 H         1 UNK         0.1150 
    137 H137       -3.4839  -19.4735  -46.4538 H         1 UNK         0.1150 
    138 H138       -3.9736  -17.5707  -42.6416 H         1 UNK         0.1150 
    139 H139       -5.2792  -19.7361  -43.3777 H         1 UNK         0.0800 
    140 H140       -4.6265  -20.6434  -44.7122 H         1 UNK         0.0800 
    141 H141       -0.8422  -21.1054  -43.0223 H         1 UNK         0.0800 
    142 H142       -1.3969  -19.7979  -44.0194 H         1 UNK         0.0800 
    143 H143       -2.6034  -21.6199  -45.4639 H         1 UNK         0.0600 
    144 H144        0.0434  -20.6838  -45.6485 H         1 UNK         0.3000 
    145 H145        0.9751  -22.3605  -48.6507 H         1 UNK         0.0600 
    146 H146        1.2764  -20.0450  -49.4384 H         1 UNK         0.0600 
    147 H147       -0.4322  -20.4565  -49.4315 H         1 UNK         0.0600 
    148 H148        0.2294  -19.4333  -48.1620 H         1 UNK         0.0600 
    149 H149        2.0803  -20.3470  -46.8325 H         1 UNK         0.3000 
    150 H150        3.9715  -22.7336  -44.9446 H         1 UNK         0.0600 
    151 H151        5.3894  -22.2846  -46.9590 H         1 UNK         0.0600 
    152 H152        5.8487  -21.2551  -45.6120 H         1 UNK         0.0600 
    153 H153        4.8958  -20.5953  -46.9421 H         1 UNK         0.0600 
    154 H154        3.8250  -19.8902  -44.8255 H         1 UNK         0.3000 
    155 H155        0.8424  -19.4975  -43.0247 H         1 UNK         0.0600 
    156 H156        2.2996  -20.3007  -41.1518 H         1 UNK         0.0600 
    157 H157        2.2017  -18.5479  -41.2017 H         1 UNK         0.0600 
    158 H158        3.6442  -19.3668  -41.7997 H         1 UNK         0.0600 
    159 H159        2.7875  -17.5848  -43.3698 H         1 UNK         0.3000 
    160 H160        2.1303  -15.8824  -44.9863 H         1 UNK         0.0600 
    161 H161        4.4083  -17.5314  -46.1792 H         1 UNK         0.0600 
    162 H162        4.3927  -16.6601  -44.6542 H         1 UNK         0.0600 
    163 H163        4.4032  -15.7729  -46.1660 H         1 UNK         0.0600 
    164 H164        1.3457  -15.4236  -46.9760 H         1 UNK         0.3000 
    165 H165        2.4611  -15.7112  -49.9899 H         1 UNK         0.0600 
    166 H166        0.5292  -16.6211  -51.2472 H         1 UNK         0.0600 
    167 H167        1.5064  -17.9237  -50.6059 H         1 UNK         0.0600 
    168 H168       -0.0120  -17.5052  -49.8190 H         1 UNK         0.0600 
    169 H169       -0.2339  -15.0668  -49.5074 H         1 UNK         0.3000 
    170 H170        0.2036  -12.0051  -49.6005 H         1 UNK         0.0600 
    171 H171       -1.5485  -13.6977  -49.9509 H         1 UNK         0.0600 
    172 H172       -1.7560  -13.9197  -48.2060 H         1 UNK         0.0600 
    173 H173       -2.2187  -12.4140  -48.9843 H         1 UNK         0.0600 
    174 H174        0.4599  -12.2628  -46.7412 H         1 UNK         0.3000 
    175 H175       -0.8707   -8.9466  -46.1294 H         1 UNK         0.0600 
    176 H176       -1.2447  -11.7393  -44.9230 H         1 UNK         0.0600 
    177 H177       -1.5139  -10.2092  -44.0922 H         1 UNK         0.0600 
    178 H178       -2.5213  -10.6583  -45.4590 H         1 UNK         0.0600 
    179 H179        1.1060  -10.8646  -45.0263 H         1 UNK         0.3000 
    180 H180        3.8297   -8.7721  -45.4981 H         1 UNK         0.0600 
    181 H181        2.3197   -8.7378  -42.8284 H         1 UNK         0.0600 
    182 H182        2.8887   -7.3231  -43.7061 H         1 UNK         0.0600 
    183 H183        4.0492   -8.4591  -43.0381 H         1 UNK         0.0600 
    184 H184        3.1159  -10.9142  -43.6297 H         1 UNK         0.3000 
    185 H185        3.7224  -13.5350  -45.8666 H         1 UNK         0.0600 
    186 H186        5.6093  -12.6553  -43.6123 H         1 UNK         0.0600 
    187 H187        5.4422  -14.2982  -44.2299 H         1 UNK         0.0600 
    188 H188        6.0906  -13.0339  -45.2623 H         1 UNK         0.0600 
    189 H189        3.3440  -13.5881  -43.0625 H         1 UNK         0.3000 
    190 H190        0.4227  -23.1020  -44.2575 H         1 UNK         0.3000 
    191 H191       -0.6664  -25.4329  -43.1110 H         1 UNK         0.0600 
    192 H192        2.0589  -24.9677  -44.4383 H         1 UNK         0.0600 
    193 H193        1.6612  -24.6505  -42.7509 H         1 UNK         0.0600 
    194 H194        1.6703  -26.3004  -43.3558 H         1 UNK         0.0600 
    195 H195       -0.1936  -24.6381  -46.4895 H         1 UNK         0.3000 
    196 H196       -0.7028  -27.4051  -47.4307 H         1 UNK         0.0600 
    197 H197        1.1278  -26.0432  -48.4840 H         1 UNK         0.0600 
    198 H198       -0.0549  -24.8336  -48.9722 H         1 UNK         0.0600 
    199 H199       -0.1275  -26.4617  -49.6361 H         1 UNK         0.0600 
    200 H200       -2.6135  -25.0019  -46.2471 H         1 UNK         0.3000 
    201 H201       -4.6801  -24.2637  -46.4329 H         1 UNK         0.0600 
    202 H202       -6.4487  -25.8057  -47.2151 H         1 UNK         0.0600 
    203 H203       -5.2648  -26.6859  -46.2631 H         1 UNK         0.0600 
    204 H204       -5.2625  -26.8228  -48.0200 H         1 UNK         0.0600 
    205 H205       -2.8976  -23.1186  -48.1683 H         1 UNK         0.3000 
    206 H206       -2.6244  -21.7908  -49.8982 H         1 UNK         0.0600 
    207 H207       -4.7585  -20.7201  -49.1973 H         1 UNK         0.0600 
    208 H208       -5.6675  -21.7985  -50.2536 H         1 UNK         0.0600 
    209 H209       -4.5347  -20.6399  -50.9326 H         1 UNK         0.0600 
    210 H210       -2.1786  -24.4195  -50.2327 H         1 UNK         0.3000 
    211 H211       -1.6782  -26.0683  -51.6116 H         1 UNK         0.0600 
    212 H212       -0.6888  -24.2682  -53.0724 H         1 UNK         0.0600 
    213 H213       -1.2727  -25.6468  -53.9935 H         1 UNK         0.0600 
    214 H214       -2.2131  -24.1669  -53.9522 H         1 UNK         0.0600 
    215 H215       -3.9669  -26.3951  -50.4801 H         1 UNK         0.3000 
    216 H216       -6.0621  -27.1570  -50.4272 H         1 UNK         0.0600 
    217 H217       -6.6513  -28.9970  -51.9745 H         1 UNK         0.0600 
    218 H218       -5.3675  -28.5283  -53.0815 H         1 UNK         0.0600 
    219 H219       -4.9733  -29.1477  -51.4786 H         1 UNK         0.0600 
    220 H220       -5.9780  -24.6211  -51.1468 H         1 UNK         0.3000 
    221 H221       -6.9552  -22.8546  -51.9558 H         1 UNK         0.0600 
    222 H222       -9.2943  -24.6431  -52.7891 H         1 UNK         0.0600 
    223 H223       -9.0426  -23.9888  -51.1706 H         1 UNK         0.0600 
    224 H224       -9.3461  -22.9078  -52.5190 H         1 UNK         0.0600 
    225 H225       -5.4971  -24.8376  -54.0418 H         1 UNK         0.3000 
    226 H226       -6.5536  -23.8815  -56.5687 H         1 UNK         0.0600 
    227 H227       -5.4447  -26.1329  -56.2616 H         1 UNK         0.0600 
    228 H228       -4.7566  -25.1744  -57.5648 H         1 UNK         0.0600 
    229 H229       -3.9019  -25.3051  -56.0379 H         1 UNK         0.0600 
    230 H230       -3.9341  -22.8670  -54.3732 H         1 UNK         0.3000 
    231 H231       -2.8729  -20.9026  -56.3232 H         1 UNK         0.0600 
    232 H232       -1.2384  -20.3978  -54.5362 H         1 UNK         0.0600 
    233 H233       -1.2555  -22.1159  -54.8904 H         1 UNK         0.0600 
    234 H234       -2.0436  -21.5043  -53.4360 H         1 UNK         0.0600 
    235 H235       -4.9160  -21.1087  -53.4665 H         1 UNK         0.3000 
    236 H236       -6.2611  -19.7157  -52.3601 H         1 UNK         0.0600 
    237 H237       -7.3604  -19.6827  -54.6044 H         1 UNK         0.0600 
    238 H238       -7.6432  -18.1936  -53.7191 H         1 UNK         0.0600 
    239 H239       -6.4650  -18.2237  -55.0255 H         1 UNK         0.0600 
    240 H240       -3.4719  -19.1161  -52.1325 H         1 UNK         0.3000 
    241 H241       -2.0482  -17.7422  -51.1945 H         1 UNK         0.0600 
    242 H242       -2.0484  -15.8683  -54.5950 H         1 UNK         0.3800 
    243 H243       -2.9686  -17.3073  -54.2385 H         1 UNK         0.3800 
    244 H244       -2.7072  -15.6753  -49.9542 H         1 UNK         0.0800 
    245 H245       -4.3120  -15.7841  -50.5904 H         1 UNK         0.0800 
    246 H246       -1.9063  -16.4519  -48.0132 H         1 UNK         0.0800 
    247 H247       -1.8099  -18.1937  -48.0454 H         1 UNK         0.0800 
@<TRIPOS>BOND
     1    1    2 1    
     2    1  127 1    
     3    1  128 1    
     4    1  129 1    
     5    2    3 2    
     6    2    4 am   BACKBONE|DICT|INTERRES
     7    4    5 1    
     8    4  130 1    
     9    5    6 1    
    10    5   65 1    
    11    5  131 1    
    12    6    7 1    
    13    6  132 1    
    14    6  133 1    
    15    7    8 1    
    16    8    9 1    
    17    8  134 1    
    18    8  135 1    
    19    9   10 ar   
    20    9   14 ar   
    21   10   11 ar   
    22   10  136 1    
    23   11   12 ar   
    24   11  126 1    
    25   12   13 ar   
    26   12  137 1    
    27   13   14 ar   
    28   13   15 1    
    29   14  138 1    
    30   15   16 1    
    31   15  139 1    
    32   15  140 1    
    33   16   17 1    
    34   17   18 1    
    35   17  141 1    
    36   17  142 1    
    37   18   19 1    
    38   18   67 1    
    39   18  143 1    
    40   19   20 am   BACKBONE|DICT|INTERRES
    41   19  144 1    
    42   20   21 2    
    43   20   22 1    
    44   22   23 1    
    45   22   24 1    
    46   22  145 1    
    47   23  146 1    
    48   23  147 1    
    49   23  148 1    
    50   24   25 am   BACKBONE|DICT|INTERRES
    51   24  149 1    
    52   25   26 2    
    53   25   27 1    
    54   27   28 1    
    55   27   29 1    
    56   27  150 1    
    57   28  151 1    
    58   28  152 1    
    59   28  153 1    
    60   29   30 am   BACKBONE|DICT|INTERRES
    61   29  154 1    
    62   30   31 2    
    63   30   32 1    
    64   32   33 1    
    65   32   34 1    
    66   32  155 1    
    67   33  156 1    
    68   33  157 1    
    69   33  158 1    
    70   34   35 am   BACKBONE|DICT|INTERRES
    71   34  159 1    
    72   35   36 2    
    73   35   37 1    
    74   37   38 1    
    75   37   39 1    
    76   37  160 1    
    77   38  161 1    
    78   38  162 1    
    79   38  163 1    
    80   39   40 am   BACKBONE|DICT|INTERRES
    81   39  164 1    
    82   40   41 2    
    83   40   42 1    
    84   42   43 1    
    85   42   44 1    
    86   42  165 1    
    87   43  166 1    
    88   43  167 1    
    89   43  168 1    
    90   44   45 am   BACKBONE|DICT|INTERRES
    91   44  169 1    
    92   45   46 2    
    93   45   47 1    
    94   47   48 1    
    95   47   49 1    
    96   47  170 1    
    97   48  171 1    
    98   48  172 1    
    99   48  173 1    
   100   49   50 am   BACKBONE|DICT|INTERRES
   101   49  174 1    
   102   50   51 2    
   103   50   52 1    
   104   52   53 1    
   105   52   54 1    
   106   52  175 1    
   107   53  176 1    
   108   53  177 1    
   109   53  178 1    
   110   54   55 am   BACKBONE|DICT|INTERRES
   111   54  179 1    
   112   55   56 2    
   113   55   57 1    
   114   57   58 1    
   115   57   59 1    
   116   57  180 1    
   117   58  181 1    
   118   58  182 1    
   119   58  183 1    
   120   59   60 am   BACKBONE|DICT|INTERRES
   121   59  184 1    
   122   60   61 2    
   123   60   62 1    
   124   62   63 1    
   125   62   64 1    
   126   62  185 1    
   127   63  186 1    
   128   63  187 1    
   129   63  188 1    
   130   64   65 am   BACKBONE|DICT|INTERRES
   131   64  189 1    
   132   65   66 2    
   133   67   68 2    
   134   67   69 am   BACKBONE|DICT|INTERRES
   135   69   70 1    
   136   69  190 1    
   137   70   71 1    
   138   70   72 1    
   139   70  191 1    
   140   71  192 1    
   141   71  193 1    
   142   71  194 1    
   143   72   73 2    
   144   72   74 am   BACKBONE|DICT|INTERRES
   145   74   75 1    
   146   74  195 1    
   147   75   76 1    
   148   75   77 1    
   149   75  196 1    
   150   76  197 1    
   151   76  198 1    
   152   76  199 1    
   153   77   78 2    
   154   77   79 am   BACKBONE|DICT|INTERRES
   155   79   80 1    
   156   79  200 1    
   157   80   81 1    
   158   80   82 1    
   159   80  201 1    
   160   81  202 1    
   161   81  203 1    
   162   81  204 1    
   163   82   83 2    
   164   82   84 am   BACKBONE|DICT|INTERRES
   165   84   85 1    
   166   84  205 1    
   167   85   86 1    
   168   85   87 1    
   169   85  206 1    
   170   86  207 1    
   171   86  208 1    
   172   86  209 1    
   173   87   88 2    
   174   87   89 am   BACKBONE|DICT|INTERRES
   175   89   90 1    
   176   89  210 1    
   177   90   91 1    
   178   90   92 1    
   179   90  211 1    
   180   91  212 1    
   181   91  213 1    
   182   91  214 1    
   183   92   93 2    
   184   92   94 am   BACKBONE|DICT|INTERRES
   185   94   95 1    
   186   94  215 1    
   187   95   96 1    
   188   95   97 1    
   189   95  216 1    
   190   96  217 1    
   191   96  218 1    
   192   96  219 1    
   193   97   98 2    
   194   97   99 am   BACKBONE|DICT|INTERRES
   195   99  100 1    
   196   99  220 1    
   197  100  101 1    
   198  100  102 1    
   199  100  221 1    
   200  101  222 1    
   201  101  223 1    
   202  101  224 1    
   203  102  103 2    
   204  102  104 am   BACKBONE|DICT|INTERRES
   205  104  105 1    
   206  104  225 1    
   207  105  106 1    
   208  105  107 1    
   209  105  226 1    
   210  106  227 1    
   211  106  228 1    
   212  106  229 1    
   213  107  108 2    
   214  107  109 am   BACKBONE|DICT|INTERRES
   215  109  110 1    
   216  109  230 1    
   217  110  111 1    
   218  110  112 1    
   219  110  231 1    
   220  111  232 1    
   221  111  233 1    
   222  111  234 1    
   223  112  113 2    
   224  112  114 am   BACKBONE|DICT|INTERRES
   225  114  115 1    
   226  114  235 1    
   227  115  116 1    
   228  115  117 1    
   229  115  236 1    
   230  116  237 1    
   231  116  238 1    
   232  116  239 1    
   233  117  118 2    
   234  117  119 am   BACKBONE|DICT|INTERRES
   235  119  120 1    
   236  119  240 1    
   237  120  121 1    
   238  120  124 1    
   239  120  241 1    
   240  121  122 am   BACKBONE|DICT|INTERRES
   241  121  123 2    
   242  122  242 1    
   243  122  243 1    
   244  124  125 1    
   245  124  244 1    
   246  124  245 1    
   247  125  126 1    
   248  126  246 1    
   249  126  247 1    
@<TRIPOS>SUBSTRUCTURE
     1 UNK         1 GROUP             0       ****    0 ROOT    
