@<TRIPOS>MOLECULE
3R540
247   249    1
SMALL
USER_CHARGES


@<TRIPOS>ATOM
      1 CA         -2.0119  -14.2735  -47.1953 C.3       0 UNK        -0.1800 
      2 C          -1.2308  -13.0243  -47.5722 C.2       0 UNK         0.5000 
      3 O          -1.7184  -11.9137  -47.3657 O.2       0 UNK        -0.5000 
      4 N          -0.0187  -13.1902  -48.1157 N.am      1 UNK        -0.5000 
      5 CA          0.8459  -12.1248  -48.6427 C.3       1 UNK         0.1400 
      6 C6          1.7713  -12.6522  -49.7709 C.3       23 UNK        -0.0398 
      7 S7          2.8804  -14.0219  -49.2727 S.3       23 UNK        -0.2404 
      8 C8          2.7214  -15.1688  -50.6795 C.3       23 UNK        -0.0205 
      9 C9          1.7895  -16.3317  -50.3707 C.ar      23 UNK        -0.0193 
     10 C10         0.4065  -16.1370  -50.2939 C.ar      23 UNK        -0.1150 
     11 C11        -0.4460  -17.2110  -50.0196 C.ar      23 UNK        -0.0193 
     12 C12         0.0928  -18.4892  -49.8375 C.ar      23 UNK        -0.1150 
     13 C13         1.4716  -18.7012  -49.9370 C.ar      23 UNK        -0.0193 
     14 C14         2.3138  -17.6160  -50.1918 C.ar      23 UNK        -0.1150 
     15 C15         2.0468  -20.1090  -49.8383 C.3       23 UNK        -0.0205 
     16 S16         3.0012  -20.4103  -48.3111 S.3       23 UNK        -0.2404 
     17 C17         1.7408  -20.2584  -47.0034 C.3       23 UNK        -0.0398 
     18 CA          1.0812  -21.6003  -46.5938 C.3       11 UNK         0.1400 
     19 N           0.5402  -21.5444  -45.2286 N.am      11 UNK        -0.5000 
     20 C          -0.0350  -22.5734  -44.5850 C.2       10 UNK         0.5000 
     21 O          -0.1295  -23.7111  -45.0447 O.2       10 UNK        -0.5000 
     22 CA         -0.6691  -22.2589  -43.2209 C.3       10 UNK         0.1400 
     23 CB          0.3748  -22.3366  -42.1008 C.3       10 UNK        -0.1800 
     24 N          -1.3146  -20.9463  -43.1980 N.am      10 UNK        -0.5000 
     25 C          -2.4318  -20.6392  -43.8709 C.2       9 UNK         0.5000 
     26 O          -2.9912  -21.4279  -44.6329 O.2       9 UNK        -0.5000 
     27 CA         -3.0041  -19.2160  -43.7187 C.3       9 UNK         0.1400 
     28 CB         -4.5154  -19.2317  -43.4147 C.3       9 UNK        -0.1800 
     29 N          -2.2735  -18.3605  -42.7758 N.am      9 UNK        -0.5000 
     30 C          -2.1954  -18.4520  -41.4380 C.2       8 UNK         0.5000 
     31 O          -2.7774  -19.3116  -40.7767 O.2       8 UNK        -0.5000 
     32 CA         -1.2879  -17.4357  -40.7101 C.3       8 UNK         0.1400 
     33 CB         -0.1320  -18.1538  -39.9923 C.3       8 UNK        -0.1800 
     34 N          -0.7227  -16.4312  -41.6133 N.am      8 UNK        -0.5000 
     35 C          -1.3418  -15.3086  -42.0035 C.2       7 UNK         0.5000 
     36 O          -2.4324  -14.9420  -41.5660 O.2       7 UNK        -0.5000 
     37 CA         -0.6369  -14.4707  -43.0906 C.3       7 UNK         0.1400 
     38 CB          0.1489  -13.3189  -42.4526 C.3       7 UNK        -0.1800 
     39 N           0.2663  -15.2487  -43.9460 N.am      7 UNK        -0.5000 
     40 C          -0.1190  -16.2380  -44.7625 C.2       6 UNK         0.5000 
     41 O          -1.2896  -16.5830  -44.9097 O.2       6 UNK        -0.5000 
     42 CA          0.9899  -17.0340  -45.4639 C.3       6 UNK         0.1400 
     43 CB          1.5066  -16.3090  -46.7125 C.3       6 UNK        -0.1800 
     44 N           2.1052  -17.3413  -44.5683 N.am      6 UNK        -0.5000 
     45 C           2.0356  -18.1971  -43.5384 C.2       5 UNK         0.5000 
     46 O           1.0252  -18.8569  -43.2862 O.2       5 UNK        -0.5000 
     47 CA          3.2892  -18.3533  -42.6495 C.3       5 UNK         0.1400 
     48 CB          3.5575  -19.8292  -42.3193 C.3       5 UNK        -0.1800 
     49 N           4.4941  -17.7972  -43.2733 N.am      5 UNK        -0.5000 
     50 C           5.0231  -16.5748  -43.1281 C.2       4 UNK         0.5000 
     51 O           6.0588  -16.2633  -43.7174 O.2       4 UNK        -0.5000 
     52 CA          4.3508  -15.5338  -42.2020 C.3       4 UNK         0.1400 
     53 CB          4.9294  -15.6149  -40.7812 C.3       4 UNK        -0.1800 
     54 N           4.5656  -14.1870  -42.7281 N.am      4 UNK        -0.5000 
     55 C           3.8920  -13.6878  -43.7694 C.2       3 UNK         0.5000 
     56 O           2.9165  -14.2494  -44.2752 O.2       3 UNK        -0.5000 
     57 CA          4.4368  -12.3820  -44.3733 C.3       3 UNK         0.1400 
     58 CB          5.5187  -12.6955  -45.4180 C.3       3 UNK        -0.1800 
     59 N           3.3805  -11.6127  -45.0216 N.am      3 UNK        -0.5000 
     60 C           2.4563  -10.8810  -44.3942 C.2       2 UNK         0.5000 
     61 O           2.4570  -10.6939  -43.1768 O.2       2 UNK        -0.5000 
     62 CA          1.3289  -10.2599  -45.2473 C.3       2 UNK         0.1400 
     63 CB          1.6682   -8.8069  -45.6302 C.3       2 UNK        -0.1800 
     64 N           0.9148  -11.0350  -46.4290 N.am      2 UNK        -0.5000 
     65 C           1.5971  -11.3256  -47.5462 C.2       1 UNK         0.5000 
     66 O           2.7690  -10.9900  -47.7232 O.2       1 UNK        -0.5000 
     67 C          -0.0069  -21.9986  -47.6112 C.2       11 UNK         0.5000 
     68 O           0.2312  -22.8454  -48.4716 O.2       11 UNK        -0.5000 
     69 N          -1.1885  -21.3818  -47.4680 N.am      12 UNK        -0.5000 
     70 CA         -2.3613  -21.6410  -48.2917 C.3       12 UNK         0.1400 
     71 CB         -3.4074  -20.5420  -48.0479 C.3       12 UNK        -0.1800 
     72 C          -2.9358  -23.0393  -48.0226 C.2       12 UNK         0.5000 
     73 O          -3.1094  -23.8070  -48.9681 O.2       12 UNK        -0.5000 
     74 N          -3.1921  -23.3565  -46.7456 N.am      13 UNK        -0.5000 
     75 CA         -3.7862  -24.6169  -46.2905 C.3       13 UNK         0.1400 
     76 CB         -3.9720  -24.5731  -44.7668 C.3       13 UNK        -0.1800 
     77 C          -2.9877  -25.8672  -46.7006 C.2       13 UNK         0.5000 
     78 O          -3.5873  -26.8634  -47.1065 O.2       13 UNK        -0.5000 
     79 N          -1.6525  -25.7760  -46.6389 N.am      14 UNK        -0.5000 
     80 CA         -0.7253  -26.8293  -47.0583 C.3       14 UNK         0.1400 
     81 CB          0.6787  -26.4859  -46.5368 C.3       14 UNK        -0.1800 
     82 C          -0.6833  -27.0647  -48.5833 C.2       14 UNK         0.5000 
     83 O          -0.1573  -28.0924  -49.0129 O.2       14 UNK        -0.5000 
     84 N          -1.2139  -26.1201  -49.3700 N.am      15 UNK        -0.5000 
     85 CA         -1.1561  -26.1019  -50.8299 C.3       15 UNK         0.1400 
     86 CB         -0.2651  -24.9226  -51.2579 C.3       15 UNK        -0.1800 
     87 C          -2.5575  -26.0362  -51.4677 C.2       15 UNK         0.5000 
     88 O          -2.6738  -25.5964  -52.6115 O.2       15 UNK        -0.5000 
     89 N          -3.5991  -26.4581  -50.7324 N.am      16 UNK        -0.5000 
     90 CA         -5.0103  -26.4939  -51.1477 C.3       16 UNK         0.1400 
     91 CB         -5.2247  -27.5407  -52.2611 C.3       16 UNK        -0.1800 
     92 C          -5.5463  -25.0968  -51.5272 C.2       16 UNK         0.5000 
     93 O          -6.0083  -24.8774  -52.6494 O.2       16 UNK        -0.5000 
     94 N          -5.4046  -24.1594  -50.5811 N.am      17 UNK        -0.5000 
     95 CA         -5.6759  -22.7231  -50.7013 C.3       17 UNK         0.1400 
     96 CB         -7.1789  -22.4491  -50.9118 C.3       17 UNK        -0.1800 
     97 C          -4.7627  -22.0397  -51.7415 C.2       17 UNK         0.5000 
     98 O          -5.1956  -21.1150  -52.4283 O.2       17 UNK        -0.5000 
     99 N          -3.5191  -22.5355  -51.8463 N.am      18 UNK        -0.5000 
    100 CA        -2.5056  -22.1967  -52.8534 C.3       18 UNK         0.1400 
    101 CB        -1.9929  -20.7592  -52.6482 C.3       18 UNK        -0.1800 
    102 C         -3.0172  -22.4564  -54.2847 C.2       18 UNK         0.5000 
    103 O         -2.9980  -21.5577  -55.1247 O.2       18 UNK        -0.5000 
    104 N         -3.5311  -23.6739  -54.5122 N.am      19 UNK        -0.5000 
    105 CA        -4.2471  -24.1172  -55.7151 C.3       19 UNK         0.1400 
    106 CB        -3.2746  -24.2621  -56.9035 C.3       19 UNK        -0.1800 
    107 C         -5.4635  -23.2171  -56.0295 C.2       19 UNK         0.5000 
    108 O         -5.6764  -22.8290  -57.1793 O.2       19 UNK        -0.5000 
    109 N         -6.2053  -22.8712  -54.9684 N.am      20 UNK        -0.5000 
    110 CA        -7.3457  -21.9512  -54.9072 C.3       20 UNK         0.1400 
    111 CB        -8.5030  -22.4418  -55.8011 C.3       20 UNK        -0.1800 
    112 C         -7.0194  -20.4596  -55.1505 C.2       20 UNK         0.5000 
    113 O         -7.9433  -19.6453  -55.1041 O.2       20 UNK        -0.5000 
    114 N         -5.7462  -20.0918  -55.3654 N.am      21 UNK        -0.5000 
    115 CA        -5.3244  -18.7096  -55.6232 C.3       21 UNK         0.1400 
    116 CB        -3.8808  -18.6908  -56.1459 C.3       21 UNK        -0.1800 
    117 C         -5.4605  -17.7801  -54.4015 C.2       21 UNK         0.5000 
    118 O         -5.6771  -16.5810  -54.5835 O.2       21 UNK        -0.5000 
    119 N         -5.3516  -18.3433  -53.1928 N.am      22 UNK        -0.5000 
    120 CA        -5.5513  -17.6468  -51.9113 C.3       22 UNK         0.1400 
    121 C         -6.9686  -17.8932  -51.3115 C.2       22 UNK         0.5000 
    122 N         -7.8999  -18.5207  -52.0221 N.am      22 UNK        -0.7600 
    123 O         -7.2414  -17.4905  -50.1840 O.2       22 UNK        -0.5000 
    124 C124       -4.4274  -17.9799  -50.8932 C.3       23 UNK        -0.0398 
    125 S125       -2.7697  -17.4847  -51.4804 S.3       23 UNK        -0.2404 
    126 C126       -1.9496  -17.0005  -49.9308 C.3       23 UNK        -0.0205 
    127 H127       -2.9505  -14.3083  -47.7481 H         1 UNK         0.0600 
    128 H128       -2.2456  -14.2632  -46.1311 H         1 UNK         0.0600 
    129 H129       -1.4569  -15.1845  -47.4151 H         1 UNK         0.0600 
    130 H130        0.3591  -14.1209  -48.2165 H         1 UNK         0.3000 
    131 H131        0.1924  -11.3890  -49.1163 H         1 UNK         0.0600 
    132 H132        1.1459  -12.9804  -50.6013 H         1 UNK         0.0800 
    133 H133        2.3822  -11.8453  -50.1793 H         1 UNK         0.0800 
    134 H134        2.3788  -14.6464  -51.5734 H         1 UNK         0.0800 
    135 H135        3.7174  -15.5420  -50.9222 H         1 UNK         0.0800 
    136 H136       -0.0065  -15.1509  -50.4503 H         1 UNK         0.1150 
    137 H137       -0.5680  -19.3231  -49.6476 H         1 UNK         0.1150 
    138 H138        3.3797  -17.7791  -50.2690 H         1 UNK         0.1150 
    139 H139        1.2578  -20.8541  -49.9374 H         1 UNK         0.0800 
    140 H140        2.7086  -20.2727  -50.6899 H         1 UNK         0.0800 
    141 H141        0.9977  -19.5184  -47.2981 H         1 UNK         0.0800 
    142 H142        2.2611  -19.8330  -46.1450 H         1 UNK         0.0800 
    143 H143        1.8438  -22.3821  -46.5971 H         1 UNK         0.0600 
    144 H144        0.5741  -20.6528  -44.7516 H         1 UNK         0.3000 
    145 H145       -1.4324  -23.0144  -43.0243 H         1 UNK         0.0600 
    146 H146       -0.0743  -22.1457  -41.1259 H         1 UNK         0.0600 
    147 H147        0.8340  -23.3252  -42.0623 H         1 UNK         0.0600 
    148 H148        1.1702  -21.6105  -42.2536 H         1 UNK         0.0600 
    149 H149       -0.8682  -20.2235  -42.6506 H         1 UNK         0.3000 
    150 H150       -2.8797  -18.7481  -44.6959 H         1 UNK         0.0600 
    151 H151       -4.9108  -18.2197  -43.3286 H         1 UNK         0.0600 
    152 H152       -5.0683  -19.7279  -44.2133 H         1 UNK         0.0600 
    153 H153       -4.7403  -19.7620  -42.4892 H         1 UNK         0.0600 
    154 H154       -1.7546  -17.6150  -43.2261 H         1 UNK         0.3000 
    155 H155       -1.8977  -16.9363  -39.9544 H         1 UNK         0.0600 
    156 H156        0.4905  -18.7186  -40.6860 H         1 UNK         0.0600 
    157 H157       -0.5106  -18.8572  -39.2497 H         1 UNK         0.0600 
    158 H158        0.5082  -17.4448  -39.4670 H         1 UNK         0.0600 
    159 H159        0.1603  -16.6609  -42.0428 H         1 UNK         0.3000 
    160 H160       -1.4149  -14.0425  -43.7258 H         1 UNK         0.0600 
    161 H161        0.9929  -13.6807  -41.8641 H         1 UNK         0.0600 
    162 H162       -0.4847  -12.7232  -41.7941 H         1 UNK         0.0600 
    163 H163        0.5353  -12.6510  -43.2193 H         1 UNK         0.0600 
    164 H164        1.2487  -14.9805  -43.9408 H         1 UNK         0.3000 
    165 H165        0.5394  -17.9740  -45.7796 H         1 UNK         0.0600 
    166 H166        2.2755  -16.8934  -47.2184 H         1 UNK         0.0600 
    167 H167        0.7014  -16.1547  -47.4286 H         1 UNK         0.0600 
    168 H168        1.9299  -15.3327  -46.4760 H         1 UNK         0.0600 
    169 H169        2.9606  -16.8270  -44.7232 H         1 UNK         0.3000 
    170 H170        3.0844  -17.8543  -41.7023 H         1 UNK         0.0600 
    171 H171        2.7920  -20.2156  -41.6478 H         1 UNK         0.0600 
    172 H172        3.5691  -20.4534  -43.2141 H         1 UNK         0.0600 
    173 H173        4.5129  -19.9552  -41.8093 H         1 UNK         0.0600 
    174 H174        4.9718  -18.4321  -43.8964 H         1 UNK         0.3000 
    175 H175        3.2745  -15.7025  -42.1519 H         1 UNK         0.0600 
    176 H176        6.0039  -15.4274  -40.7724 H         1 UNK         0.0600 
    177 H177        4.4567  -14.8871  -40.1213 H         1 UNK         0.0600 
    178 H178        4.7664  -16.6014  -40.3458 H         1 UNK         0.0600 
    179 H179        5.3857  -13.7015  -42.3946 H         1 UNK         0.3000 
    180 H180        4.8774  -11.7783  -43.5771 H         1 UNK         0.0600 
    181 H181        5.1195  -13.2883  -46.2426 H         1 UNK         0.0600 
    182 H182        6.3409  -13.2600  -44.9760 H         1 UNK         0.0600 
    183 H183        5.9397  -11.7812  -45.8366 H         1 UNK         0.0600 
    184 H184        3.3113  -11.6838  -46.0316 H         1 UNK         0.3000 
    185 H185        0.4479  -10.2276  -44.6044 H         1 UNK         0.0600 
    186 H186        1.8628   -8.2060  -44.7410 H         1 UNK         0.0600 
    187 H187        2.5553   -8.7479  -46.2614 H         1 UNK         0.0600 
    188 H188        0.8430   -8.3367  -46.1651 H         1 UNK         0.0600 
    189 H189       -0.0489  -11.3530  -46.4137 H         1 UNK         0.3000 
    190 H190       -1.3125  -20.7473  -46.6943 H         1 UNK         0.3000 
    191 H191       -2.0571  -21.5953  -49.3395 H         1 UNK         0.0600 
    192 H192       -2.9781  -19.5536  -48.1982 H         1 UNK         0.0600 
    193 H193       -4.2458  -20.6330  -48.7359 H         1 UNK         0.0600 
    194 H194       -3.8111  -20.5743  -47.0358 H         1 UNK         0.0600 
    195 H195       -3.0259  -22.6581  -46.0241 H         1 UNK         0.3000 
    196 H196       -4.7734  -24.6944  -46.7504 H         1 UNK         0.0600 
    197 H197       -4.4343  -25.4908  -44.4010 H         1 UNK         0.0600 
    198 H198       -4.6164  -23.7447  -44.4716 H         1 UNK         0.0600 
    199 H199       -3.0187  -24.4557  -44.2509 H         1 UNK         0.0600 
    200 H200       -1.2335  -24.9283  -46.2687 H         1 UNK         0.3000 
    201 H201       -1.0422  -27.7654  -46.5941 H         1 UNK         0.0600 
    202 H202        0.6853  -26.3987  -45.4501 H         1 UNK         0.0600 
    203 H203        1.0385  -25.5427  -46.9508 H         1 UNK         0.0600 
    204 H204        1.3996  -27.2598  -46.8037 H         1 UNK         0.0600 
    205 H205       -1.6562  -25.3153  -48.9399 H         1 UNK         0.3000 
    206 H206       -0.7011  -27.0191  -51.2081 H         1 UNK         0.0600 
    207 H207        0.7409  -25.0265  -50.8510 H         1 UNK         0.0600 
    208 H208       -0.1679  -24.8642  -52.3426 H         1 UNK         0.0600 
    209 H209       -0.6650  -23.9729  -50.9014 H         1 UNK         0.0600 
    210 H210       -3.4079  -26.7736  -49.7907 H         1 UNK         0.3000 
    211 H211       -5.5825  -26.8188  -50.2774 H         1 UNK         0.0600 
    212 H212       -4.7040  -27.2724  -53.1809 H         1 UNK         0.0600 
    213 H213       -6.2834  -27.6383  -52.5039 H         1 UNK         0.0600 
    214 H214       -4.8709  -28.5237  -51.9506 H         1 UNK         0.0600 
    215 H215       -4.8989  -24.4212  -49.7422 H         1 UNK         0.3000 
    216 H216       -5.4109  -22.2868  -49.7401 H         1 UNK         0.0600 
    217 H217       -7.5573  -22.9122  -51.8210 H         1 UNK         0.0600 
    218 H218       -7.3822  -21.3793  -50.9754 H         1 UNK         0.0600 
    219 H219       -7.7638  -22.8378  -50.0784 H         1 UNK         0.0600 
    220 H220       -3.2806  -23.2990  -51.2271 H         1 UNK         0.3000 
    221 H221       -1.6646  -22.8712  -52.7021 H         1 UNK         0.0600 
    222 H222       -2.7667  -20.0258  -52.8725 H         1 UNK         0.0600 
    223 H223       -1.6591  -20.5959  -51.6240 H         1 UNK         0.0600 
    224 H224       -1.1479  -20.5486  -53.3042 H         1 UNK         0.0600 
    225 H225       -3.4564  -24.3646  -53.7678 H         1 UNK         0.3000 
    226 H226       -4.6462  -25.1068  -55.4876 H         1 UNK         0.0600 
    227 H227       -2.4391  -24.9146  -56.6502 H         1 UNK         0.0600 
    228 H228       -3.7768  -24.6987  -57.7675 H         1 UNK         0.0600 
    229 H229       -2.8666  -23.2997  -57.2139 H         1 UNK         0.0600 
    230 H230       -5.9419  -23.2795  -54.0779 H         1 UNK         0.3000 
    231 H231       -7.6985  -21.9972  -53.8783 H         1 UNK         0.0600 
    232 H232       -8.2640  -22.3551  -56.8611 H         1 UNK         0.0600 
    233 H233       -9.4075  -21.8586  -55.6252 H         1 UNK         0.0600 
    234 H234       -8.7467  -23.4839  -55.5944 H         1 UNK         0.0600 
    235 H235       -5.0142  -20.7923  -55.3388 H         1 UNK         0.3000 
    236 H236       -5.9678  -18.3124  -56.4110 H         1 UNK         0.0600 
    237 H237       -3.7513  -19.3733  -56.9861 H         1 UNK         0.0600 
    238 H238       -3.6066  -17.6929  -56.4896 H         1 UNK         0.0600 
    239 H239       -3.1693  -18.9709  -55.3684 H         1 UNK         0.0600 
    240 H240       -5.2097  -19.3485  -53.1240 H         1 UNK         0.3000 
    241 H241       -5.5080  -16.5698  -52.0808 H         1 UNK         0.0600 
    242 H242       -7.7136  -18.8229  -52.9678 H         1 UNK         0.3800 
    243 H243       -8.8144  -18.6599  -51.6229 H         1 UNK         0.3800 
    244 H244       -4.4118  -19.0490  -50.6796 H         1 UNK         0.0800 
    245 H245       -4.6177  -17.4782  -49.9430 H         1 UNK         0.0800 
    246 H246       -2.3427  -17.5768  -49.0945 H         1 UNK         0.0800 
    247 H247       -2.1826  -15.9561  -49.7202 H         1 UNK         0.0800 
@<TRIPOS>BOND
     1    1    2 1    
     2    1  127 1    
     3    1  128 1    
     4    1  129 1    
     5    2    3 2    
     6    2    4 am   BACKBONE|DICT|INTERRES
     7    4    5 1    
     8    4  130 1    
     9    5    6 1    
    10    5   65 1    
    11    5  131 1    
    12    6    7 1    
    13    6  132 1    
    14    6  133 1    
    15    7    8 1    
    16    8    9 1    
    17    8  134 1    
    18    8  135 1    
    19    9   10 ar   
    20    9   14 ar   
    21   10   11 ar   
    22   10  136 1    
    23   11   12 ar   
    24   11  126 1    
    25   12   13 ar   
    26   12  137 1    
    27   13   14 ar   
    28   13   15 1    
    29   14  138 1    
    30   15   16 1    
    31   15  139 1    
    32   15  140 1    
    33   16   17 1    
    34   17   18 1    
    35   17  141 1    
    36   17  142 1    
    37   18   19 1    
    38   18   67 1    
    39   18  143 1    
    40   19   20 am   BACKBONE|DICT|INTERRES
    41   19  144 1    
    42   20   21 2    
    43   20   22 1    
    44   22   23 1    
    45   22   24 1    
    46   22  145 1    
    47   23  146 1    
    48   23  147 1    
    49   23  148 1    
    50   24   25 am   BACKBONE|DICT|INTERRES
    51   24  149 1    
    52   25   26 2    
    53   25   27 1    
    54   27   28 1    
    55   27   29 1    
    56   27  150 1    
    57   28  151 1    
    58   28  152 1    
    59   28  153 1    
    60   29   30 am   BACKBONE|DICT|INTERRES
    61   29  154 1    
    62   30   31 2    
    63   30   32 1    
    64   32   33 1    
    65   32   34 1    
    66   32  155 1    
    67   33  156 1    
    68   33  157 1    
    69   33  158 1    
    70   34   35 am   BACKBONE|DICT|INTERRES
    71   34  159 1    
    72   35   36 2    
    73   35   37 1    
    74   37   38 1    
    75   37   39 1    
    76   37  160 1    
    77   38  161 1    
    78   38  162 1    
    79   38  163 1    
    80   39   40 am   BACKBONE|DICT|INTERRES
    81   39  164 1    
    82   40   41 2    
    83   40   42 1    
    84   42   43 1    
    85   42   44 1    
    86   42  165 1    
    87   43  166 1    
    88   43  167 1    
    89   43  168 1    
    90   44   45 am   BACKBONE|DICT|INTERRES
    91   44  169 1    
    92   45   46 2    
    93   45   47 1    
    94   47   48 1    
    95   47   49 1    
    96   47  170 1    
    97   48  171 1    
    98   48  172 1    
    99   48  173 1    
   100   49   50 am   BACKBONE|DICT|INTERRES
   101   49  174 1    
   102   50   51 2    
   103   50   52 1    
   104   52   53 1    
   105   52   54 1    
   106   52  175 1    
   107   53  176 1    
   108   53  177 1    
   109   53  178 1    
   110   54   55 am   BACKBONE|DICT|INTERRES
   111   54  179 1    
   112   55   56 2    
   113   55   57 1    
   114   57   58 1    
   115   57   59 1    
   116   57  180 1    
   117   58  181 1    
   118   58  182 1    
   119   58  183 1    
   120   59   60 am   BACKBONE|DICT|INTERRES
   121   59  184 1    
   122   60   61 2    
   123   60   62 1    
   124   62   63 1    
   125   62   64 1    
   126   62  185 1    
   127   63  186 1    
   128   63  187 1    
   129   63  188 1    
   130   64   65 am   BACKBONE|DICT|INTERRES
   131   64  189 1    
   132   65   66 2    
   133   67   68 2    
   134   67   69 am   BACKBONE|DICT|INTERRES
   135   69   70 1    
   136   69  190 1    
   137   70   71 1    
   138   70   72 1    
   139   70  191 1    
   140   71  192 1    
   141   71  193 1    
   142   71  194 1    
   143   72   73 2    
   144   72   74 am   BACKBONE|DICT|INTERRES
   145   74   75 1    
   146   74  195 1    
   147   75   76 1    
   148   75   77 1    
   149   75  196 1    
   150   76  197 1    
   151   76  198 1    
   152   76  199 1    
   153   77   78 2    
   154   77   79 am   BACKBONE|DICT|INTERRES
   155   79   80 1    
   156   79  200 1    
   157   80   81 1    
   158   80   82 1    
   159   80  201 1    
   160   81  202 1    
   161   81  203 1    
   162   81  204 1    
   163   82   83 2    
   164   82   84 am   BACKBONE|DICT|INTERRES
   165   84   85 1    
   166   84  205 1    
   167   85   86 1    
   168   85   87 1    
   169   85  206 1    
   170   86  207 1    
   171   86  208 1    
   172   86  209 1    
   173   87   88 2    
   174   87   89 am   BACKBONE|DICT|INTERRES
   175   89   90 1    
   176   89  210 1    
   177   90   91 1    
   178   90   92 1    
   179   90  211 1    
   180   91  212 1    
   181   91  213 1    
   182   91  214 1    
   183   92   93 2    
   184   92   94 am   BACKBONE|DICT|INTERRES
   185   94   95 1    
   186   94  215 1    
   187   95   96 1    
   188   95   97 1    
   189   95  216 1    
   190   96  217 1    
   191   96  218 1    
   192   96  219 1    
   193   97   98 2    
   194   97   99 am   BACKBONE|DICT|INTERRES
   195   99  100 1    
   196   99  220 1    
   197  100  101 1    
   198  100  102 1    
   199  100  221 1    
   200  101  222 1    
   201  101  223 1    
   202  101  224 1    
   203  102  103 2    
   204  102  104 am   BACKBONE|DICT|INTERRES
   205  104  105 1    
   206  104  225 1    
   207  105  106 1    
   208  105  107 1    
   209  105  226 1    
   210  106  227 1    
   211  106  228 1    
   212  106  229 1    
   213  107  108 2    
   214  107  109 am   BACKBONE|DICT|INTERRES
   215  109  110 1    
   216  109  230 1    
   217  110  111 1    
   218  110  112 1    
   219  110  231 1    
   220  111  232 1    
   221  111  233 1    
   222  111  234 1    
   223  112  113 2    
   224  112  114 am   BACKBONE|DICT|INTERRES
   225  114  115 1    
   226  114  235 1    
   227  115  116 1    
   228  115  117 1    
   229  115  236 1    
   230  116  237 1    
   231  116  238 1    
   232  116  239 1    
   233  117  118 2    
   234  117  119 am   BACKBONE|DICT|INTERRES
   235  119  120 1    
   236  119  240 1    
   237  120  121 1    
   238  120  124 1    
   239  120  241 1    
   240  121  122 am   BACKBONE|DICT|INTERRES
   241  121  123 2    
   242  122  242 1    
   243  122  243 1    
   244  124  125 1    
   245  124  244 1    
   246  124  245 1    
   247  125  126 1    
   248  126  246 1    
   249  126  247 1    
@<TRIPOS>SUBSTRUCTURE
     1 UNK         1 GROUP             0       ****    0 ROOT    
