@<TRIPOS>MOLECULE
3R540
247   249    1
SMALL
USER_CHARGES


@<TRIPOS>ATOM
      1 CA         -2.7367  -11.2690  -49.6588 C.3       0 UNK        -0.1800 
      2 C          -3.0163  -12.1391  -50.8840 C.2       0 UNK         0.5000 
      3 O          -3.6067  -11.6498  -51.8451 O.2       0 UNK        -0.5000 
      4 N          -2.6067  -13.4151  -50.9144 N.am      1 UNK        -0.5000 
      5 CA         -1.9636  -14.1753  -49.8351 C.3       1 UNK         0.1400 
      6 C6         -1.3993  -15.5257  -50.3402 C.3       23 UNK        -0.0398 
      7 S7         -0.1703  -15.3163  -51.6708 S.3       23 UNK        -0.2404 
      8 C8          1.3515  -15.9607  -50.8930 C.3       23 UNK        -0.0205 
      9 C9          1.4759  -17.4847  -50.8980 C.ar      23 UNK        -0.0193 
     10 C10         1.0338  -18.2496  -51.9850 C.ar      23 UNK        -0.1150 
     11 C11         1.2395  -19.6309  -52.0143 C.ar      23 UNK        -0.0193 
     12 C12         1.8996  -20.2499  -50.9532 C.ar      23 UNK        -0.1150 
     13 C13         2.3313  -19.5096  -49.8490 C.ar      23 UNK        -0.0193 
     14 C14         2.1144  -18.1270  -49.8300 C.ar      23 UNK        -0.1150 
     15 C15         3.0601  -20.1877  -48.6899 C.3       23 UNK        -0.0205 
     16 S16         2.3452  -21.7965  -48.2000 S.3       23 UNK        -0.2404 
     17 C17         0.6006  -21.3402  -47.9493 C.3       23 UNK        -0.0398 
     18 CA         -0.1600  -22.3460  -47.0610 C.3       11 UNK         0.1400 
     19 N           0.3279  -22.3672  -45.6781 N.am      11 UNK        -0.5000 
     20 C          -0.0372  -23.2776  -44.7647 C.2       10 UNK         0.5000 
     21 O          -0.7831  -24.2250  -45.0112 O.2       10 UNK        -0.5000 
     22 CA          0.4521  -23.0559  -43.3214 C.3       10 UNK         0.1400 
     23 CB          1.8936  -23.5523  -43.1377 C.3       10 UNK        -0.1800 
     24 N           0.3462  -21.6544  -42.9110 N.am      10 UNK        -0.5000 
     25 C          -0.8147  -20.9939  -42.7906 C.2       9 UNK         0.5000 
     26 O          -1.9155  -21.5215  -42.9448 O.2       9 UNK        -0.5000 
     27 CA         -0.7380  -19.4828  -42.5099 C.3       9 UNK         0.1400 
     28 CB         -0.5310  -19.2127  -41.0125 C.3       9 UNK        -0.1800 
     29 N           0.3161  -18.8247  -43.2805 N.am      9 UNK        -0.5000 
     30 C           0.3449  -18.7280  -44.6168 C.2       8 UNK         0.5000 
     31 O          -0.5612  -19.1220  -45.3473 O.2       8 UNK        -0.5000 
     32 CA          1.6254  -18.1544  -45.2485 C.3       8 UNK         0.1400 
     33 CB          1.5709  -16.6268  -45.3562 C.3       8 UNK        -0.1800 
     34 N           2.8279  -18.5504  -44.5183 N.am      8 UNK        -0.5000 
     35 C           3.3019  -19.8025  -44.4798 C.2       7 UNK         0.5000 
     36 O           2.7768  -20.7467  -45.0666 O.2       7 UNK        -0.5000 
     37 CA          4.5379  -20.0411  -43.5957 C.3       7 UNK         0.1400 
     38 CB          5.8176  -19.5902  -44.3155 C.3       7 UNK        -0.1800 
     39 N           4.4319  -19.3551  -42.3067 N.am      7 UNK        -0.5000 
     40 C           3.5431  -19.6786  -41.3570 C.2       6 UNK         0.5000 
     41 O           2.7530  -20.6176  -41.4542 O.2       6 UNK        -0.5000 
     42 CA          3.4990  -18.7747  -40.1099 C.3       6 UNK         0.1400 
     43 CB          4.5325  -19.2378  -39.0724 C.3       6 UNK        -0.1800 
     44 N           3.7019  -17.3494  -40.3963 N.am      6 UNK        -0.5000 
     45 C           2.9172  -16.6117  -41.1922 C.2       5 UNK         0.5000 
     46 O           1.9717  -17.0712  -41.8374 O.2       5 UNK        -0.5000 
     47 CA          3.2562  -15.1210  -41.3148 C.3       5 UNK         0.1400 
     48 CB          4.4384  -14.9025  -42.2738 C.3       5 UNK        -0.1800 
     49 N           2.0793  -14.4355  -41.8341 N.am      5 UNK        -0.5000 
     50 C           1.6818  -13.1954  -41.5346 C.2       4 UNK         0.5000 
     51 O           2.3137  -12.4355  -40.7994 O.2       4 UNK        -0.5000 
     52 CA          0.3577  -12.7156  -42.1641 C.3       4 UNK         0.1400 
     53 CB          0.6348  -11.7259  -43.3066 C.3       4 UNK        -0.1800 
     54 N          -0.4619  -13.8096  -42.6902 N.am      4 UNK        -0.5000 
     55 C          -1.2459  -14.6192  -41.9704 C.2       3 UNK         0.5000 
     56 O          -1.3849  -14.5090  -40.7513 O.2       3 UNK        -0.5000 
     57 CA         -1.9940  -15.7317  -42.7468 C.3       3 UNK         0.1400 
     58 CB         -2.9794  -16.5110  -41.8559 C.3       3 UNK        -0.1800 
     59 N          -2.7273  -15.2610  -43.9284 N.am      3 UNK        -0.5000 
     60 C          -2.1991  -14.8264  -45.0787 C.2       2 UNK         0.5000 
     61 O          -0.9876  -14.6981  -45.2712 O.2       2 UNK        -0.5000 
     62 CA         -3.1855  -14.4485  -46.1914 C.3       2 UNK         0.1400 
     63 CB         -3.9129  -13.1306  -45.8656 C.3       2 UNK        -0.1800 
     64 N          -2.4389  -14.3045  -47.4370 N.am      2 UNK        -0.5000 
     65 C          -2.9468  -14.4051  -48.6675 C.2       1 UNK         0.5000 
     66 O          -4.1305  -14.6596  -48.8998 O.2       1 UNK        -0.5000 
     67 C          -1.6773  -22.0801  -47.1512 C.2       11 UNK         0.5000 
     68 O          -2.3241  -22.6098  -48.0548 O.2       11 UNK        -0.5000 
     69 N          -2.2240  -21.2637  -46.2402 N.am      12 UNK        -0.5000 
     70 CA         -3.6555  -20.9812  -46.1352 C.3       12 UNK         0.1400 
     71 CB         -3.8853  -19.7255  -45.2812 C.3       12 UNK        -0.1800 
     72 C          -4.4367  -22.1863  -45.5875 C.2       12 UNK         0.5000 
     73 O          -5.5065  -22.4940  -46.1104 O.2       12 UNK        -0.5000 
     74 N          -3.8665  -22.8851  -44.5953 N.am      13 UNK        -0.5000 
     75 CA         -4.3911  -24.1404  -44.0493 C.3       13 UNK         0.1400 
     76 CB         -3.5966  -24.5267  -42.7929 C.3       13 UNK        -0.1800 
     77 C          -4.3826  -25.2861  -45.0813 C.2       13 UNK         0.5000 
     78 O          -5.3250  -26.0773  -45.1218 O.2       13 UNK        -0.5000 
     79 N          -3.3452  -25.3204  -45.9295 N.am      14 UNK        -0.5000 
     80 CA         -3.2235  -26.2148  -47.0847 C.3       14 UNK         0.1400 
     81 CB         -1.7482  -26.2634  -47.5135 C.3       14 UNK        -0.1800 
     82 C          -4.1150  -25.8080  -48.2796 C.2       14 UNK         0.5000 
     83 O          -4.2043  -26.5660  -49.2453 O.2       14 UNK        -0.5000 
     84 N          -4.7301  -24.6185  -48.2051 N.am      15 UNK        -0.5000 
     85 CA         -5.6052  -23.9636  -49.1835 C.3       15 UNK         0.1400 
     86 CB         -6.8313  -24.8341  -49.5223 C.3       15 UNK        -0.1800 
     87 C          -4.8934  -23.4473  -50.4503 C.2       15 UNK         0.5000 
     88 O          -5.5576  -22.8806  -51.3174 O.2       15 UNK        -0.5000 
     89 N          -3.5647  -23.5892  -50.5294 N.am      16 UNK        -0.5000 
     90 CA         -2.7353  -23.1365  -51.6462 C.3       16 UNK         0.1400 
     91 CB         -1.3212  -23.7159  -51.4925 C.3       16 UNK        -0.1800 
     92 C          -2.6905  -21.6033  -51.7534 C.2       16 UNK         0.5000 
     93 O          -2.8206  -21.0633  -52.8534 O.2       16 UNK        -0.5000 
     94 N          -2.5516  -20.9309  -50.6018 N.am      17 UNK        -0.5000 
     95 CA         -2.6097  -19.4707  -50.5058 C.3       17 UNK         0.1400 
     96 CB         -1.9693  -18.9999  -49.1920 C.3       17 UNK        -0.1800 
     97 C          -4.0475  -18.9373  -50.6259 C.2       17 UNK         0.5000 
     98 O          -4.2408  -17.8544  -51.1747 O.2       17 UNK        -0.5000 
     99 N          -5.0271  -19.7123  -50.1365 N.am      18 UNK        -0.5000 
    100 CA        -6.4522  -19.3738  -50.1809 C.3       18 UNK         0.1400 
    101 CB        -7.2389  -20.3242  -49.2652 C.3       18 UNK        -0.1800 
    102 C         -7.0138  -19.4012  -51.6141 C.2       18 UNK         0.5000 
    103 O         -7.7565  -18.4966  -51.9960 O.2       18 UNK        -0.5000 
    104 N         -6.6153  -20.4180  -52.3910 N.am      19 UNK        -0.5000 
    105 CA        -6.9159  -20.5435  -53.8182 C.3       19 UNK         0.1400 
    106 CB        -6.6958  -22.0048  -54.2408 C.3       19 UNK        -0.1800 
    107 C         -6.0636  -19.6073  -54.6981 C.2       19 UNK         0.5000 
    108 O         -6.4134  -19.3959  -55.8598 O.2       19 UNK        -0.5000 
    109 N         -4.9571  -19.0928  -54.1381 N.am      20 UNK        -0.5000 
    110 CA        -3.9111  -18.2941  -54.7840 C.3       20 UNK         0.1400 
    111 CB        -4.4500  -16.9142  -55.2120 C.3       20 UNK        -0.1800 
    112 C         -3.2285  -19.0698  -55.9290 C.2       20 UNK         0.5000 
    113 O         -2.9818  -18.5193  -57.0044 O.2       20 UNK        -0.5000 
    114 N         -2.9333  -20.3511  -55.6643 N.am      21 UNK        -0.5000 
    115 CA        -2.3892  -21.3258  -56.6159 C.3       21 UNK         0.1400 
    116 CB        -2.3483  -22.7016  -55.9321 C.3       21 UNK        -0.1800 
    117 C         -0.9981  -20.9576  -57.1686 C.2       21 UNK         0.5000 
    118 O         -0.6257  -21.4166  -58.2490 O.2       21 UNK        -0.5000 
    119 N         -0.2709  -20.1279  -56.4158 N.am      22 UNK        -0.5000 
    120 CA         1.0433  -19.5725  -56.7627 C.3       22 UNK         0.1400 
    121 C          0.9730  -18.3331  -57.7039 C.2       22 UNK         0.5000 
    122 N         -0.1994  -17.7982  -58.0296 N.am      22 UNK        -0.7600 
    123 O          2.0068  -17.8502  -58.1577 O.2       22 UNK        -0.5000 
    124 C124        1.8726  -19.2631  -55.4888 C.3       23 UNK        -0.0398 
    125 S125        2.0706  -20.7296  -54.4168 S.3       23 UNK        -0.2404 
    126 C126        0.7551  -20.4686  -53.1842 C.3       23 UNK        -0.0205 
    127 H127       -1.7145  -11.3891  -49.3019 H         1 UNK         0.0600 
    128 H128       -2.8726  -10.2155  -49.9043 H         1 UNK         0.0600 
    129 H129       -3.4248  -11.5120  -48.8494 H         1 UNK         0.0600 
    130 H130       -2.8083  -13.9569  -51.7417 H         1 UNK         0.3000 
    131 H131       -1.1211  -13.5877  -49.4659 H         1 UNK         0.0600 
    132 H132       -0.9348  -16.0724  -49.5184 H         1 UNK         0.0800 
    133 H133       -2.2019  -16.1583  -50.7215 H         1 UNK         0.0800 
    134 H134        1.4267  -15.5691  -49.8774 H         1 UNK         0.0800 
    135 H135        2.2059  -15.5570  -51.4374 H         1 UNK         0.0800 
    136 H136        0.5450  -17.7691  -52.8196 H         1 UNK         0.1150 
    137 H137        2.0743  -21.3159  -50.9890 H         1 UNK         0.1150 
    138 H138        2.4691  -17.5438  -48.9917 H         1 UNK         0.1150 
    139 H139        3.0822  -19.5376  -47.8157 H         1 UNK         0.0800 
    140 H140        4.0999  -20.3440  -48.9788 H         1 UNK         0.0800 
    141 H141        0.1438  -21.2878  -48.9392 H         1 UNK         0.0800 
    142 H142        0.5454  -20.3364  -47.5265 H         1 UNK         0.0800 
    143 H143        0.0040  -23.3426  -47.4756 H         1 UNK         0.0600 
    144 H144        1.0025  -21.6538  -45.4191 H         1 UNK         0.3000 
    145 H145       -0.1898  -23.6433  -42.6616 H         1 UNK         0.0600 
    146 H146        2.2196  -23.4398  -42.1035 H         1 UNK         0.0600 
    147 H147        1.9755  -24.6097  -43.3922 H         1 UNK         0.0600 
    148 H148        2.5959  -23.0093  -43.7692 H         1 UNK         0.0600 
    149 H149        1.2137  -21.1655  -42.7178 H         1 UNK         0.3000 
    150 H150       -1.6894  -19.0404  -42.8087 H         1 UNK         0.0600 
    151 H151        0.3652  -19.7028  -40.6336 H         1 UNK         0.0600 
    152 H152       -1.3762  -19.5833  -40.4316 H         1 UNK         0.0600 
    153 H153       -0.4353  -18.1463  -40.8090 H         1 UNK         0.0600 
    154 H154        1.0763  -18.4074  -42.7493 H         1 UNK         0.3000 
    155 H155        1.6986  -18.5537  -46.2606 H         1 UNK         0.0600 
    156 H156        1.3549  -16.1554  -44.3972 H         1 UNK         0.0600 
    157 H157        0.7935  -16.3300  -46.0594 H         1 UNK         0.0600 
    158 H158        2.5103  -16.2190  -45.7292 H         1 UNK         0.0600 
    159 H159        3.2780  -17.8411  -43.9601 H         1 UNK         0.3000 
    160 H160        4.6116  -21.1146  -43.4080 H         1 UNK         0.0600 
    161 H161        5.8186  -18.5164  -44.5069 H         1 UNK         0.0600 
    162 H162        5.9219  -20.0953  -45.2769 H         1 UNK         0.0600 
    163 H163        6.7043  -19.8272  -43.7273 H         1 UNK         0.0600 
    164 H164        5.0462  -18.5703  -42.1481 H         1 UNK         0.3000 
    165 H165        2.5065  -18.8803  -39.6676 H         1 UNK         0.0600 
    166 H166        4.4404  -18.6733  -38.1444 H         1 UNK         0.0600 
    167 H167        5.5529  -19.1191  -39.4387 H         1 UNK         0.0600 
    168 H168        4.3927  -20.2911  -38.8251 H         1 UNK         0.0600 
    169 H169        4.4666  -16.9008  -39.9125 H         1 UNK         0.3000 
    170 H170        3.5043  -14.7398  -40.3221 H         1 UNK         0.0600 
    171 H171        5.3369  -15.4052  -41.9142 H         1 UNK         0.0600 
    172 H172        4.2222  -15.2852  -43.2722 H         1 UNK         0.0600 
    173 H173        4.6767  -13.8429  -42.3679 H         1 UNK         0.0600 
    174 H174        1.4674  -15.0245  -42.3828 H         1 UNK         0.3000 
    175 H175       -0.2067  -12.1945  -41.3881 H         1 UNK         0.0600 
    176 H176        1.1913  -12.1961  -44.1185 H         1 UNK         0.0600 
    177 H177       -0.2937  -11.3325  -43.7209 H         1 UNK         0.0600 
    178 H178        1.2199  -10.8749  -42.9556 H         1 UNK         0.0600 
    179 H179       -0.4259  -13.9715  -43.6945 H         1 UNK         0.3000 
    180 H180       -1.2300  -16.4326  -43.0868 H         1 UNK         0.0600 
    181 H181       -3.7849  -15.8699  -41.4957 H         1 UNK         0.0600 
    182 H182       -2.4814  -16.9293  -40.9812 H         1 UNK         0.0600 
    183 H183       -3.4311  -17.3421  -42.3978 H         1 UNK         0.0600 
    184 H184       -3.7335  -15.2875  -43.8488 H         1 UNK         0.3000 
    185 H185       -3.9107  -15.2587  -46.2927 H         1 UNK         0.0600 
    186 H186       -4.4775  -13.2086  -44.9359 H         1 UNK         0.0600 
    187 H187       -3.2110  -12.3028  -45.7561 H         1 UNK         0.0600 
    188 H188       -4.6219  -12.8647  -46.6498 H         1 UNK         0.0600 
    189 H189       -1.4467  -14.1565  -47.2935 H         1 UNK         0.3000 
    190 H190       -1.6131  -20.7687  -45.5982 H         1 UNK         0.3000 
    191 H191       -4.0376  -20.7739  -47.1368 H         1 UNK         0.0600 
    192 H192       -4.9453  -19.4727  -45.2393 H         1 UNK         0.0600 
    193 H193       -3.3617  -18.8645  -45.6975 H         1 UNK         0.0600 
    194 H194       -3.5415  -19.8623  -44.2566 H         1 UNK         0.0600 
    195 H195       -3.0130  -22.5266  -44.1756 H         1 UNK         0.3000 
    196 H196       -5.4283  -23.9675  -43.7549 H         1 UNK         0.0600 
    197 H197       -2.5454  -24.7058  -43.0184 H         1 UNK         0.0600 
    198 H198       -3.6467  -23.7414  -42.0384 H         1 UNK         0.0600 
    199 H199       -3.9956  -25.4368  -42.3435 H         1 UNK         0.0600 
    200 H200       -2.5674  -24.6888  -45.7633 H         1 UNK         0.3000 
    201 H201       -3.5245  -27.2187  -46.7786 H         1 UNK         0.0600 
    202 H202       -1.3986  -25.2900  -47.8572 H         1 UNK         0.0600 
    203 H203       -1.5989  -26.9719  -48.3292 H         1 UNK         0.0600 
    204 H204       -1.1072  -26.5780  -46.6897 H         1 UNK         0.0600 
    205 H205       -4.5736  -24.0773  -47.3646 H         1 UNK         0.3000 
    206 H206       -5.9763  -23.0735  -48.6770 H         1 UNK         0.0600 
    207 H207       -7.3387  -25.1695  -48.6177 H         1 UNK         0.0600 
    208 H208       -7.5576  -24.2720  -50.1107 H         1 UNK         0.0600 
    209 H209       -6.5582  -25.7152  -50.1030 H         1 UNK         0.0600 
    210 H210       -3.0839  -23.9735  -49.7277 H         1 UNK         0.3000 
    211 H211       -3.1686  -23.5251  -52.5702 H         1 UNK         0.0600 
    212 H212       -0.7019  -23.4652  -52.3539 H         1 UNK         0.0600 
    213 H213       -1.3478  -24.8035  -51.4222 H         1 UNK         0.0600 
    214 H214       -0.8205  -23.3360  -50.6007 H         1 UNK         0.0600 
    215 H215       -2.4714  -21.4607  -49.7407 H         1 UNK         0.3000 
    216 H216       -2.0331  -19.0410  -51.3285 H         1 UNK         0.0600 
    217 H217       -2.3770  -19.5240  -48.3322 H         1 UNK         0.0600 
    218 H218       -2.1516  -17.9408  -49.0190 H         1 UNK         0.0600 
    219 H219       -0.8897  -19.1430  -49.2065 H         1 UNK         0.0600 
    220 H220       -4.7811  -20.6028  -49.7345 H         1 UNK         0.3000 
    221 H221       -6.5670  -18.3589  -49.7938 H         1 UNK         0.0600 
    222 H222       -6.8249  -20.3425  -48.2566 H         1 UNK         0.0600 
    223 H223       -7.2436  -21.3441  -49.6488 H         1 UNK         0.0600 
    224 H224       -8.2790  -20.0065  -49.1837 H         1 UNK         0.0600 
    225 H225       -6.0662  -21.1702  -51.9825 H         1 UNK         0.3000 
    226 H226       -7.9658  -20.2914  -53.9809 H         1 UNK         0.0600 
    227 H227       -5.6564  -22.3083  -54.1064 H         1 UNK         0.0600 
    228 H228       -7.3198  -22.6825  -53.6579 H         1 UNK         0.0600 
    229 H229       -6.9482  -22.1525  -55.2916 H         1 UNK         0.0600 
    230 H230       -4.7725  -19.3455  -53.1779 H         1 UNK         0.3000 
    231 H231       -3.1434  -18.1272  -54.0268 H         1 UNK         0.0600 
    232 H232       -5.1895  -16.9946  -56.0090 H         1 UNK         0.0600 
    233 H233       -3.6434  -16.2778  -55.5778 H         1 UNK         0.0600 
    234 H234       -4.9152  -16.3977  -54.3723 H         1 UNK         0.0600 
    235 H235       -3.1073  -20.6934  -54.7228 H         1 UNK         0.3000 
    236 H236       -3.0747  -21.3798  -57.4638 H         1 UNK         0.0600 
    237 H237       -3.3405  -23.0067  -55.5989 H         1 UNK         0.0600 
    238 H238       -1.9846  -23.4692  -56.6164 H         1 UNK         0.0600 
    239 H239       -1.6898  -22.6969  -55.0622 H         1 UNK         0.0600 
    240 H240       -0.6799  -19.8013  -55.5553 H         1 UNK         0.3000 
    241 H241        1.5869  -20.3350  -57.3238 H         1 UNK         0.0600 
    242 H242       -0.2214  -17.0004  -58.6447 H         1 UNK         0.3800 
    243 H243       -1.0712  -18.1774  -57.6768 H         1 UNK         0.3800 
    244 H244        1.4231  -18.4466  -54.9231 H         1 UNK         0.0800 
    245 H245        2.8728  -18.9233  -55.7627 H         1 UNK         0.0800 
    246 H246       -0.1245  -20.0141  -53.6400 H         1 UNK         0.0800 
    247 H247        0.4288  -21.4419  -52.8183 H         1 UNK         0.0800 
@<TRIPOS>BOND
     1    1    2 1    
     2    1  127 1    
     3    1  128 1    
     4    1  129 1    
     5    2    3 2    
     6    2    4 am   BACKBONE|DICT|INTERRES
     7    4    5 1    
     8    4  130 1    
     9    5    6 1    
    10    5   65 1    
    11    5  131 1    
    12    6    7 1    
    13    6  132 1    
    14    6  133 1    
    15    7    8 1    
    16    8    9 1    
    17    8  134 1    
    18    8  135 1    
    19    9   10 ar   
    20    9   14 ar   
    21   10   11 ar   
    22   10  136 1    
    23   11   12 ar   
    24   11  126 1    
    25   12   13 ar   
    26   12  137 1    
    27   13   14 ar   
    28   13   15 1    
    29   14  138 1    
    30   15   16 1    
    31   15  139 1    
    32   15  140 1    
    33   16   17 1    
    34   17   18 1    
    35   17  141 1    
    36   17  142 1    
    37   18   19 1    
    38   18   67 1    
    39   18  143 1    
    40   19   20 am   BACKBONE|DICT|INTERRES
    41   19  144 1    
    42   20   21 2    
    43   20   22 1    
    44   22   23 1    
    45   22   24 1    
    46   22  145 1    
    47   23  146 1    
    48   23  147 1    
    49   23  148 1    
    50   24   25 am   BACKBONE|DICT|INTERRES
    51   24  149 1    
    52   25   26 2    
    53   25   27 1    
    54   27   28 1    
    55   27   29 1    
    56   27  150 1    
    57   28  151 1    
    58   28  152 1    
    59   28  153 1    
    60   29   30 am   BACKBONE|DICT|INTERRES
    61   29  154 1    
    62   30   31 2    
    63   30   32 1    
    64   32   33 1    
    65   32   34 1    
    66   32  155 1    
    67   33  156 1    
    68   33  157 1    
    69   33  158 1    
    70   34   35 am   BACKBONE|DICT|INTERRES
    71   34  159 1    
    72   35   36 2    
    73   35   37 1    
    74   37   38 1    
    75   37   39 1    
    76   37  160 1    
    77   38  161 1    
    78   38  162 1    
    79   38  163 1    
    80   39   40 am   BACKBONE|DICT|INTERRES
    81   39  164 1    
    82   40   41 2    
    83   40   42 1    
    84   42   43 1    
    85   42   44 1    
    86   42  165 1    
    87   43  166 1    
    88   43  167 1    
    89   43  168 1    
    90   44   45 am   BACKBONE|DICT|INTERRES
    91   44  169 1    
    92   45   46 2    
    93   45   47 1    
    94   47   48 1    
    95   47   49 1    
    96   47  170 1    
    97   48  171 1    
    98   48  172 1    
    99   48  173 1    
   100   49   50 am   BACKBONE|DICT|INTERRES
   101   49  174 1    
   102   50   51 2    
   103   50   52 1    
   104   52   53 1    
   105   52   54 1    
   106   52  175 1    
   107   53  176 1    
   108   53  177 1    
   109   53  178 1    
   110   54   55 am   BACKBONE|DICT|INTERRES
   111   54  179 1    
   112   55   56 2    
   113   55   57 1    
   114   57   58 1    
   115   57   59 1    
   116   57  180 1    
   117   58  181 1    
   118   58  182 1    
   119   58  183 1    
   120   59   60 am   BACKBONE|DICT|INTERRES
   121   59  184 1    
   122   60   61 2    
   123   60   62 1    
   124   62   63 1    
   125   62   64 1    
   126   62  185 1    
   127   63  186 1    
   128   63  187 1    
   129   63  188 1    
   130   64   65 am   BACKBONE|DICT|INTERRES
   131   64  189 1    
   132   65   66 2    
   133   67   68 2    
   134   67   69 am   BACKBONE|DICT|INTERRES
   135   69   70 1    
   136   69  190 1    
   137   70   71 1    
   138   70   72 1    
   139   70  191 1    
   140   71  192 1    
   141   71  193 1    
   142   71  194 1    
   143   72   73 2    
   144   72   74 am   BACKBONE|DICT|INTERRES
   145   74   75 1    
   146   74  195 1    
   147   75   76 1    
   148   75   77 1    
   149   75  196 1    
   150   76  197 1    
   151   76  198 1    
   152   76  199 1    
   153   77   78 2    
   154   77   79 am   BACKBONE|DICT|INTERRES
   155   79   80 1    
   156   79  200 1    
   157   80   81 1    
   158   80   82 1    
   159   80  201 1    
   160   81  202 1    
   161   81  203 1    
   162   81  204 1    
   163   82   83 2    
   164   82   84 am   BACKBONE|DICT|INTERRES
   165   84   85 1    
   166   84  205 1    
   167   85   86 1    
   168   85   87 1    
   169   85  206 1    
   170   86  207 1    
   171   86  208 1    
   172   86  209 1    
   173   87   88 2    
   174   87   89 am   BACKBONE|DICT|INTERRES
   175   89   90 1    
   176   89  210 1    
   177   90   91 1    
   178   90   92 1    
   179   90  211 1    
   180   91  212 1    
   181   91  213 1    
   182   91  214 1    
   183   92   93 2    
   184   92   94 am   BACKBONE|DICT|INTERRES
   185   94   95 1    
   186   94  215 1    
   187   95   96 1    
   188   95   97 1    
   189   95  216 1    
   190   96  217 1    
   191   96  218 1    
   192   96  219 1    
   193   97   98 2    
   194   97   99 am   BACKBONE|DICT|INTERRES
   195   99  100 1    
   196   99  220 1    
   197  100  101 1    
   198  100  102 1    
   199  100  221 1    
   200  101  222 1    
   201  101  223 1    
   202  101  224 1    
   203  102  103 2    
   204  102  104 am   BACKBONE|DICT|INTERRES
   205  104  105 1    
   206  104  225 1    
   207  105  106 1    
   208  105  107 1    
   209  105  226 1    
   210  106  227 1    
   211  106  228 1    
   212  106  229 1    
   213  107  108 2    
   214  107  109 am   BACKBONE|DICT|INTERRES
   215  109  110 1    
   216  109  230 1    
   217  110  111 1    
   218  110  112 1    
   219  110  231 1    
   220  111  232 1    
   221  111  233 1    
   222  111  234 1    
   223  112  113 2    
   224  112  114 am   BACKBONE|DICT|INTERRES
   225  114  115 1    
   226  114  235 1    
   227  115  116 1    
   228  115  117 1    
   229  115  236 1    
   230  116  237 1    
   231  116  238 1    
   232  116  239 1    
   233  117  118 2    
   234  117  119 am   BACKBONE|DICT|INTERRES
   235  119  120 1    
   236  119  240 1    
   237  120  121 1    
   238  120  124 1    
   239  120  241 1    
   240  121  122 am   BACKBONE|DICT|INTERRES
   241  121  123 2    
   242  122  242 1    
   243  122  243 1    
   244  124  125 1    
   245  124  244 1    
   246  124  245 1    
   247  125  126 1    
   248  126  246 1    
   249  126  247 1    
@<TRIPOS>SUBSTRUCTURE
     1 UNK         1 GROUP             0       ****    0 ROOT    
