@<TRIPOS>MOLECULE
3R540
247   249    1
SMALL
USER_CHARGES


@<TRIPOS>ATOM
      1 CA          8.2322  -11.4064  -51.9133 C.3       0 UNK        -0.1800 
      2 C           7.0899  -11.3809  -50.9071 C.2       0 UNK         0.5000 
      3 O           6.7543  -10.3139  -50.3922 O.2       0 UNK        -0.5000 
      4 N           6.4925  -12.5489  -50.6342 N.am      1 UNK        -0.5000 
      5 CA          5.4131  -12.7636  -49.6628 C.3       1 UNK         0.1400 
      6 C6          4.1163  -11.9755  -50.0216 C.3       23 UNK        -0.0398 
      7 S7          2.6014  -12.7749  -49.3893 S.3       23 UNK        -0.2404 
      8 C8          2.0987  -13.7469  -50.8387 C.3       23 UNK        -0.0205 
      9 C9          1.0955  -14.8179  -50.4484 C.ar      23 UNK        -0.0193 
     10 C10        -0.2761  -14.5559  -50.4961 C.ar      23 UNK        -0.1150 
     11 C11        -1.1969  -15.5469  -50.1454 C.ar      23 UNK        -0.0193 
     12 C12        -0.7344  -16.8020  -49.7391 C.ar      23 UNK        -0.1150 
     13 C13         0.6351  -17.0832  -49.7008 C.ar      23 UNK        -0.0193 
     14 C14         1.5437  -16.0804  -50.0508 C.ar      23 UNK        -0.1150 
     15 C15         1.1458  -18.4723  -49.3333 C.3       23 UNK        -0.0205 
     16 S16         0.5866  -19.0265  -47.6919 S.3       23 UNK        -0.2404 
     17 C17        -0.9222  -19.9663  -48.1111 C.3       23 UNK        -0.0398 
     18 CA         -0.7341  -21.4944  -47.9670 C.3       11 UNK         0.1400 
     19 N          -0.2279  -21.8889  -46.6491 N.am      11 UNK        -0.5000 
     20 C           0.1932  -23.1197  -46.3273 C.2       10 UNK         0.5000 
     21 O           0.2392  -24.0570  -47.1226 O.2       10 UNK        -0.5000 
     22 CA          0.5725  -23.3534  -44.8557 C.3       10 UNK         0.1400 
     23 CB          2.0325  -22.9542  -44.5948 C.3       10 UNK        -0.1800 
     24 N          -0.3163  -22.6210  -43.9526 N.am      10 UNK        -0.5000 
     25 C          -1.5927  -22.9654  -43.7235 C.2       9 UNK         0.5000 
     26 O          -2.1238  -23.9640  -44.2095 O.2       9 UNK        -0.5000 
     27 CA         -2.4329  -22.0125  -42.8503 C.3       9 UNK         0.1400 
     28 CB         -2.2614  -22.3516  -41.3625 C.3       9 UNK        -0.1800 
     29 N          -2.1068  -20.6017  -43.0659 N.am      9 UNK        -0.5000 
     30 C          -2.2678  -19.9516  -44.2271 C.2       8 UNK         0.5000 
     31 O          -2.7875  -20.4598  -45.2190 O.2       8 UNK        -0.5000 
     32 CA         -1.7203  -18.5136  -44.3191 C.3       8 UNK         0.1400 
     33 CB         -2.8540  -17.4989  -44.1122 C.3       8 UNK        -0.1800 
     34 N          -0.6284  -18.2125  -43.3875 N.am      8 UNK        -0.5000 
     35 C           0.5477  -18.8552  -43.3177 C.2       7 UNK         0.5000 
     36 O           0.8210  -19.8452  -43.9980 O.2       7 UNK        -0.5000 
     37 CA          1.5569  -18.3166  -42.2812 C.3       7 UNK         0.1400 
     38 CB          2.9961  -18.8250  -42.5115 C.3       7 UNK        -0.1800 
     39 N           1.5050  -16.8533  -42.1549 N.am      7 UNK        -0.5000 
     40 C           1.8461  -15.9491  -43.0854 C.2       6 UNK         0.5000 
     41 O           2.3856  -16.2238  -44.1598 O.2       6 UNK        -0.5000 
     42 CA          1.5406  -14.4798  -42.7262 C.3       6 UNK         0.1400 
     43 CB          2.6764  -13.8932  -41.8731 C.3       6 UNK        -0.1800 
     44 N           1.3347  -13.6230  -43.8964 N.am      6 UNK        -0.5000 
     45 C           0.4139  -13.8124  -44.8535 C.2       5 UNK         0.5000 
     46 O          -0.4322  -14.7082  -44.8242 O.2       5 UNK        -0.5000 
     47 CA          0.4405  -12.7974  -46.0159 C.3       5 UNK         0.1400 
     48 CB         -0.6742  -13.0273  -47.0579 C.3       5 UNK        -0.1800 
     49 N           0.4426  -11.4089  -45.5414 N.am      5 UNK        -0.5000 
     50 C          -0.4786  -10.8130  -44.7652 C.2       4 UNK         0.5000 
     51 O          -1.5225  -11.3575  -44.4015 O.2       4 UNK        -0.5000 
     52 CA         -0.1863   -9.3590  -44.3237 C.3       4 UNK         0.1400 
     53 CB         -0.8757   -8.9904  -42.9927 C.3       4 UNK        -0.1800 
     54 N           1.2437   -9.0271  -44.2729 N.am      4 UNK        -0.5000 
     55 C           2.1829   -9.6075  -43.5123 C.2       3 UNK         0.5000 
     56 O           1.9654  -10.5116  -42.7045 O.2       3 UNK        -0.5000 
     57 CA          3.6295   -9.1332  -43.7469 C.3       3 UNK         0.1400 
     58 CB          4.2722   -8.6514  -42.4364 C.3       3 UNK        -0.1800 
     59 N           4.4655  -10.1837  -44.3343 N.am      3 UNK        -0.5000 
     60 C           4.2087  -10.8353  -45.4757 C.2       2 UNK         0.5000 
     61 O           3.2126  -10.6312  -46.1780 O.2       2 UNK        -0.5000 
     62 CA          5.2274  -11.9028  -45.8982 C.3       2 UNK         0.1400 
     63 CB          5.0730  -13.1851  -45.0629 C.3       2 UNK        -0.1800 
     64 N           4.9956  -12.2074  -47.3027 N.am      2 UNK        -0.5000 
     65 C           5.9092  -12.5670  -48.2063 C.2       1 UNK         0.5000 
     66 O           7.0941  -12.7681  -47.9254 O.2       1 UNK        -0.5000 
     67 C          -2.0454  -22.2276  -48.3114 C.2       11 UNK         0.5000 
     68 O          -2.2232  -22.6424  -49.4569 O.2       11 UNK        -0.5000 
     69 N          -2.9273  -22.3861  -47.3146 N.am      12 UNK        -0.5000 
     70 CA         -4.1541  -23.1741  -47.3996 C.3       12 UNK         0.1400 
     71 CB         -5.0240  -22.9286  -46.1587 C.3       12 UNK        -0.1800 
     72 C          -3.8627  -24.6700  -47.5893 C.2       12 UNK         0.5000 
     73 O          -4.4426  -25.2850  -48.4826 O.2       12 UNK        -0.5000 
     74 N          -2.9386  -25.2201  -46.7874 N.am      13 UNK        -0.5000 
     75 CA         -2.4925  -26.6143  -46.8680 C.3       13 UNK         0.1400 
     76 CB         -1.5242  -26.9189  -45.7162 C.3       13 UNK        -0.1800 
     77 C          -1.8570  -26.9709  -48.2252 C.2       13 UNK         0.5000 
     78 O          -2.1386  -28.0426  -48.7618 O.2       13 UNK        -0.5000 
     79 N          -1.0695  -26.0440  -48.7890 N.am      14 UNK        -0.5000 
     80 CA         -0.4763  -26.1422  -50.1264 C.3       14 UNK         0.1400 
     81 CB          0.5000  -24.9738  -50.3297 C.3       14 UNK        -0.1800 
     82 C          -1.5150  -26.1848  -51.2674 C.2       14 UNK         0.5000 
     83 O          -1.2272  -26.7450  -52.3252 O.2       14 UNK        -0.5000 
     84 N          -2.7052  -25.6230  -51.0231 N.am      15 UNK        -0.5000 
     85 CA         -3.8630  -25.6484  -51.9169 C.3       15 UNK         0.1400 
     86 CB         -4.4877  -24.2454  -51.9301 C.3       15 UNK        -0.1800 
     87 C          -4.8956  -26.7196  -51.5042 C.2       15 UNK         0.5000 
     88 O          -6.0297  -26.6791  -51.9841 O.2       15 UNK        -0.5000 
     89 N          -4.5113  -27.6390  -50.6027 N.am      16 UNK        -0.5000 
     90 CA         -5.3084  -28.7462  -50.0569 C.3       16 UNK         0.1400 
     91 CB         -5.5683  -29.8039  -51.1494 C.3       16 UNK        -0.1800 
     92 C          -6.6058  -28.2964  -49.3472 C.2       16 UNK         0.5000 
     93 O          -7.5806  -29.0490  -49.3137 O.2       16 UNK        -0.5000 
     94 N          -6.5983  -27.0647  -48.8161 N.am      17 UNK        -0.5000 
     95 CA         -7.7039  -26.3397  -48.1821 C.3       17 UNK         0.1400 
     96 CB         -8.1584  -27.0478  -46.8896 C.3       17 UNK        -0.1800 
     97 C          -8.8840  -26.0124  -49.1258 C.2       17 UNK         0.5000 
     98 O          -9.9330  -25.5786  -48.6464 O.2       17 UNK        -0.5000 
     99 N          -8.7039  -26.1886  -50.4438 N.am      18 UNK        -0.5000 
    100 CA        -9.6945  -25.8411  -51.4673 C.3       18 UNK         0.1400 
    101 CB        -9.4240  -26.6753  -52.7287 C.3       18 UNK        -0.1800 
    102 C         -9.6832  -24.3366  -51.8013 C.2       18 UNK         0.5000 
    103 O        -10.6813  -23.8116  -52.2962 O.2       18 UNK        -0.5000 
    104 N         -8.5568  -23.6782  -51.5147 N.am      19 UNK        -0.5000 
    105 CA        -8.2943  -22.2533  -51.6641 C.3       19 UNK         0.1400 
    106 CB        -8.1000  -21.8949  -53.1547 C.3       19 UNK        -0.1800 
    107 C         -7.0717  -21.9368  -50.7836 C.2       19 UNK         0.5000 
    108 O         -6.8929  -22.5822  -49.7472 O.2       19 UNK        -0.5000 
    109 N         -6.2277  -20.9984  -51.2205 N.am      20 UNK        -0.5000 
    110 CA        -4.9001  -20.7501  -50.6744 C.3       20 UNK         0.1400 
    111 CB        -4.9384  -19.5791  -49.6806 C.3       20 UNK        -0.1800 
    112 C         -3.9532  -20.4733  -51.8464 C.2       20 UNK         0.5000 
    113 O         -4.3688  -19.8642  -52.8361 O.2       20 UNK        -0.5000 
    114 N         -2.7047  -20.9359  -51.7225 N.am      21 UNK        -0.5000 
    115 CA        -1.6478  -20.8559  -52.7329 C.3       21 UNK         0.1400 
    116 CB        -0.5883  -21.9230  -52.4020 C.3       21 UNK        -0.1800 
    117 C         -1.0442  -19.4395  -52.8763 C.2       21 UNK         0.5000 
    118 O          0.1695  -19.2684  -52.7538 O.2       21 UNK        -0.5000 
    119 N         -1.9050  -18.4478  -53.1273 N.am      22 UNK        -0.5000 
    120 CA        -1.5507  -17.0259  -53.2783 C.3       22 UNK         0.1400 
    121 C         -0.9195  -16.6531  -54.6521 C.2       22 UNK         0.5000 
    122 N         -0.8873  -17.5421  -55.6376 N.am      22 UNK        -0.7600 
    123 O         -0.4447  -15.5345  -54.8278 O.2       22 UNK        -0.5000 
    124 C124       -2.7454  -16.0876  -52.9511 C.3       23 UNK        -0.0398 
    125 S125       -3.5461  -16.4359  -51.3448 S.3       23 UNK        -0.2404 
    126 C126       -2.6919  -15.2735  -50.2288 C.3       23 UNK        -0.0205 
    127 H127        8.4154  -12.4114  -52.2945 H         1 UNK         0.0600 
    128 H128        8.0016  -10.7589  -52.7593 H         1 UNK         0.0600 
    129 H129        9.1499  -11.0472  -51.4476 H         1 UNK         0.0600 
    130 H130        6.8445  -13.3882  -51.0731 H         1 UNK         0.3000 
    131 H131        5.1849  -13.8274  -49.7445 H         1 UNK         0.0600 
    132 H132        4.1616  -10.9494  -49.6523 H         1 UNK         0.0800 
    133 H133        4.0205  -11.8854  -51.1046 H         1 UNK         0.0800 
    134 H134        1.6744  -13.0832  -51.5936 H         1 UNK         0.0800 
    135 H135        2.9745  -14.2130  -51.2931 H         1 UNK         0.0800 
    136 H136       -0.6235  -13.5817  -50.8103 H         1 UNK         0.1150 
    137 H137       -1.4535  -17.5633  -49.4817 H         1 UNK         0.1150 
    138 H138        2.6051  -16.2835  -50.0257 H         1 UNK         0.1150 
    139 H139        0.8453  -19.1870  -50.1000 H         1 UNK         0.0800 
    140 H140        2.2366  -18.4820  -49.3300 H         1 UNK         0.0800 
    141 H141       -1.2274  -19.7346  -49.1320 H         1 UNK         0.0800 
    142 H142       -1.7281  -19.6077  -47.4701 H         1 UNK         0.0800 
    143 H143        0.0100  -21.8074  -48.7028 H         1 UNK         0.0600 
    144 H144       -0.2080  -21.1704  -45.9386 H         1 UNK         0.3000 
    145 H145        0.4738  -24.4203  -44.6460 H         1 UNK         0.0600 
    146 H146        2.3050  -23.1110  -43.5511 H         1 UNK         0.0600 
    147 H147        2.7113  -23.5540  -45.2024 H         1 UNK         0.0600 
    148 H148        2.2188  -21.9078  -44.8373 H         1 UNK         0.0600 
    149 H149        0.0343  -21.7415  -43.5909 H         1 UNK         0.3000 
    150 H150       -3.4819  -22.1584  -43.1161 H         1 UNK         0.0600 
    151 H151       -2.5174  -23.3941  -41.1683 H         1 UNK         0.0600 
    152 H152       -2.9125  -21.7373  -40.7402 H         1 UNK         0.0600 
    153 H153       -1.2342  -22.1980  -41.0294 H         1 UNK         0.0600 
    154 H154       -1.6760  -20.1094  -42.2978 H         1 UNK         0.3000 
    155 H155       -1.3272  -18.3809  -45.3283 H         1 UNK         0.0600 
    156 H156       -2.5065  -16.4791  -44.2784 H         1 UNK         0.0600 
    157 H157       -3.2651  -17.5547  -43.1035 H         1 UNK         0.0600 
    158 H158       -3.6719  -17.6782  -44.8115 H         1 UNK         0.0600 
    159 H159       -0.7619  -17.4055  -42.7966 H         1 UNK         0.3000 
    160 H160        1.2296  -18.7113  -41.3184 H         1 UNK         0.0600 
    161 H161        3.0417  -19.9115  -42.4281 H         1 UNK         0.0600 
    162 H162        3.6838  -18.4140  -41.7725 H         1 UNK         0.0600 
    163 H163        3.3691  -18.5629  -43.5018 H         1 UNK         0.0600 
    164 H164        1.1029  -16.5143  -41.2917 H         1 UNK         0.3000 
    165 H165        0.6180  -14.4547  -42.1429 H         1 UNK         0.0600 
    166 H166        3.6156  -13.8571  -42.4249 H         1 UNK         0.0600 
    167 H167        2.4415  -12.8823  -41.5410 H         1 UNK         0.0600 
    168 H168        2.8468  -14.4925  -40.9779 H         1 UNK         0.0600 
    169 H169        1.9431  -12.8212  -43.9703 H         1 UNK         0.3000 
    170 H170        1.3940  -12.9478  -46.5240 H         1 UNK         0.0600 
    171 H171       -0.6137  -14.0342  -47.4731 H         1 UNK         0.0600 
    172 H172       -1.6683  -12.9110  -46.6262 H         1 UNK         0.0600 
    173 H173       -0.5834  -12.3303  -47.8910 H         1 UNK         0.0600 
    174 H174        1.2813  -10.8835  -45.7711 H         1 UNK         0.3000 
    175 H175       -0.6151   -8.7234  -45.0997 H         1 UNK         0.0600 
    176 H176       -0.6610   -7.9601  -42.7091 H         1 UNK         0.0600 
    177 H177       -1.9594   -9.0829  -43.0728 H         1 UNK         0.0600 
    178 H178       -0.5526   -9.6376  -42.1768 H         1 UNK         0.0600 
    179 H179        1.5419   -8.3253  -44.9364 H         1 UNK         0.3000 
    180 H180        3.6174   -8.2930  -44.4442 H         1 UNK         0.0600 
    181 H181        4.3635   -9.4605  -41.7106 H         1 UNK         0.0600 
    182 H182        3.6747   -7.8636  -41.9759 H         1 UNK         0.0600 
    183 H183        5.2678   -8.2429  -42.6110 H         1 UNK         0.0600 
    184 H184        5.2907  -10.4338  -43.8092 H         1 UNK         0.3000 
    185 H185        6.2310  -11.4921  -45.7687 H         1 UNK         0.0600 
    186 H186        5.7862  -13.9475  -45.3765 H         1 UNK         0.0600 
    187 H187        5.2555  -12.9890  -44.0061 H         1 UNK         0.0600 
    188 H188        4.0721  -13.6091  -45.1547 H         1 UNK         0.0600 
    189 H189        4.0470  -12.0199  -47.6090 H         1 UNK         0.3000 
    190 H190       -2.7458  -21.9239  -46.4278 H         1 UNK         0.3000 
    191 H191       -4.7156  -22.8360  -48.2692 H         1 UNK         0.0600 
    192 H192       -5.2768  -21.8727  -46.0603 H         1 UNK         0.0600 
    193 H193       -5.9610  -23.4828  -46.2257 H         1 UNK         0.0600 
    194 H194       -4.5227  -23.2386  -45.2422 H         1 UNK         0.0600 
    195 H195       -2.5331  -24.6574  -46.0461 H         1 UNK         0.3000 
    196 H196       -3.3746  -27.2459  -46.7438 H         1 UNK         0.0600 
    197 H197       -1.2119  -27.9638  -45.7348 H         1 UNK         0.0600 
    198 H198       -1.9920  -26.7368  -44.7486 H         1 UNK         0.0600 
    199 H199       -0.6244  -26.3069  -45.7742 H         1 UNK         0.0600 
    200 H200       -0.8341  -25.2146  -48.2506 H         1 UNK         0.3000 
    201 H201        0.0923  -27.0732  -50.1701 H         1 UNK         0.0600 
    202 H202        1.3071  -25.0036  -49.5975 H         1 UNK         0.0600 
    203 H203       -0.0020  -24.0116  -50.2325 H         1 UNK         0.0600 
    204 H204        0.9570  -25.0090  -51.3194 H         1 UNK         0.0600 
    205 H205       -2.8602  -25.1972  -50.1176 H         1 UNK         0.3000 
    206 H206       -3.5491  -25.8864  -52.9349 H         1 UNK         0.0600 
    207 H207       -3.7690  -23.5059  -52.2803 H         1 UNK         0.0600 
    208 H208       -5.3519  -24.1951  -52.5936 H         1 UNK         0.0600 
    209 H209       -4.8147  -23.9527  -50.9327 H         1 UNK         0.0600 
    210 H210       -3.5730  -27.5686  -50.2262 H         1 UNK         0.3000 
    211 H211       -4.6921  -29.2115  -49.2865 H         1 UNK         0.0600 
    212 H212       -6.2334  -29.4264  -51.9268 H         1 UNK         0.0600 
    213 H213       -6.0301  -30.6981  -50.7294 H         1 UNK         0.0600 
    214 H214       -4.6384  -30.1152  -51.6253 H         1 UNK         0.0600 
    215 H215       -5.7366  -26.5257  -48.8875 H         1 UNK         0.3000 
    216 H216       -7.2878  -25.3734  -47.8933 H         1 UNK         0.0600 
    217 H217       -7.3123  -27.2482  -46.2323 H         1 UNK         0.0600 
    218 H218       -8.6546  -27.9958  -47.0987 H         1 UNK         0.0600 
    219 H219       -8.8614  -26.4295  -46.3304 H         1 UNK         0.0600 
    220 H220       -7.8121  -26.5377  -50.7774 H         1 UNK         0.3000 
    221 H221      -10.6911  -26.0953  -51.1002 H         1 UNK         0.0600 
    222 H222       -8.4554  -26.4371  -53.1696 H         1 UNK         0.0600 
    223 H223       -9.4384  -27.7426  -52.5072 H         1 UNK         0.0600 
    224 H224      -10.1839  -26.4896  -53.4888 H         1 UNK         0.0600 
    225 H225       -7.8194  -24.1833  -51.0409 H         1 UNK         0.3000 
    226 H226       -9.1419  -21.6939  -51.2641 H         1 UNK         0.0600 
    227 H227       -8.9632  -22.1905  -53.7509 H         1 UNK         0.0600 
    228 H228       -7.9785  -20.8202  -53.2939 H         1 UNK         0.0600 
    229 H229       -7.2237  -22.3897  -53.5757 H         1 UNK         0.0600 
    230 H230       -6.4039  -20.5390  -52.1051 H         1 UNK         0.3000 
    231 H231       -4.5421  -21.6416  -50.1619 H         1 UNK         0.0600 
    232 H232       -3.9404  -19.3497  -49.3051 H         1 UNK         0.0600 
    233 H233       -5.5633  -19.8172  -48.8198 H         1 UNK         0.0600 
    234 H234       -5.3339  -18.6742  -50.1428 H         1 UNK         0.0600 
    235 H235       -2.4729  -21.4757  -50.8926 H         1 UNK         0.3000 
    236 H236       -2.0820  -21.1137  -53.7010 H         1 UNK         0.0600 
    237 H237        0.1944  -21.9504  -53.1609 H         1 UNK         0.0600 
    238 H238       -0.1104  -21.7288  -51.4410 H         1 UNK         0.0600 
    239 H239       -1.0318  -22.9183  -52.3595 H         1 UNK         0.0600 
    240 H240       -2.8926  -18.6791  -53.1810 H         1 UNK         0.3000 
    241 H241       -0.7655  -16.8166  -52.5521 H         1 UNK         0.0600 
    242 H242       -1.2742  -18.4630  -55.5091 H         1 UNK         0.3800 
    243 H243       -0.4729  -17.2900  -56.5213 H         1 UNK         0.3800 
    244 H244       -2.4272  -15.0436  -52.9638 H         1 UNK         0.0800 
    245 H245       -3.5107  -16.1779  -53.7237 H         1 UNK         0.0800 
    246 H246       -2.8863  -14.2521  -50.5597 H         1 UNK         0.0800 
    247 H247       -3.1218  -15.3613  -49.2302 H         1 UNK         0.0800 
@<TRIPOS>BOND
     1    1    2 1    
     2    1  127 1    
     3    1  128 1    
     4    1  129 1    
     5    2    3 2    
     6    2    4 am   BACKBONE|DICT|INTERRES
     7    4    5 1    
     8    4  130 1    
     9    5    6 1    
    10    5   65 1    
    11    5  131 1    
    12    6    7 1    
    13    6  132 1    
    14    6  133 1    
    15    7    8 1    
    16    8    9 1    
    17    8  134 1    
    18    8  135 1    
    19    9   10 ar   
    20    9   14 ar   
    21   10   11 ar   
    22   10  136 1    
    23   11   12 ar   
    24   11  126 1    
    25   12   13 ar   
    26   12  137 1    
    27   13   14 ar   
    28   13   15 1    
    29   14  138 1    
    30   15   16 1    
    31   15  139 1    
    32   15  140 1    
    33   16   17 1    
    34   17   18 1    
    35   17  141 1    
    36   17  142 1    
    37   18   19 1    
    38   18   67 1    
    39   18  143 1    
    40   19   20 am   BACKBONE|DICT|INTERRES
    41   19  144 1    
    42   20   21 2    
    43   20   22 1    
    44   22   23 1    
    45   22   24 1    
    46   22  145 1    
    47   23  146 1    
    48   23  147 1    
    49   23  148 1    
    50   24   25 am   BACKBONE|DICT|INTERRES
    51   24  149 1    
    52   25   26 2    
    53   25   27 1    
    54   27   28 1    
    55   27   29 1    
    56   27  150 1    
    57   28  151 1    
    58   28  152 1    
    59   28  153 1    
    60   29   30 am   BACKBONE|DICT|INTERRES
    61   29  154 1    
    62   30   31 2    
    63   30   32 1    
    64   32   33 1    
    65   32   34 1    
    66   32  155 1    
    67   33  156 1    
    68   33  157 1    
    69   33  158 1    
    70   34   35 am   BACKBONE|DICT|INTERRES
    71   34  159 1    
    72   35   36 2    
    73   35   37 1    
    74   37   38 1    
    75   37   39 1    
    76   37  160 1    
    77   38  161 1    
    78   38  162 1    
    79   38  163 1    
    80   39   40 am   BACKBONE|DICT|INTERRES
    81   39  164 1    
    82   40   41 2    
    83   40   42 1    
    84   42   43 1    
    85   42   44 1    
    86   42  165 1    
    87   43  166 1    
    88   43  167 1    
    89   43  168 1    
    90   44   45 am   BACKBONE|DICT|INTERRES
    91   44  169 1    
    92   45   46 2    
    93   45   47 1    
    94   47   48 1    
    95   47   49 1    
    96   47  170 1    
    97   48  171 1    
    98   48  172 1    
    99   48  173 1    
   100   49   50 am   BACKBONE|DICT|INTERRES
   101   49  174 1    
   102   50   51 2    
   103   50   52 1    
   104   52   53 1    
   105   52   54 1    
   106   52  175 1    
   107   53  176 1    
   108   53  177 1    
   109   53  178 1    
   110   54   55 am   BACKBONE|DICT|INTERRES
   111   54  179 1    
   112   55   56 2    
   113   55   57 1    
   114   57   58 1    
   115   57   59 1    
   116   57  180 1    
   117   58  181 1    
   118   58  182 1    
   119   58  183 1    
   120   59   60 am   BACKBONE|DICT|INTERRES
   121   59  184 1    
   122   60   61 2    
   123   60   62 1    
   124   62   63 1    
   125   62   64 1    
   126   62  185 1    
   127   63  186 1    
   128   63  187 1    
   129   63  188 1    
   130   64   65 am   BACKBONE|DICT|INTERRES
   131   64  189 1    
   132   65   66 2    
   133   67   68 2    
   134   67   69 am   BACKBONE|DICT|INTERRES
   135   69   70 1    
   136   69  190 1    
   137   70   71 1    
   138   70   72 1    
   139   70  191 1    
   140   71  192 1    
   141   71  193 1    
   142   71  194 1    
   143   72   73 2    
   144   72   74 am   BACKBONE|DICT|INTERRES
   145   74   75 1    
   146   74  195 1    
   147   75   76 1    
   148   75   77 1    
   149   75  196 1    
   150   76  197 1    
   151   76  198 1    
   152   76  199 1    
   153   77   78 2    
   154   77   79 am   BACKBONE|DICT|INTERRES
   155   79   80 1    
   156   79  200 1    
   157   80   81 1    
   158   80   82 1    
   159   80  201 1    
   160   81  202 1    
   161   81  203 1    
   162   81  204 1    
   163   82   83 2    
   164   82   84 am   BACKBONE|DICT|INTERRES
   165   84   85 1    
   166   84  205 1    
   167   85   86 1    
   168   85   87 1    
   169   85  206 1    
   170   86  207 1    
   171   86  208 1    
   172   86  209 1    
   173   87   88 2    
   174   87   89 am   BACKBONE|DICT|INTERRES
   175   89   90 1    
   176   89  210 1    
   177   90   91 1    
   178   90   92 1    
   179   90  211 1    
   180   91  212 1    
   181   91  213 1    
   182   91  214 1    
   183   92   93 2    
   184   92   94 am   BACKBONE|DICT|INTERRES
   185   94   95 1    
   186   94  215 1    
   187   95   96 1    
   188   95   97 1    
   189   95  216 1    
   190   96  217 1    
   191   96  218 1    
   192   96  219 1    
   193   97   98 2    
   194   97   99 am   BACKBONE|DICT|INTERRES
   195   99  100 1    
   196   99  220 1    
   197  100  101 1    
   198  100  102 1    
   199  100  221 1    
   200  101  222 1    
   201  101  223 1    
   202  101  224 1    
   203  102  103 2    
   204  102  104 am   BACKBONE|DICT|INTERRES
   205  104  105 1    
   206  104  225 1    
   207  105  106 1    
   208  105  107 1    
   209  105  226 1    
   210  106  227 1    
   211  106  228 1    
   212  106  229 1    
   213  107  108 2    
   214  107  109 am   BACKBONE|DICT|INTERRES
   215  109  110 1    
   216  109  230 1    
   217  110  111 1    
   218  110  112 1    
   219  110  231 1    
   220  111  232 1    
   221  111  233 1    
   222  111  234 1    
   223  112  113 2    
   224  112  114 am   BACKBONE|DICT|INTERRES
   225  114  115 1    
   226  114  235 1    
   227  115  116 1    
   228  115  117 1    
   229  115  236 1    
   230  116  237 1    
   231  116  238 1    
   232  116  239 1    
   233  117  118 2    
   234  117  119 am   BACKBONE|DICT|INTERRES
   235  119  120 1    
   236  119  240 1    
   237  120  121 1    
   238  120  124 1    
   239  120  241 1    
   240  121  122 am   BACKBONE|DICT|INTERRES
   241  121  123 2    
   242  122  242 1    
   243  122  243 1    
   244  124  125 1    
   245  124  244 1    
   246  124  245 1    
   247  125  126 1    
   248  126  246 1    
   249  126  247 1    
@<TRIPOS>SUBSTRUCTURE
     1 UNK         1 GROUP             0       ****    0 ROOT    
