@<TRIPOS>MOLECULE
3R540
247   249    1
SMALL
USER_CHARGES


@<TRIPOS>ATOM
      1 CA         -6.1453  -13.2500  -50.6550 C.3       0 UNK        -0.1800 
      2 C          -4.6422  -13.4883  -50.6348 C.2       0 UNK         0.5000 
      3 O          -3.9082  -12.8371  -51.3779 O.2       0 UNK        -0.5000 
      4 N          -4.1855  -14.4199  -49.7883 N.am      1 UNK        -0.5000 
      5 CA         -2.7759  -14.8109  -49.6542 C.3       1 UNK         0.1400 
      6 C6         -2.6342  -16.2088  -48.9878 C.3       23 UNK        -0.0398 
      7 S7         -1.7725  -17.4165  -50.0449 S.3       23 UNK        -0.2404 
      8 C8         -0.0501  -17.1328  -49.5318 C.3       23 UNK        -0.0205 
      9 C9          0.9287  -18.0522  -50.2467 C.ar      23 UNK        -0.0193 
     10 C10         1.0136  -18.0487  -51.6420 C.ar      23 UNK        -0.1150 
     11 C11         1.9472  -18.8462  -52.3103 C.ar      23 UNK        -0.0193 
     12 C12         2.8105  -19.6512  -51.5550 C.ar      23 UNK        -0.1150 
     13 C13         2.7340  -19.6697  -50.1587 C.ar      23 UNK        -0.0193 
     14 C14         1.7905  -18.8680  -49.5105 C.ar      23 UNK        -0.1150 
     15 C15         3.6999  -20.5295  -49.3574 C.3       23 UNK        -0.0205 
     16 S16         2.9390  -22.0939  -48.8244 S.3       23 UNK        -0.2404 
     17 C17         2.3273  -21.6487  -47.1643 C.3       23 UNK        -0.0398 
     18 CA          1.0130  -22.3696  -46.7878 C.3       11 UNK         0.1400 
     19 N           0.8356  -22.4245  -45.3357 N.am      11 UNK        -0.5000 
     20 C          -0.0840  -23.1686  -44.7069 C.2       10 UNK         0.5000 
     21 O          -0.8523  -23.9393  -45.2844 O.2       10 UNK        -0.5000 
     22 CA         -0.1943  -22.9746  -43.1828 C.3       10 UNK         0.1400 
     23 CB          0.9017  -23.7603  -42.4477 C.3       10 UNK        -0.1800 
     24 N          -0.1294  -21.5627  -42.7982 N.am      10 UNK        -0.5000 
     25 C          -1.0465  -20.6474  -43.1424 C.2       9 UNK         0.5000 
     26 O          -2.0781  -20.9179  -43.7559 O.2       9 UNK        -0.5000 
     27 CA         -0.7417  -19.1804  -42.7906 C.3       9 UNK         0.1400 
     28 CB         -1.1312  -18.8679  -41.3390 C.3       9 UNK        -0.1800 
     29 N           0.6591  -18.8227  -43.0119 N.am      9 UNK        -0.5000 
     30 C           1.2707  -18.8071  -44.2040 C.2       8 UNK         0.5000 
     31 O           0.7108  -19.0699  -45.2639 O.2       8 UNK        -0.5000 
     32 CA          2.7721  -18.4848  -44.2154 C.3       8 UNK         0.1400 
     33 CB          3.0100  -16.9678  -44.1630 C.3       8 UNK        -0.1800 
     34 N           3.4758  -19.1458  -43.1181 N.am      8 UNK        -0.5000 
     35 C           3.6338  -20.4737  -43.0170 C.2       7 UNK         0.5000 
     36 O           3.2417  -21.2769  -43.8645 O.2       7 UNK        -0.5000 
     37 CA          4.2985  -20.9869  -41.7274 C.3       7 UNK         0.1400 
     38 CB          5.8281  -20.8955  -41.8307 C.3       7 UNK        -0.1800 
     39 N           3.8450  -20.2568  -40.5418 N.am      7 UNK        -0.5000 
     40 C           2.5988  -20.3178  -40.0517 C.2       6 UNK         0.5000 
     41 O           1.7114  -21.0258  -40.5281 O.2       6 UNK        -0.5000 
     42 CA          2.2803  -19.3953  -38.8594 C.3       6 UNK         0.1400 
     43 CB          2.7111  -20.0503  -37.5386 C.3       6 UNK        -0.1800 
     44 N           2.8894  -18.0643  -38.9665 N.am      6 UNK        -0.5000 
     45 C           2.6255  -17.1883  -39.9449 C.2       5 UNK         0.5000 
     46 O           1.8859  -17.4368  -40.8981 O.2       5 UNK        -0.5000 
     47 CA          3.3441  -15.8284  -39.8792 C.3       5 UNK         0.1400 
     48 CB          4.7290  -15.9304  -40.5376 C.3       5 UNK        -0.1800 
     49 N           2.5768  -14.7789  -40.5554 N.am      5 UNK        -0.5000 
     50 C           1.4173  -14.2772  -40.1041 C.2       4 UNK         0.5000 
     51 O           0.9128  -14.5847  -39.0233 O.2       4 UNK        -0.5000 
     52 CA          0.6897  -13.2840  -41.0216 C.3       4 UNK         0.1400 
     53 CB          1.3696  -11.9033  -41.0119 C.3       4 UNK        -0.1800 
     54 N           0.6080  -13.8055  -42.3866 N.am      4 UNK        -0.5000 
     55 C          -0.3811  -13.5352  -43.2464 C.2       3 UNK         0.5000 
     56 O          -1.3321  -12.7927  -42.9868 O.2       3 UNK        -0.5000 
     57 CA         -0.3061  -14.2499  -44.6114 C.3       3 UNK         0.1400 
     58 CB         -0.7251  -15.7214  -44.4730 C.3       3 UNK        -0.1800 
     59 N          -1.1539  -13.6174  -45.6236 N.am      3 UNK        -0.5000 
     60 C          -0.9014  -12.4404  -46.2120 C.2       2 UNK         0.5000 
     61 O           0.1267  -11.7887  -46.0161 O.2       2 UNK        -0.5000 
     62 CA         -1.9873  -11.9188  -47.1820 C.3       2 UNK         0.1400 
     63 CB         -1.5090  -10.7335  -48.0473 C.3       2 UNK        -0.1800 
     64 N          -2.5731  -12.9732  -48.0227 N.am      2 UNK        -0.5000 
     65 C          -1.9305  -13.7510  -48.9103 C.2       1 UNK         0.5000 
     66 O          -0.7254  -13.6699  -49.1479 O.2       1 UNK        -0.5000 
     67 C          -0.2220  -21.7631  -47.4908 C.2       11 UNK         0.5000 
     68 O          -0.6782  -22.3113  -48.4916 O.2       11 UNK        -0.5000 
     69 N          -0.7843  -20.6879  -46.9213 N.am      12 UNK        -0.5000 
     70 CA         -2.0090  -20.0354  -47.3811 C.3       12 UNK         0.1400 
     71 CB         -2.2513  -18.7501  -46.5794 C.3       12 UNK        -0.1800 
     72 C          -3.2456  -20.9423  -47.3107 C.2       12 UNK         0.5000 
     73 O          -4.0663  -20.9068  -48.2262 O.2       12 UNK        -0.5000 
     74 N          -3.3497  -21.7514  -46.2478 N.am      13 UNK        -0.5000 
     75 CA         -4.3935  -22.7618  -46.0819 C.3       13 UNK         0.1400 
     76 CB         -4.3367  -23.3451  -44.6621 C.3       13 UNK        -0.1800 
     77 C          -4.2975  -23.8703  -47.1452 C.2       13 UNK         0.5000 
     78 O          -5.3167  -24.2318  -47.7342 O.2       13 UNK        -0.5000 
     79 N          -3.0722  -24.3444  -47.4166 N.am      14 UNK        -0.5000 
     80 CA         -2.7729  -25.3011  -48.4862 C.3       14 UNK         0.1400 
     81 CB         -1.3191  -25.7805  -48.3566 C.3       14 UNK        -0.1800 
     82 C          -3.0457  -24.7289  -49.8926 C.2       14 UNK         0.5000 
     83 O          -3.5511  -25.4481  -50.7543 O.2       14 UNK        -0.5000 
     84 N          -2.7531  -23.4351  -50.0794 N.am      15 UNK        -0.5000 
     85 CA         -3.0217  -22.6633  -51.2936 C.3       15 UNK         0.1400 
     86 CB         -2.0707  -21.4555  -51.3377 C.3       15 UNK        -0.1800 
     87 C          -4.4877  -22.2007  -51.4347 C.2       15 UNK         0.5000 
     88 O          -4.7992  -21.4878  -52.3911 O.2       15 UNK        -0.5000 
     89 N          -5.3559  -22.5699  -50.4807 N.am      16 UNK        -0.5000 
     90 CA         -6.7859  -22.2547  -50.4131 C.3       16 UNK         0.1400 
     91 CB         -7.5488  -23.0267  -51.5100 C.3       16 UNK        -0.1800 
     92 C          -7.0702  -20.7370  -50.4317 C.2       16 UNK         0.5000 
     93 O          -7.9588  -20.2821  -51.1517 O.2       16 UNK        -0.5000 
     94 N          -6.2737  -19.9745  -49.6683 N.am      17 UNK        -0.5000 
     95 CA         -6.2738  -18.5093  -49.5817 C.3       17 UNK         0.1400 
     96 CB         -7.5729  -17.9914  -48.9307 C.3       17 UNK        -0.1800 
     97 C          -5.9586  -17.8355  -50.9352 C.2       17 UNK         0.5000 
     98 O          -6.5639  -16.8209  -51.2818 O.2       17 UNK        -0.5000 
     99 N          -5.0118  -18.4393  -51.6665 N.am      18 UNK        -0.5000 
    100 CA        -4.5131  -18.0793  -52.9973 C.3       18 UNK         0.1400 
    101 CB        -4.0519  -16.6085  -53.0749 C.3       18 UNK        -0.1800 
    102 C         -5.4548  -18.4569  -54.1585 C.2       18 UNK         0.5000 
    103 O         -5.1502  -18.1139  -55.3019 O.2       18 UNK        -0.5000 
    104 N         -6.5462  -19.1898  -53.8867 N.am      19 UNK        -0.5000 
    105 CA        -7.4343  -19.7371  -54.9195 C.3       19 UNK         0.1400 
    106 CB        -8.7500  -20.2063  -54.2830 C.3       19 UNK        -0.1800 
    107 C         -6.7793  -20.8817  -55.7195 C.2       19 UNK         0.5000 
    108 O         -7.1253  -21.0839  -56.8839 O.2       19 UNK        -0.5000 
    109 N         -5.8283  -21.5829  -55.0927 N.am      20 UNK        -0.5000 
    110 CA        -4.9638  -22.5915  -55.6918 C.3       20 UNK         0.1400 
    111 CB        -5.3562  -23.9760  -55.1439 C.3       20 UNK        -0.1800 
    112 C         -3.5159  -22.1974  -55.3592 C.2       20 UNK         0.5000 
    113 O         -2.8268  -22.9286  -54.6478 O.2       20 UNK        -0.5000 
    114 N         -3.1215  -21.0012  -55.8243 N.am      21 UNK        -0.5000 
    115 CA        -1.8919  -20.2698  -55.4994 C.3       21 UNK         0.1400 
    116 CB        -1.6987  -19.1331  -56.5148 C.3       21 UNK        -0.1800 
    117 C         -0.6208  -21.1365  -55.3972 C.2       21 UNK         0.5000 
    118 O         -0.2212  -21.7659  -56.3786 O.2       21 UNK        -0.5000 
    119 N         -0.0385  -21.1427  -54.1927 N.am      22 UNK        -0.5000 
    120 CA         1.1391  -21.9129  -53.7645 C.3       22 UNK         0.1400 
    121 C          0.8919  -23.4467  -53.6022 C.2       22 UNK         0.5000 
    122 N         -0.3190  -23.9664  -53.7619 N.am      22 UNK        -0.7600 
    123 O          1.8190  -24.1884  -53.2886 O.2       22 UNK        -0.5000 
    124 C124        2.4296  -21.6265  -54.5914 C.3       23 UNK        -0.0398 
    125 S125        3.1082  -19.9223  -54.7117 S.3       23 UNK        -0.2404 
    126 C126        1.9997  -18.7567  -53.8371 C.3       23 UNK        -0.0205 
    127 H127       -6.5388  -13.4357  -51.6544 H         1 UNK         0.0600 
    128 H128       -6.3673  -12.2178  -50.3843 H         1 UNK         0.0600 
    129 H129       -6.6694  -13.9066  -49.9599 H         1 UNK         0.0600 
    130 H130       -4.8458  -14.9177  -49.2094 H         1 UNK         0.3000 
    131 H131       -2.3648  -14.8579  -50.6651 H         1 UNK         0.0600 
    132 H132       -2.1335  -16.1610  -48.0190 H         1 UNK         0.0800 
    133 H133       -3.6135  -16.6351  -48.7711 H         1 UNK         0.0800 
    134 H134        0.2256  -16.1004  -49.7474 H         1 UNK         0.0800 
    135 H135        0.0279  -17.2572  -48.4509 H         1 UNK         0.0800 
    136 H136        0.3550  -17.4058  -52.2096 H         1 UNK         0.1150 
    137 H137        3.5535  -20.2637  -52.0435 H         1 UNK         0.1150 
    138 H138        1.7380  -18.8610  -48.4318 H         1 UNK         0.1150 
    139 H139        4.5774  -20.7642  -49.9618 H         1 UNK         0.0800 
    140 H140        4.0740  -19.9743  -48.4959 H         1 UNK         0.0800 
    141 H141        2.2229  -20.5693  -47.0586 H         1 UNK         0.0800 
    142 H142        3.1163  -21.9350  -46.4678 H         1 UNK         0.0800 
    143 H143        1.0942  -23.4060  -47.1234 H         1 UNK         0.0600 
    144 H144        1.4518  -21.8410  -44.7804 H         1 UNK         0.3000 
    145 H145       -1.1637  -23.3657  -42.8669 H         1 UNK         0.0600 
    146 H146        0.7828  -23.6828  -41.3668 H         1 UNK         0.0600 
    147 H147        0.8624  -24.8194  -42.7051 H         1 UNK         0.0600 
    148 H148        1.8982  -23.3967  -42.6997 H         1 UNK         0.0600 
    149 H149        0.6644  -21.2743  -42.2351 H         1 UNK         0.3000 
    150 H150       -1.3495  -18.5500  -43.4415 H         1 UNK         0.0600 
    151 H151       -2.1850  -19.0865  -41.1621 H         1 UNK         0.0600 
    152 H152       -0.9730  -17.8143  -41.1072 H         1 UNK         0.0600 
    153 H153       -0.5498  -19.4570  -40.6301 H         1 UNK         0.0600 
    154 H154        1.1840  -18.5218  -42.1936 H         1 UNK         0.3000 
    155 H155        3.1852  -18.8585  -45.1548 H         1 UNK         0.0600 
    156 H156        2.6149  -16.5237  -43.2502 H         1 UNK         0.0600 
    157 H157        4.0732  -16.7336  -44.2178 H         1 UNK         0.0600 
    158 H158        2.5247  -16.4708  -45.0041 H         1 UNK         0.0600 
    159 H159        3.7788  -18.5628  -42.3532 H         1 UNK         0.3000 
    160 H160        4.0259  -22.0377  -41.6074 H         1 UNK         0.0600 
    161 H161        6.1666  -19.8632  -41.9277 H         1 UNK         0.0600 
    162 H162        6.1933  -21.4441  -42.7000 H         1 UNK         0.0600 
    163 H163        6.3085  -21.3252  -40.9515 H         1 UNK         0.0600 
    164 H164        4.5136  -19.6507  -40.0899 H         1 UNK         0.3000 
    165 H165        1.1971  -19.2603  -38.8317 H         1 UNK         0.0600 
    166 H166        2.4009  -19.4518  -36.6819 H         1 UNK         0.0600 
    167 H167        2.2573  -21.0359  -37.4255 H         1 UNK         0.0600 
    168 H168        3.7929  -20.1788  -37.4852 H         1 UNK         0.0600 
    169 H169        3.5193  -17.7966  -38.2239 H         1 UNK         0.3000 
    170 H170        3.4699  -15.5474  -38.8315 H         1 UNK         0.0600 
    171 H171        4.6576  -16.2024  -41.5913 H         1 UNK         0.0600 
    172 H172        5.2664  -14.9842  -40.4721 H         1 UNK         0.0600 
    173 H173        5.3443  -16.6845  -40.0451 H         1 UNK         0.0600 
    174 H174        2.9489  -14.4509  -41.4329 H         1 UNK         0.3000 
    175 H175       -0.3209  -13.1709  -40.6224 H         1 UNK         0.0600 
    176 H176        0.7915  -11.1759  -41.5820 H         1 UNK         0.0600 
    177 H177        2.3714  -11.9430  -41.4407 H         1 UNK         0.0600 
    178 H178        1.4605  -11.5197  -39.9949 H         1 UNK         0.0600 
    179 H179        1.3093  -14.4836  -42.6448 H         1 UNK         0.3000 
    180 H180        0.7297  -14.2143  -44.9562 H         1 UNK         0.0600 
    181 H181       -1.7814  -15.8210  -44.2204 H         1 UNK         0.0600 
    182 H182       -0.1561  -16.2177  -43.6875 H         1 UNK         0.0600 
    183 H183       -0.5444  -16.2683  -45.3978 H         1 UNK         0.0600 
    184 H184       -2.0372  -14.0656  -45.8129 H         1 UNK         0.3000 
    185 H185       -2.7966  -11.5506  -46.5499 H         1 UNK         0.0600 
    186 H186       -1.2041   -9.8922  -47.4238 H         1 UNK         0.0600 
    187 H187       -0.6562  -11.0035  -48.6707 H         1 UNK         0.0600 
    188 H188       -2.3041  -10.3786  -48.7030 H         1 UNK         0.0600 
    189 H189       -3.5670  -13.1162  -47.9125 H         1 UNK         0.3000 
    190 H190       -0.3094  -20.2448  -46.1372 H         1 UNK         0.3000 
    191 H191       -1.8571  -19.7672  -48.4258 H         1 UNK         0.0600 
    192 H192       -1.4143  -18.0621  -46.6811 H         1 UNK         0.0600 
    193 H193       -3.1477  -18.2368  -46.9270 H         1 UNK         0.0600 
    194 H194       -2.3894  -18.9550  -45.5194 H         1 UNK         0.0600 
    195 H195       -2.6739  -21.6598  -45.4955 H         1 UNK         0.3000 
    196 H196       -5.3590  -22.2664  -46.2043 H         1 UNK         0.0600 
    197 H197       -5.1294  -24.0785  -44.5103 H         1 UNK         0.0600 
    198 H198       -4.4663  -22.5652  -43.9115 H         1 UNK         0.0600 
    199 H199       -3.3874  -23.8425  -44.4647 H         1 UNK         0.0600 
    200 H200       -2.2867  -24.0068  -46.8709 H         1 UNK         0.3000 
    201 H201       -3.4259  -26.1655  -48.3495 H         1 UNK         0.0600 
    202 H202       -1.1383  -26.2318  -47.3808 H         1 UNK         0.0600 
    203 H203       -0.6093  -24.9630  -48.4821 H         1 UNK         0.0600 
    204 H204       -1.0885  -26.5325  -49.1120 H         1 UNK         0.0600 
    205 H205       -2.2549  -22.9450  -49.3407 H         1 UNK         0.3000 
    206 H206       -2.8024  -23.3026  -52.1483 H         1 UNK         0.0600 
    207 H207       -1.0282  -21.7709  -51.2895 H         1 UNK         0.0600 
    208 H208       -2.1996  -20.8885  -52.2591 H         1 UNK         0.0600 
    209 H209       -2.2525  -20.7728  -50.5083 H         1 UNK         0.0600 
    210 H210       -4.9964  -23.1108  -49.7049 H         1 UNK         0.3000 
    211 H211       -7.1365  -22.6177  -49.4461 H         1 UNK         0.0600 
    212 H212       -7.2442  -22.7179  -52.5101 H         1 UNK         0.0600 
    213 H213       -8.6245  -22.8667  -51.4291 H         1 UNK         0.0600 
    214 H214       -7.3742  -24.0993  -51.4268 H         1 UNK         0.0600 
    215 H215       -5.5337  -20.4371  -49.1396 H         1 UNK         0.3000 
    216 H216       -5.4500  -18.2507  -48.9157 H         1 UNK         0.0600 
    217 H217       -7.5148  -16.9188  -48.7428 H         1 UNK         0.0600 
    218 H218       -7.7544  -18.4786  -47.9727 H         1 UNK         0.0600 
    219 H219       -8.4426  -18.1641  -49.5653 H         1 UNK         0.0600 
    220 H220       -4.6340  -19.3019  -51.2991 H         1 UNK         0.3000 
    221 H221       -3.6253  -18.6965  -53.1336 H         1 UNK         0.0600 
    222 H222       -4.8924  -15.9146  -53.0616 H         1 UNK         0.0600 
    223 H223       -3.3944  -16.3534  -52.2469 H         1 UNK         0.0600 
    224 H224       -3.4960  -16.4228  -53.9944 H         1 UNK         0.0600 
    225 H225       -6.7425  -19.4500  -52.9283 H         1 UNK         0.3000 
    226 H226       -7.6706  -18.9353  -55.6222 H         1 UNK         0.0600 
    227 H227       -9.2165  -19.4100  -53.7028 H         1 UNK         0.0600 
    228 H228       -9.4635  -20.5135  -55.0485 H         1 UNK         0.0600 
    229 H229       -8.5967  -21.0587  -53.6219 H         1 UNK         0.0600 
    230 H230       -5.5927  -21.3429  -54.1319 H         1 UNK         0.3000 
    231 H231       -5.0625  -22.6014  -56.7791 H         1 UNK         0.0600 
    232 H232       -5.2682  -24.0189  -54.0572 H         1 UNK         0.0600 
    233 H233       -4.7170  -24.7561  -55.5588 H         1 UNK         0.0600 
    234 H234       -6.3852  -24.2235  -55.4044 H         1 UNK         0.0600 
    235 H235       -3.7852  -20.4894  -56.3876 H         1 UNK         0.3000 
    236 H236       -2.0644  -19.8065  -54.5273 H         1 UNK         0.0600 
    237 H237       -2.5385  -18.4381  -56.4957 H         1 UNK         0.0600 
    238 H238       -0.7982  -18.5585  -56.2937 H         1 UNK         0.0600 
    239 H239       -1.6023  -19.5167  -57.5313 H         1 UNK         0.0600 
    240 H240       -0.4674  -20.6045  -53.4556 H         1 UNK         0.3000 
    241 H241        1.3292  -21.5842  -52.7446 H         1 UNK         0.0600 
    242 H242       -1.1145  -23.4058  -54.0575 H         1 UNK         0.3800 
    243 H243       -0.4408  -24.9578  -53.6373 H         1 UNK         0.3800 
    244 H244        3.2509  -22.2226  -54.1903 H         1 UNK         0.0800 
    245 H245        2.2954  -21.9893  -55.6110 H         1 UNK         0.0800 
    246 H246        0.9979  -18.8041  -54.2593 H         1 UNK         0.0800 
    247 H247        2.3565  -17.7548  -54.0791 H         1 UNK         0.0800 
@<TRIPOS>BOND
     1    1    2 1    
     2    1  127 1    
     3    1  128 1    
     4    1  129 1    
     5    2    3 2    
     6    2    4 am   BACKBONE|DICT|INTERRES
     7    4    5 1    
     8    4  130 1    
     9    5    6 1    
    10    5   65 1    
    11    5  131 1    
    12    6    7 1    
    13    6  132 1    
    14    6  133 1    
    15    7    8 1    
    16    8    9 1    
    17    8  134 1    
    18    8  135 1    
    19    9   10 ar   
    20    9   14 ar   
    21   10   11 ar   
    22   10  136 1    
    23   11   12 ar   
    24   11  126 1    
    25   12   13 ar   
    26   12  137 1    
    27   13   14 ar   
    28   13   15 1    
    29   14  138 1    
    30   15   16 1    
    31   15  139 1    
    32   15  140 1    
    33   16   17 1    
    34   17   18 1    
    35   17  141 1    
    36   17  142 1    
    37   18   19 1    
    38   18   67 1    
    39   18  143 1    
    40   19   20 am   BACKBONE|DICT|INTERRES
    41   19  144 1    
    42   20   21 2    
    43   20   22 1    
    44   22   23 1    
    45   22   24 1    
    46   22  145 1    
    47   23  146 1    
    48   23  147 1    
    49   23  148 1    
    50   24   25 am   BACKBONE|DICT|INTERRES
    51   24  149 1    
    52   25   26 2    
    53   25   27 1    
    54   27   28 1    
    55   27   29 1    
    56   27  150 1    
    57   28  151 1    
    58   28  152 1    
    59   28  153 1    
    60   29   30 am   BACKBONE|DICT|INTERRES
    61   29  154 1    
    62   30   31 2    
    63   30   32 1    
    64   32   33 1    
    65   32   34 1    
    66   32  155 1    
    67   33  156 1    
    68   33  157 1    
    69   33  158 1    
    70   34   35 am   BACKBONE|DICT|INTERRES
    71   34  159 1    
    72   35   36 2    
    73   35   37 1    
    74   37   38 1    
    75   37   39 1    
    76   37  160 1    
    77   38  161 1    
    78   38  162 1    
    79   38  163 1    
    80   39   40 am   BACKBONE|DICT|INTERRES
    81   39  164 1    
    82   40   41 2    
    83   40   42 1    
    84   42   43 1    
    85   42   44 1    
    86   42  165 1    
    87   43  166 1    
    88   43  167 1    
    89   43  168 1    
    90   44   45 am   BACKBONE|DICT|INTERRES
    91   44  169 1    
    92   45   46 2    
    93   45   47 1    
    94   47   48 1    
    95   47   49 1    
    96   47  170 1    
    97   48  171 1    
    98   48  172 1    
    99   48  173 1    
   100   49   50 am   BACKBONE|DICT|INTERRES
   101   49  174 1    
   102   50   51 2    
   103   50   52 1    
   104   52   53 1    
   105   52   54 1    
   106   52  175 1    
   107   53  176 1    
   108   53  177 1    
   109   53  178 1    
   110   54   55 am   BACKBONE|DICT|INTERRES
   111   54  179 1    
   112   55   56 2    
   113   55   57 1    
   114   57   58 1    
   115   57   59 1    
   116   57  180 1    
   117   58  181 1    
   118   58  182 1    
   119   58  183 1    
   120   59   60 am   BACKBONE|DICT|INTERRES
   121   59  184 1    
   122   60   61 2    
   123   60   62 1    
   124   62   63 1    
   125   62   64 1    
   126   62  185 1    
   127   63  186 1    
   128   63  187 1    
   129   63  188 1    
   130   64   65 am   BACKBONE|DICT|INTERRES
   131   64  189 1    
   132   65   66 2    
   133   67   68 2    
   134   67   69 am   BACKBONE|DICT|INTERRES
   135   69   70 1    
   136   69  190 1    
   137   70   71 1    
   138   70   72 1    
   139   70  191 1    
   140   71  192 1    
   141   71  193 1    
   142   71  194 1    
   143   72   73 2    
   144   72   74 am   BACKBONE|DICT|INTERRES
   145   74   75 1    
   146   74  195 1    
   147   75   76 1    
   148   75   77 1    
   149   75  196 1    
   150   76  197 1    
   151   76  198 1    
   152   76  199 1    
   153   77   78 2    
   154   77   79 am   BACKBONE|DICT|INTERRES
   155   79   80 1    
   156   79  200 1    
   157   80   81 1    
   158   80   82 1    
   159   80  201 1    
   160   81  202 1    
   161   81  203 1    
   162   81  204 1    
   163   82   83 2    
   164   82   84 am   BACKBONE|DICT|INTERRES
   165   84   85 1    
   166   84  205 1    
   167   85   86 1    
   168   85   87 1    
   169   85  206 1    
   170   86  207 1    
   171   86  208 1    
   172   86  209 1    
   173   87   88 2    
   174   87   89 am   BACKBONE|DICT|INTERRES
   175   89   90 1    
   176   89  210 1    
   177   90   91 1    
   178   90   92 1    
   179   90  211 1    
   180   91  212 1    
   181   91  213 1    
   182   91  214 1    
   183   92   93 2    
   184   92   94 am   BACKBONE|DICT|INTERRES
   185   94   95 1    
   186   94  215 1    
   187   95   96 1    
   188   95   97 1    
   189   95  216 1    
   190   96  217 1    
   191   96  218 1    
   192   96  219 1    
   193   97   98 2    
   194   97   99 am   BACKBONE|DICT|INTERRES
   195   99  100 1    
   196   99  220 1    
   197  100  101 1    
   198  100  102 1    
   199  100  221 1    
   200  101  222 1    
   201  101  223 1    
   202  101  224 1    
   203  102  103 2    
   204  102  104 am   BACKBONE|DICT|INTERRES
   205  104  105 1    
   206  104  225 1    
   207  105  106 1    
   208  105  107 1    
   209  105  226 1    
   210  106  227 1    
   211  106  228 1    
   212  106  229 1    
   213  107  108 2    
   214  107  109 am   BACKBONE|DICT|INTERRES
   215  109  110 1    
   216  109  230 1    
   217  110  111 1    
   218  110  112 1    
   219  110  231 1    
   220  111  232 1    
   221  111  233 1    
   222  111  234 1    
   223  112  113 2    
   224  112  114 am   BACKBONE|DICT|INTERRES
   225  114  115 1    
   226  114  235 1    
   227  115  116 1    
   228  115  117 1    
   229  115  236 1    
   230  116  237 1    
   231  116  238 1    
   232  116  239 1    
   233  117  118 2    
   234  117  119 am   BACKBONE|DICT|INTERRES
   235  119  120 1    
   236  119  240 1    
   237  120  121 1    
   238  120  124 1    
   239  120  241 1    
   240  121  122 am   BACKBONE|DICT|INTERRES
   241  121  123 2    
   242  122  242 1    
   243  122  243 1    
   244  124  125 1    
   245  124  244 1    
   246  124  245 1    
   247  125  126 1    
   248  126  246 1    
   249  126  247 1    
@<TRIPOS>SUBSTRUCTURE
     1 UNK         1 GROUP             0       ****    0 ROOT    
