@<TRIPOS>MOLECULE
3R540
247   249    1
SMALL
USER_CHARGES


@<TRIPOS>ATOM
      1 CA         -4.8737  -16.9418  -47.9588 C.3       0 UNK        -0.1800 
      2 C          -5.4473  -15.5294  -47.9484 C.2       0 UNK         0.5000 
      3 O          -6.6553  -15.3841  -47.7761 O.2       0 UNK        -0.5000 
      4 N          -4.6614  -14.4541  -48.1085 N.am      1 UNK        -0.5000 
      5 CA         -3.2122  -14.3555  -48.3518 C.3       1 UNK         0.1400 
      6 C6         -2.7536  -14.9171  -49.7344 C.3       23 UNK        -0.0398 
      7 S7         -2.0676  -16.6136  -49.8133 S.3       23 UNK        -0.2404 
      8 C8         -0.4927  -16.2871  -50.6602 C.3       23 UNK        -0.0205 
      9 C9          0.2594  -17.5738  -50.9482 C.ar      23 UNK        -0.0193 
     10 C10         0.0570  -18.2560  -52.1512 C.ar      23 UNK        -0.1150 
     11 C11         0.7614  -19.4322  -52.4267 C.ar      23 UNK        -0.0193 
     12 C12         1.6576  -19.9339  -51.4782 C.ar      23 UNK        -0.1150 
     13 C13         1.8439  -19.2751  -50.2596 C.ar      23 UNK        -0.0193 
     14 C14         1.1554  -18.0854  -50.0074 C.ar      23 UNK        -0.1150 
     15 C15         2.7433  -19.8766  -49.1902 C.3       23 UNK        -0.0205 
     16 S16         1.9503  -21.2984  -48.3708 S.3       23 UNK        -0.2404 
     17 C17         0.3973  -20.5440  -47.7821 C.3       23 UNK        -0.0398 
     18 CA         -0.4545  -21.5286  -46.9534 C.3       11 UNK         0.1400 
     19 N           0.0849  -21.7298  -45.6064 N.am      11 UNK        -0.5000 
     20 C          -0.3725  -22.6327  -44.7290 C.2       10 UNK         0.5000 
     21 O          -1.2693  -23.4362  -44.9828 O.2       10 UNK        -0.5000 
     22 CA          0.2340  -22.5979  -43.3153 C.3       10 UNK         0.1400 
     23 CB          1.6022  -23.2951  -43.2888 C.3       10 UNK        -0.1800 
     24 N           0.3569  -21.2365  -42.7900 N.am      10 UNK        -0.5000 
     25 C          -0.6801  -20.4248  -42.5352 C.2       9 UNK         0.5000 
     26 O          -1.8565  -20.7593  -42.6763 O.2       9 UNK        -0.5000 
     27 CA         -0.3518  -18.9834  -42.0987 C.3       9 UNK         0.1400 
     28 CB          0.0269  -18.9256  -40.6118 C.3       9 UNK        -0.1800 
     29 N           0.7148  -18.3821  -42.8986 N.am      9 UNK        -0.5000 
     30 C           0.6351  -18.1503  -44.2163 C.2       8 UNK         0.5000 
     31 O          -0.3716  -18.3625  -44.8899 O.2       8 UNK        -0.5000 
     32 CA          1.9118  -17.6442  -44.9065 C.3       8 UNK         0.1400 
     33 CB          2.0646  -16.1284  -44.7269 C.3       8 UNK        -0.1800 
     34 N           3.1095  -18.3266  -44.4150 N.am      8 UNK        -0.5000 
     35 C           3.3649  -19.6283  -44.6099 C.2       7 UNK         0.5000 
     36 O           2.6212  -20.3829  -45.2327 O.2       7 UNK        -0.5000 
     37 CA          4.6382  -20.1910  -43.9555 C.3       7 UNK         0.1400 
     38 CB          5.8817  -19.8252  -44.7797 C.3       7 UNK        -0.1800 
     39 N           4.8076  -19.7251  -42.5794 N.am      7 UNK        -0.5000 
     40 C           3.9807  -20.0316  -41.5694 C.2       6 UNK         0.5000 
     41 O           3.0093  -20.7779  -41.6820 O.2       6 UNK        -0.5000 
     42 CA          4.2591  -19.3514  -40.2167 C.3       6 UNK         0.1400 
     43 CB          5.2501  -20.1823  -39.3884 C.3       6 UNK        -0.1800 
     44 N           4.7617  -17.9806  -40.3464 N.am      6 UNK        -0.5000 
     45 C           4.0859  -16.9740  -40.9155 C.2       5 UNK         0.5000 
     46 O           2.9802  -17.1038  -41.4463 O.2       5 UNK        -0.5000 
     47 CA          4.7891  -15.6056  -40.9428 C.3       5 UNK         0.1400 
     48 CB          5.4025  -15.3507  -42.3285 C.3       5 UNK        -0.1800 
     49 N           3.8630  -14.5208  -40.6263 N.am      5 UNK        -0.5000 
     50 C           3.2889  -14.3241  -39.4309 C.2       4 UNK         0.5000 
     51 O           3.5570  -14.9879  -38.4282 O.2       4 UNK        -0.5000 
     52 CA          2.2476  -13.1893  -39.3284 C.3       4 UNK         0.1400 
     53 CB          2.8672  -11.9505  -38.6626 C.3       4 UNK        -0.1800 
     54 N           1.6695  -12.7945  -40.6174 N.am      4 UNK        -0.5000 
     55 C           0.8465  -13.5584  -41.3467 C.2       3 UNK         0.5000 
     56 O           0.4657  -14.6798  -40.9983 O.2       3 UNK        -0.5000 
     57 CA          0.3797  -12.9750  -42.6900 C.3       3 UNK         0.1400 
     58 CB          1.5624  -12.6236  -43.6153 C.3       3 UNK        -0.1800 
     59 N          -0.4888  -13.9574  -43.3267 N.am      3 UNK        -0.5000 
     60 C          -1.4274  -13.7049  -44.2405 C.2       2 UNK         0.5000 
     61 O          -1.6451  -12.5863  -44.7138 O.2       2 UNK        -0.5000 
     62 CA         -2.3065  -14.9063  -44.6377 C.3       2 UNK         0.1400 
     63 CB         -3.3952  -15.1280  -43.5740 C.3       2 UNK        -0.1800 
     64 N          -2.9550  -14.7232  -45.9356 N.am      2 UNK        -0.5000 
     65 C          -2.3294  -14.6833  -47.1209 C.2       1 UNK         0.5000 
     66 O          -1.1155  -14.8471  -47.2517 O.2       1 UNK        -0.5000 
     67 C          -1.9304  -21.0826  -46.9291 C.2       11 UNK         0.5000 
     68 O          -2.7201  -21.5766  -47.7340 O.2       11 UNK        -0.5000 
     69 N          -2.2933  -20.1905  -45.9982 N.am      12 UNK        -0.5000 
     70 CA         -3.6693  -19.7437  -45.7925 C.3       12 UNK         0.1400 
     71 CB         -3.6910  -18.5368  -44.8485 C.3       12 UNK        -0.1800 
     72 C          -4.5889  -20.8656  -45.2825 C.2       12 UNK         0.5000 
     73 O          -5.7073  -20.9951  -45.7792 O.2       12 UNK        -0.5000 
     74 N          -4.0891  -21.6883  -44.3492 N.am      13 UNK        -0.5000 
     75 CA         -4.7741  -22.8799  -43.8398 C.3       13 UNK         0.1400 
     76 CB         -3.9969  -23.4472  -42.6425 C.3       13 UNK        -0.1800 
     77 C          -4.9840  -23.9587  -44.9216 C.2       13 UNK         0.5000 
     78 O          -6.0308  -24.6068  -44.9405 O.2       13 UNK        -0.5000 
     79 N          -4.0047  -24.1010  -45.8249 N.am      14 UNK        -0.5000 
     80 CA         -4.0626  -24.9663  -47.0054 C.3       14 UNK         0.1400 
     81 CB         -2.6293  -25.2155  -47.5020 C.3       14 UNK        -0.1800 
     82 C          -4.9335  -24.4004  -48.1484 C.2       14 UNK         0.5000 
     83 O          -5.2107  -25.1298  -49.1010 O.2       14 UNK        -0.5000 
     84 N          -5.3294  -23.1219  -48.0456 N.am      15 UNK        -0.5000 
     85 CA         -6.0695  -22.3263  -49.0295 C.3       15 UNK         0.1400 
     86 CB         -7.4991  -22.8726  -49.2230 C.3       15 UNK        -0.1800 
     87 C          -5.3006  -22.1646  -50.3565 C.2       15 UNK         0.5000 
     88 O          -5.8972  -22.2394  -51.4330 O.2       15 UNK        -0.5000 
     89 N          -3.9822  -21.9356  -50.2589 N.am      16 UNK        -0.5000 
     90 CA         -3.0361  -21.8644  -51.3778 C.3       16 UNK         0.1400 
     91 CB         -1.6240  -21.6253  -50.8332 C.3       16 UNK        -0.1800 
     92 C          -3.3812  -20.8090  -52.4441 C.2       16 UNK         0.5000 
     93 O          -3.0836  -21.0229  -53.6191 O.2       16 UNK        -0.5000 
     94 N          -4.0566  -19.7259  -52.0365 N.am      17 UNK        -0.5000 
     95 CA         -4.5921  -18.6841  -52.9169 C.3       17 UNK         0.1400 
     96 CB         -5.2020  -17.5668  -52.0573 C.3       17 UNK        -0.1800 
     97 C          -5.6324  -19.1936  -53.9370 C.2       17 UNK         0.5000 
     98 O          -5.7883  -18.5733  -54.9888 O.2       17 UNK        -0.5000 
     99 N          -6.3105  -20.3041  -53.6191 N.am      18 UNK        -0.5000 
    100 CA        -7.2571  -20.9840  -54.4997 C.3       18 UNK         0.1400 
    101 CB        -8.5663  -21.2308  -53.7328 C.3       18 UNK        -0.1800 
    102 C         -6.6785  -22.3122  -55.0141 C.2       18 UNK         0.5000 
    103 O         -6.8481  -22.6280  -56.1920 O.2       18 UNK        -0.5000 
    104 N         -6.0225  -23.0736  -54.1262 N.am      19 UNK        -0.5000 
    105 CA        -5.5238  -24.4225  -54.3980 C.3       19 UNK         0.1400 
    106 CB        -5.1970  -25.1180  -53.0671 C.3       19 UNK        -0.1800 
    107 C         -4.3105  -24.4647  -55.3450 C.2       19 UNK         0.5000 
    108 O         -4.1891  -25.4177  -56.1163 O.2       19 UNK        -0.5000 
    109 N         -3.4421  -23.4485  -55.2717 N.am      20 UNK        -0.5000 
    110 CA        -2.2501  -23.3079  -56.1108 C.3       20 UNK         0.1400 
    111 CB        -1.0002  -23.2971  -55.2184 C.3       20 UNK        -0.1800 
    112 C         -2.3251  -22.0415  -56.9787 C.2       20 UNK         0.5000 
    113 O         -1.9198  -22.0893  -58.1405 O.2       20 UNK        -0.5000 
    114 N         -2.8698  -20.9528  -56.4133 N.am      21 UNK        -0.5000 
    115 CA        -3.1253  -19.6553  -57.0463 C.3       21 UNK         0.1400 
    116 CB        -4.2192  -19.7815  -58.1269 C.3       21 UNK        -0.1800 
    117 C         -1.8363  -18.9748  -57.5491 C.2       21 UNK         0.5000 
    118 O         -1.7205  -18.6419  -58.7305 O.2       21 UNK        -0.5000 
    119 N         -0.8850  -18.8000  -56.6235 N.am      22 UNK        -0.5000 
    120 CA         0.3972  -18.1050  -56.8228 C.3       22 UNK         0.1400 
    121 C          0.2251  -16.6310  -57.2901 C.2       22 UNK         0.5000 
    122 N          1.0613  -16.1608  -58.2056 N.am      22 UNK        -0.7600 
    123 O         -0.6293  -15.8989  -56.7951 O.2       22 UNK        -0.5000 
    124 C124        1.2659  -18.1435  -55.5392 C.3       23 UNK        -0.0398 
    125 S125        1.7225  -19.8336  -55.0217 S.3       23 UNK        -0.2404 
    126 C126        0.5086  -20.2009  -53.7150 C.3       23 UNK        -0.0205 
    127 H127       -3.8742  -16.9902  -47.5329 H         1 UNK         0.0600 
    128 H128       -5.5105  -17.6031  -47.3713 H         1 UNK         0.0600 
    129 H129       -4.8430  -17.3290  -48.9761 H         1 UNK         0.0600 
    130 H130       -5.1205  -13.5542  -48.0753 H         1 UNK         0.3000 
    131 H131       -3.0796  -13.2759  -48.4417 H         1 UNK         0.0600 
    132 H132       -3.5748  -14.8576  -50.4497 H         1 UNK         0.0800 
    133 H133       -1.9980  -14.2381  -50.1317 H         1 UNK         0.0800 
    134 H134        0.1183  -15.6262  -50.0429 H         1 UNK         0.0800 
    135 H135       -0.6836  -15.7542  -51.5931 H         1 UNK         0.0800 
    136 H136       -0.6569  -17.8734  -52.8667 H         1 UNK         0.1150 
    137 H137        2.1832  -20.8585  -51.6717 H         1 UNK         0.1150 
    138 H138        1.2921  -17.5715  -49.0662 H         1 UNK         0.1150 
    139 H139        3.0042  -19.1309  -48.4374 H         1 UNK         0.0800 
    140 H140        3.6820  -20.2011  -49.6411 H         1 UNK         0.0800 
    141 H141       -0.1538  -20.2084  -48.6599 H         1 UNK         0.0800 
    142 H142        0.6240  -19.6461  -47.2060 H         1 UNK         0.0800 
    143 H143       -0.4375  -22.4980  -47.4560 H         1 UNK         0.0600 
    144 H144        0.8751  -21.1449  -45.3462 H         1 UNK         0.3000 
    145 H145       -0.4378  -23.1492  -42.6542 H         1 UNK         0.0600 
    146 H146        1.9938  -23.3540  -42.2732 H         1 UNK         0.0600 
    147 H147        1.5286  -24.3148  -43.6688 H         1 UNK         0.0600 
    148 H148        2.3360  -22.7686  -43.8994 H         1 UNK         0.0600 
    149 H149        1.2993  -20.9071  -42.6012 H         1 UNK         0.3000 
    150 H150       -1.2510  -18.3806  -42.2416 H         1 UNK         0.0600 
    151 H151        0.9227  -19.5092  -40.4004 H         1 UNK         0.0600 
    152 H152       -0.7770  -19.3199  -39.9893 H         1 UNK         0.0600 
    153 H153        0.2143  -17.8994  -40.2936 H         1 UNK         0.0600 
    154 H154        1.5692  -18.1294  -42.4106 H         1 UNK         0.3000 
    155 H155        1.8206  -17.8504  -45.9750 H         1 UNK         0.0600 
    156 H156        2.1304  -15.8538  -43.6740 H         1 UNK         0.0600 
    157 H157        1.2102  -15.6002  -45.1525 H         1 UNK         0.0600 
    158 H158        2.9576  -15.7572  -45.2296 H         1 UNK         0.0600 
    159 H159        3.7352  -17.7886  -43.8350 H         1 UNK         0.3000 
    160 H160        4.5498  -21.2794  -43.9362 H         1 UNK         0.0600 
    161 H161        6.0456  -18.7473  -44.8098 H         1 UNK         0.0600 
    162 H162        5.7814  -20.1711  -45.8095 H         1 UNK         0.0600 
    163 H163        6.7778  -20.2898  -44.3679 H         1 UNK         0.0600 
    164 H164        5.5820  -19.1049  -42.3959 H         1 UNK         0.3000 
    165 H165        3.3141  -19.3065  -39.6716 H         1 UNK         0.0600 
    166 H166        5.3845  -19.7590  -38.3927 H         1 UNK         0.0600 
    167 H167        6.2292  -20.2370  -39.8660 H         1 UNK         0.0600 
    168 H168        4.8901  -21.2040  -39.2594 H         1 UNK         0.0600 
    169 H169        5.6684  -17.7956  -39.9419 H         1 UNK         0.3000 
    170 H170        5.5895  -15.5989  -40.2000 H         1 UNK         0.0600 
    171 H171        6.1118  -16.1357  -42.5939 H         1 UNK         0.0600 
    172 H172        4.6405  -15.3188  -43.1082 H         1 UNK         0.0600 
    173 H173        5.9438  -14.4047  -42.3516 H         1 UNK         0.0600 
    174 H174        3.5638  -13.9427  -41.3959 H         1 UNK         0.3000 
    175 H175        1.4380  -13.5498  -38.6901 H         1 UNK         0.0600 
    176 H176        3.6754  -11.5324  -39.2640 H         1 UNK         0.0600 
    177 H177        2.1220  -11.1696  -38.5100 H         1 UNK         0.0600 
    178 H178        3.2807  -12.1978  -37.6839 H         1 UNK         0.0600 
    179 H179        1.9299  -11.8823  -40.9638 H         1 UNK         0.3000 
    180 H180       -0.1986  -12.0732  -42.4785 H         1 UNK         0.0600 
    181 H181        2.2350  -13.4690  -43.7546 H         1 UNK         0.0600 
    182 H182        2.1519  -11.8023  -43.2073 H         1 UNK         0.0600 
    183 H183        1.2178  -12.3073  -44.5999 H         1 UNK         0.0600 
    184 H184       -0.4230  -14.8760  -42.9045 H         1 UNK         0.3000 
    185 H185       -1.6762  -15.7963  -44.6958 H         1 UNK         0.0600 
    186 H186       -4.0684  -15.9388  -43.8470 H         1 UNK         0.0600 
    187 H187       -2.9545  -15.3849  -42.6099 H         1 UNK         0.0600 
    188 H188       -4.0013  -14.2327  -43.4288 H         1 UNK         0.0600 
    189 H189       -3.9430  -14.5181  -45.9178 H         1 UNK         0.3000 
    190 H190       -1.5814  -19.7655  -45.4103 H         1 UNK         0.3000 
    191 H191       -4.0553  -19.4234  -46.7613 H         1 UNK         0.0600 
    192 H192       -4.7079  -18.1668  -44.7130 H         1 UNK         0.0600 
    193 H193       -3.0961  -17.7203  -45.2554 H         1 UNK         0.0600 
    194 H194       -3.2935  -18.7822  -43.8638 H         1 UNK         0.0600 
    195 H195       -3.1763  -21.4819  -43.9535 H         1 UNK         0.3000 
    196 H196       -5.7601  -22.5704  -43.4870 H         1 UNK         0.0600 
    197 H197       -2.9928  -23.7628  -42.9255 H         1 UNK         0.0600 
    198 H198       -3.9021  -22.7068  -41.8480 H         1 UNK         0.0600 
    199 H199       -4.5072  -24.3142  -42.2212 H         1 UNK         0.0600 
    200 H200       -3.1418  -23.5837  -45.6866 H         1 UNK         0.3000 
    201 H201       -4.4929  -25.9255  -46.7108 H         1 UNK         0.0600 
    202 H202       -2.1516  -24.2914  -47.8279 H         1 UNK         0.0600 
    203 H203       -2.6205  -25.9045  -48.3474 H         1 UNK         0.0600 
    204 H204       -2.0104  -25.6542  -46.7191 H         1 UNK         0.0600 
    205 H205       -5.0319  -22.6125  -47.2236 H         1 UNK         0.3000 
    206 H206       -6.1551  -21.3247  -48.6063 H         1 UNK         0.0600 
    207 H207       -8.0164  -22.9676  -48.2683 H         1 UNK         0.0600 
    208 H208       -8.0911  -22.2027  -49.8477 H         1 UNK         0.0600 
    209 H209       -7.4991  -23.8507  -49.7048 H         1 UNK         0.0600 
    210 H210       -3.5749  -21.8696  -49.3273 H         1 UNK         0.3000 
    211 H211       -3.0448  -22.8379  -51.8692 H         1 UNK         0.0600 
    212 H212       -0.8823  -21.7251  -51.6244 H         1 UNK         0.0600 
    213 H213       -1.3642  -22.3476  -50.0593 H         1 UNK         0.0600 
    214 H214       -1.5277  -20.6238  -50.4139 H         1 UNK         0.0600 
    215 H215       -4.2573  -19.6359  -51.0519 H         1 UNK         0.3000 
    216 H216       -3.7569  -18.2665  -53.4829 H         1 UNK         0.0600 
    217 H217       -6.0078  -17.9395  -51.4237 H         1 UNK         0.0600 
    218 H218       -5.6145  -16.7724  -52.6807 H         1 UNK         0.0600 
    219 H219       -4.4514  -17.1108  -51.4150 H         1 UNK         0.0600 
    220 H220       -6.1073  -20.7666  -52.7394 H         1 UNK         0.3000 
    221 H221       -7.4891  -20.3658  -55.3695 H         1 UNK         0.0600 
    222 H222       -9.0166  -20.2906  -53.4140 H         1 UNK         0.0600 
    223 H223       -8.4061  -21.8423  -52.8437 H         1 UNK         0.0600 
    224 H224       -9.2957  -21.7451  -54.3596 H         1 UNK         0.0600 
    225 H225       -5.9604  -22.7594  -53.1602 H         1 UNK         0.3000 
    226 H226       -6.3293  -24.9837  -54.8766 H         1 UNK         0.0600 
    227 H227       -4.3980  -24.6092  -52.5293 H         1 UNK         0.0600 
    228 H228       -6.0686  -25.1501  -52.4128 H         1 UNK         0.0600 
    229 H229       -4.8765  -26.1474  -53.2323 H         1 UNK         0.0600 
    230 H230       -3.6240  -22.6942  -54.6207 H         1 UNK         0.3000 
    231 H231       -2.1585  -24.1527  -56.7965 H         1 UNK         0.0600 
    232 H232       -1.0790  -22.5485  -54.4329 H         1 UNK         0.0600 
    233 H233       -0.1006  -23.0812  -55.7965 H         1 UNK         0.0600 
    234 H234       -0.8561  -24.2648  -54.7381 H         1 UNK         0.0600 
    235 H235       -3.0872  -20.9981  -55.4206 H         1 UNK         0.3000 
    236 H236       -3.5166  -19.0056  -56.2638 H         1 UNK         0.0600 
    237 H237       -5.1284  -20.2184  -57.7130 H         1 UNK         0.0600 
    238 H238       -4.4838  -18.8027  -58.5283 H         1 UNK         0.0600 
    239 H239       -3.8982  -20.4029  -58.9632 H         1 UNK         0.0600 
    240 H240       -1.0682  -19.1218  -55.6870 H         1 UNK         0.3000 
    241 H241        0.9273  -18.6459  -57.6091 H         1 UNK         0.0600 
    242 H242        0.9701  -15.2023  -58.5055 H         1 UNK         0.3800 
    243 H243        1.7748  -16.7408  -58.6203 H         1 UNK         0.3800 
    244 H244        0.7702  -17.6188  -54.7234 H         1 UNK         0.0800 
    245 H245        2.2017  -17.6069  -55.7062 H         1 UNK         0.0800 
    246 H246       -0.5040  -20.0220  -54.0762 H         1 UNK         0.0800 
    247 H247        0.5686  -21.2678  -53.5009 H         1 UNK         0.0800 
@<TRIPOS>BOND
     1    1    2 1    
     2    1  127 1    
     3    1  128 1    
     4    1  129 1    
     5    2    3 2    
     6    2    4 am   BACKBONE|DICT|INTERRES
     7    4    5 1    
     8    4  130 1    
     9    5    6 1    
    10    5   65 1    
    11    5  131 1    
    12    6    7 1    
    13    6  132 1    
    14    6  133 1    
    15    7    8 1    
    16    8    9 1    
    17    8  134 1    
    18    8  135 1    
    19    9   10 ar   
    20    9   14 ar   
    21   10   11 ar   
    22   10  136 1    
    23   11   12 ar   
    24   11  126 1    
    25   12   13 ar   
    26   12  137 1    
    27   13   14 ar   
    28   13   15 1    
    29   14  138 1    
    30   15   16 1    
    31   15  139 1    
    32   15  140 1    
    33   16   17 1    
    34   17   18 1    
    35   17  141 1    
    36   17  142 1    
    37   18   19 1    
    38   18   67 1    
    39   18  143 1    
    40   19   20 am   BACKBONE|DICT|INTERRES
    41   19  144 1    
    42   20   21 2    
    43   20   22 1    
    44   22   23 1    
    45   22   24 1    
    46   22  145 1    
    47   23  146 1    
    48   23  147 1    
    49   23  148 1    
    50   24   25 am   BACKBONE|DICT|INTERRES
    51   24  149 1    
    52   25   26 2    
    53   25   27 1    
    54   27   28 1    
    55   27   29 1    
    56   27  150 1    
    57   28  151 1    
    58   28  152 1    
    59   28  153 1    
    60   29   30 am   BACKBONE|DICT|INTERRES
    61   29  154 1    
    62   30   31 2    
    63   30   32 1    
    64   32   33 1    
    65   32   34 1    
    66   32  155 1    
    67   33  156 1    
    68   33  157 1    
    69   33  158 1    
    70   34   35 am   BACKBONE|DICT|INTERRES
    71   34  159 1    
    72   35   36 2    
    73   35   37 1    
    74   37   38 1    
    75   37   39 1    
    76   37  160 1    
    77   38  161 1    
    78   38  162 1    
    79   38  163 1    
    80   39   40 am   BACKBONE|DICT|INTERRES
    81   39  164 1    
    82   40   41 2    
    83   40   42 1    
    84   42   43 1    
    85   42   44 1    
    86   42  165 1    
    87   43  166 1    
    88   43  167 1    
    89   43  168 1    
    90   44   45 am   BACKBONE|DICT|INTERRES
    91   44  169 1    
    92   45   46 2    
    93   45   47 1    
    94   47   48 1    
    95   47   49 1    
    96   47  170 1    
    97   48  171 1    
    98   48  172 1    
    99   48  173 1    
   100   49   50 am   BACKBONE|DICT|INTERRES
   101   49  174 1    
   102   50   51 2    
   103   50   52 1    
   104   52   53 1    
   105   52   54 1    
   106   52  175 1    
   107   53  176 1    
   108   53  177 1    
   109   53  178 1    
   110   54   55 am   BACKBONE|DICT|INTERRES
   111   54  179 1    
   112   55   56 2    
   113   55   57 1    
   114   57   58 1    
   115   57   59 1    
   116   57  180 1    
   117   58  181 1    
   118   58  182 1    
   119   58  183 1    
   120   59   60 am   BACKBONE|DICT|INTERRES
   121   59  184 1    
   122   60   61 2    
   123   60   62 1    
   124   62   63 1    
   125   62   64 1    
   126   62  185 1    
   127   63  186 1    
   128   63  187 1    
   129   63  188 1    
   130   64   65 am   BACKBONE|DICT|INTERRES
   131   64  189 1    
   132   65   66 2    
   133   67   68 2    
   134   67   69 am   BACKBONE|DICT|INTERRES
   135   69   70 1    
   136   69  190 1    
   137   70   71 1    
   138   70   72 1    
   139   70  191 1    
   140   71  192 1    
   141   71  193 1    
   142   71  194 1    
   143   72   73 2    
   144   72   74 am   BACKBONE|DICT|INTERRES
   145   74   75 1    
   146   74  195 1    
   147   75   76 1    
   148   75   77 1    
   149   75  196 1    
   150   76  197 1    
   151   76  198 1    
   152   76  199 1    
   153   77   78 2    
   154   77   79 am   BACKBONE|DICT|INTERRES
   155   79   80 1    
   156   79  200 1    
   157   80   81 1    
   158   80   82 1    
   159   80  201 1    
   160   81  202 1    
   161   81  203 1    
   162   81  204 1    
   163   82   83 2    
   164   82   84 am   BACKBONE|DICT|INTERRES
   165   84   85 1    
   166   84  205 1    
   167   85   86 1    
   168   85   87 1    
   169   85  206 1    
   170   86  207 1    
   171   86  208 1    
   172   86  209 1    
   173   87   88 2    
   174   87   89 am   BACKBONE|DICT|INTERRES
   175   89   90 1    
   176   89  210 1    
   177   90   91 1    
   178   90   92 1    
   179   90  211 1    
   180   91  212 1    
   181   91  213 1    
   182   91  214 1    
   183   92   93 2    
   184   92   94 am   BACKBONE|DICT|INTERRES
   185   94   95 1    
   186   94  215 1    
   187   95   96 1    
   188   95   97 1    
   189   95  216 1    
   190   96  217 1    
   191   96  218 1    
   192   96  219 1    
   193   97   98 2    
   194   97   99 am   BACKBONE|DICT|INTERRES
   195   99  100 1    
   196   99  220 1    
   197  100  101 1    
   198  100  102 1    
   199  100  221 1    
   200  101  222 1    
   201  101  223 1    
   202  101  224 1    
   203  102  103 2    
   204  102  104 am   BACKBONE|DICT|INTERRES
   205  104  105 1    
   206  104  225 1    
   207  105  106 1    
   208  105  107 1    
   209  105  226 1    
   210  106  227 1    
   211  106  228 1    
   212  106  229 1    
   213  107  108 2    
   214  107  109 am   BACKBONE|DICT|INTERRES
   215  109  110 1    
   216  109  230 1    
   217  110  111 1    
   218  110  112 1    
   219  110  231 1    
   220  111  232 1    
   221  111  233 1    
   222  111  234 1    
   223  112  113 2    
   224  112  114 am   BACKBONE|DICT|INTERRES
   225  114  115 1    
   226  114  235 1    
   227  115  116 1    
   228  115  117 1    
   229  115  236 1    
   230  116  237 1    
   231  116  238 1    
   232  116  239 1    
   233  117  118 2    
   234  117  119 am   BACKBONE|DICT|INTERRES
   235  119  120 1    
   236  119  240 1    
   237  120  121 1    
   238  120  124 1    
   239  120  241 1    
   240  121  122 am   BACKBONE|DICT|INTERRES
   241  121  123 2    
   242  122  242 1    
   243  122  243 1    
   244  124  125 1    
   245  124  244 1    
   246  124  245 1    
   247  125  126 1    
   248  126  246 1    
   249  126  247 1    
@<TRIPOS>SUBSTRUCTURE
     1 UNK         1 GROUP             0       ****    0 ROOT    
