@<TRIPOS>MOLECULE
3R540
247   249    1
SMALL
USER_CHARGES


@<TRIPOS>ATOM
      1 CA          0.7625   -9.8326  -51.2416 C.3       0 UNK        -0.1800 
      2 C           1.6785  -10.4551  -50.1975 C.2       0 UNK         0.5000 
      3 O           2.5669   -9.7782  -49.6799 O.2       0 UNK        -0.5000 
      4 N           1.4627  -11.7393  -49.8850 N.am      1 UNK        -0.5000 
      5 CA          2.2506  -12.5088  -48.9104 C.3       1 UNK         0.1400 
      6 C6          2.1750  -14.0320  -49.1813 C.3       23 UNK        -0.0398 
      7 S7          3.0373  -14.4708  -50.7273 S.3       23 UNK        -0.2404 
      8 C8          1.6509  -14.8323  -51.8570 C.3       23 UNK        -0.0205 
      9 C9          0.9635  -16.1754  -51.6172 C.ar      23 UNK        -0.0193 
     10 C10        -0.4034  -16.2988  -51.8787 C.ar      23 UNK        -0.1150 
     11 C11        -1.0461  -17.5334  -51.7546 C.ar      23 UNK        -0.0193 
     12 C12        -0.3171  -18.6512  -51.3408 C.ar      23 UNK        -0.1150 
     13 C13         1.0535  -18.5475  -51.0658 C.ar      23 UNK        -0.0193 
     14 C14         1.6818  -17.3079  -51.2163 C.ar      23 UNK        -0.1150 
     15 C15         1.9136  -19.7492  -50.6733 C.3       23 UNK        -0.0205 
     16 S16         1.0166  -21.1579  -49.9448 S.3       23 UNK        -0.2404 
     17 C17         0.6706  -20.5313  -48.2696 C.3       23 UNK        -0.0398 
     18 CA         -0.2747  -21.4828  -47.4980 C.3       11 UNK         0.1400 
     19 N          -0.0536  -21.4438  -46.0511 N.am      11 UNK        -0.5000 
     20 C          -0.5817  -22.3217  -45.1861 C.2       10 UNK         0.5000 
     21 O          -1.2755  -23.2812  -45.5243 O.2       10 UNK        -0.5000 
     22 CA         -0.3388  -22.0543  -43.6901 C.3       10 UNK         0.1400 
     23 CB          1.0449  -22.5624  -43.2596 C.3       10 UNK        -0.1800 
     24 N          -0.4761  -20.6387  -43.3459 N.am      10 UNK        -0.5000 
     25 C          -1.6144  -19.9387  -43.4610 C.2       9 UNK         0.5000 
     26 O          -2.6842  -20.4288  -43.8185 O.2       9 UNK        -0.5000 
     27 CA         -1.5342  -18.4298  -43.1750 C.3       9 UNK         0.1400 
     28 CB         -1.5112  -18.1780  -41.6593 C.3       9 UNK        -0.1800 
     29 N          -0.3689  -17.8067  -43.8041 N.am      9 UNK        -0.5000 
     30 C          -0.1280  -17.7746  -45.1230 C.2       8 UNK         0.5000 
     31 O          -0.9005  -18.2169  -45.9708 O.2       8 UNK        -0.5000 
     32 CA          1.2313  -17.2117  -45.5712 C.3       8 UNK         0.1400 
     33 CB          1.2043  -15.6817  -45.6602 C.3       8 UNK        -0.1800 
     34 N           2.3116  -17.6260  -44.6796 N.am      8 UNK        -0.5000 
     35 C           2.7837  -18.8765  -44.5994 C.2       7 UNK         0.5000 
     36 O           2.3743  -19.8081  -45.2927 O.2       7 UNK        -0.5000 
     37 CA          3.8666  -19.1296  -43.5357 C.3       7 UNK         0.1400 
     38 CB          5.2469  -18.6933  -44.0493 C.3       7 UNK        -0.1800 
     39 N           3.5776  -18.4469  -42.2724 N.am      7 UNK        -0.5000 
     40 C           2.5598  -18.7714  -41.4634 C.2       6 UNK         0.5000 
     41 O           1.7722  -19.6888  -41.6937 O.2       6 UNK        -0.5000 
     42 CA          2.3680  -17.9073  -40.2028 C.3       6 UNK         0.1400 
     43 CB          3.2697  -18.4089  -39.0650 C.3       6 UNK        -0.1800 
     44 N           2.5964  -16.4724  -40.4071 N.am      6 UNK        -0.5000 
     45 C           1.9166  -15.7038  -41.2681 C.2       5 UNK         0.5000 
     46 O           1.1099  -16.1444  -42.0878 O.2       5 UNK        -0.5000 
     47 CA          2.2039  -14.1942  -41.2307 C.3       5 UNK         0.1400 
     48 CB          3.2063  -13.8138  -42.3311 C.3       5 UNK        -0.1800 
     49 N           0.9683  -13.4344  -41.4197 N.am      5 UNK        -0.5000 
     50 C           0.0196  -13.2807  -40.4824 C.2       4 UNK         0.5000 
     51 O           0.1427  -13.6769  -39.3224 O.2       4 UNK        -0.5000 
     52 CA         -1.2861  -12.5665  -40.8960 C.3       4 UNK         0.1400 
     53 CB         -1.2108  -11.0698  -40.5571 C.3       4 UNK        -0.1800 
     54 N          -1.5843  -12.7147  -42.3196 N.am      4 UNK        -0.5000 
     55 C          -1.9787  -13.8543  -42.9016 C.2       3 UNK         0.5000 
     56 O          -2.3457  -14.8394  -42.2629 O.2       3 UNK        -0.5000 
     57 CA         -1.9567  -13.9268  -44.4468 C.3       3 UNK         0.1400 
     58 CB         -3.3619  -14.2127  -45.0012 C.3       3 UNK        -0.1800 
     59 N          -1.4020  -12.7621  -45.1557 N.am      3 UNK        -0.5000 
     60 C          -0.1716  -12.2459  -45.0251 C.2       2 UNK         0.5000 
     61 O           0.6539  -12.6502  -44.2068 O.2       2 UNK        -0.5000 
     62 CA          0.1693  -11.0678  -45.9558 C.3       2 UNK         0.1400 
     63 CB          1.0890  -10.0322  -45.2759 C.3       2 UNK        -0.1800 
     64 N           0.7314  -11.5197  -47.2329 N.am      2 UNK        -0.5000 
     65 C           1.8812  -12.1825  -47.4459 C.2       1 UNK         0.5000 
     66 O           2.6608  -12.5221  -46.5563 O.2       1 UNK        -0.5000 
     67 C          -1.7557  -21.2495  -47.8634 C.2       11 UNK         0.5000 
     68 O          -2.2939  -21.9874  -48.6846 O.2       11 UNK        -0.5000 
     69 N          -2.4062  -20.2762  -47.2114 N.am      12 UNK        -0.5000 
     70 CA         -3.8316  -19.9825  -47.3694 C.3       12 UNK         0.1400 
     71 CB         -4.1557  -18.6446  -46.6890 C.3       12 UNK        -0.1800 
     72 C          -4.7493  -21.1036  -46.8404 C.2       12 UNK         0.5000 
     73 O          -5.8198  -21.3245  -47.4071 O.2       12 UNK        -0.5000 
     74 N          -4.3219  -21.8019  -45.7797 N.am      13 UNK        -0.5000 
     75 CA         -5.0140  -22.9678  -45.2297 C.3       13 UNK         0.1400 
     76 CB         -4.4550  -23.2961  -43.8367 C.3       13 UNK        -0.1800 
     77 C          -4.9278  -24.1908  -46.1616 C.2       13 UNK         0.5000 
     78 O          -5.9303  -24.8817  -46.3481 O.2       13 UNK        -0.5000 
     79 N          -3.7410  -24.4284  -46.7379 N.am      14 UNK        -0.5000 
     80 CA         -3.4962  -25.4800  -47.7272 C.3       14 UNK         0.1400 
     81 CB         -1.9841  -25.6892  -47.8719 C.3       14 UNK        -0.1800 
     82 C          -4.1398  -25.1731  -49.0932 C.2       14 UNK         0.5000 
     83 O          -4.6380  -26.0878  -49.7514 O.2       14 UNK        -0.5000 
     84 N          -4.1326  -23.8904  -49.4796 N.am      15 UNK        -0.5000 
     85 CA         -4.7259  -23.3137  -50.6829 C.3       15 UNK         0.1400 
     86 CB         -6.2687  -23.3799  -50.5845 C.3       15 UNK        -0.1800 
     87 C          -4.1337  -23.9444  -51.9590 C.2       15 UNK         0.5000 
     88 O          -2.9126  -23.9244  -52.1369 O.2       15 UNK        -0.5000 
     89 N          -4.9996  -24.5252  -52.8010 N.am      16 UNK        -0.5000 
     90 CA         -4.6720  -25.1735  -54.0726 C.3       16 UNK         0.1400 
     91 CB         -5.9783  -25.6339  -54.7375 C.3       16 UNK        -0.1800 
     92 C          -3.6765  -26.3482  -53.9648 C.2       16 UNK         0.5000 
     93 O          -3.0492  -26.6984  -54.9650 O.2       16 UNK        -0.5000 
     94 N          -3.5401  -26.9349  -52.7666 N.am      17 UNK        -0.5000 
     95 CA         -2.5635  -27.9824  -52.4720 C.3       17 UNK         0.1400 
     96 CB         -2.9883  -28.7233  -51.1948 C.3       17 UNK        -0.1800 
     97 C          -1.1240  -27.4482  -52.3274 C.2       17 UNK         0.5000 
     98 O          -0.1865  -28.2320  -52.4840 O.2       17 UNK        -0.5000 
     99 N          -0.9655  -26.1520  -52.0212 N.am      18 UNK        -0.5000 
    100 CA         0.3306  -25.5074  -51.8096 C.3       18 UNK         0.1400 
    101 CB         0.3233  -24.7660  -50.4649 C.3       18 UNK        -0.1800 
    102 C          0.6901  -24.5472  -52.9517 C.2       18 UNK         0.5000 
    103 O          1.8242  -24.5884  -53.4318 O.2       18 UNK        -0.5000 
    104 N         -0.2594  -23.7007  -53.3666 N.am      19 UNK        -0.5000 
    105 CA        -0.0556  -22.6669  -54.3786 C.3       19 UNK         0.1400 
    106 CB         0.7136  -21.4716  -53.7720 C.3       19 UNK        -0.1800 
    107 C         -1.4102  -22.2967  -55.0029 C.2       19 UNK         0.5000 
    108 O         -2.1304  -23.1912  -55.4470 O.2       19 UNK        -0.5000 
    109 N         -1.7320  -20.9980  -55.0517 N.am      20 UNK        -0.5000 
    110 CA        -3.0223  -20.4775  -55.4978 C.3       20 UNK         0.1400 
    111 CB        -2.8709  -18.9836  -55.8261 C.3       20 UNK        -0.1800 
    112 C         -4.1151  -20.7034  -54.4371 C.2       20 UNK         0.5000 
    113 O         -3.8158  -20.8438  -53.2490 O.2       20 UNK        -0.5000 
    114 N         -5.3767  -20.7016  -54.8775 N.am      21 UNK        -0.5000 
    115 CA        -6.5575  -20.9814  -54.0592 C.3       21 UNK         0.1400 
    116 CB        -7.6850  -21.4787  -54.9820 C.3       21 UNK        -0.1800 
    117 C         -6.9954  -19.8015  -53.1576 C.2       21 UNK         0.5000 
    118 O         -8.1855  -19.4865  -53.1036 O.2       21 UNK        -0.5000 
    119 N         -6.0422  -19.1739  -52.4548 N.am      22 UNK        -0.5000 
    120 CA        -6.3030  -18.1308  -51.4434 C.3       22 UNK         0.1400 
    121 C         -6.6649  -18.6818  -50.0318 C.2       22 UNK         0.5000 
    122 N         -6.6100  -19.9876  -49.8084 N.am      22 UNK        -0.7600 
    123 O         -6.9997  -17.9149  -49.1333 O.2       22 UNK        -0.5000 
    124 C124       -5.1786  -17.0620  -51.3930 C.3       23 UNK        -0.0398 
    125 S125       -3.5898  -17.6064  -50.6614 S.3       23 UNK        -0.2404 
    126 C126       -2.5147  -17.6659  -52.1232 C.3       23 UNK        -0.0205 
    127 H127        0.0288  -10.5470  -51.6160 H         1 UNK         0.0600 
    128 H128        1.3484   -9.4732  -52.0876 H         1 UNK         0.0600 
    129 H129        0.2256   -8.9863  -50.8133 H         1 UNK         0.0600 
    130 H130        0.7202  -12.2425  -50.3481 H         1 UNK         0.3000 
    131 H131        3.2964  -12.2116  -49.0188 H         1 UNK         0.0600 
    132 H132        2.6635  -14.5926  -48.3824 H         1 UNK         0.0800 
    133 H133        1.1408  -14.3797  -49.2069 H         1 UNK         0.0800 
    134 H134        0.9290  -14.0165  -51.8033 H         1 UNK         0.0800 
    135 H135        2.0355  -14.8312  -52.8775 H         1 UNK         0.0800 
    136 H136       -0.9652  -15.4373  -52.2120 H         1 UNK         0.1150 
    137 H137       -0.8246  -19.6015  -51.2577 H         1 UNK         0.1150 
    138 H138        2.7455  -17.2334  -51.0408 H         1 UNK         0.1150 
    139 H139        2.4279  -20.1010  -51.5682 H         1 UNK         0.0800 
    140 H140        2.6925  -19.4379  -49.9754 H         1 UNK         0.0800 
    141 H141        1.6313  -20.4575  -47.7592 H         1 UNK         0.0800 
    142 H142        0.2736  -19.5152  -48.3181 H         1 UNK         0.0800 
    143 H143       -0.0352  -22.5059  -47.7983 H         1 UNK         0.0600 
    144 H144        0.5417  -20.7033  -45.6967 H         1 UNK         0.3000 
    145 H145       -1.0930  -22.6083  -43.1276 H         1 UNK         0.0600 
    146 H146        1.1869  -22.4522  -42.1844 H         1 UNK         0.0600 
    147 H147        1.1639  -23.6203  -43.4969 H         1 UNK         0.0600 
    148 H148        1.8482  -22.0204  -43.7590 H         1 UNK         0.0600 
    149 H149        0.3532  -20.1740  -42.9885 H         1 UNK         0.3000 
    150 H150       -2.4258  -17.9548  -43.5892 H         1 UNK         0.0600 
    151 H151       -2.4250  -18.5459  -41.1915 H         1 UNK         0.0600 
    152 H152       -1.4334  -17.1164  -41.4303 H         1 UNK         0.0600 
    153 H153       -0.6731  -18.6801  -41.1777 H         1 UNK         0.0600 
    154 H154        0.2920  -17.3522  -43.1768 H         1 UNK         0.3000 
    155 H155        1.4413  -17.6031  -46.5691 H         1 UNK         0.0600 
    156 H156        2.1539  -15.2909  -46.0247 H         1 UNK         0.0600 
    157 H157        1.0156  -15.2315  -44.6861 H         1 UNK         0.0600 
    158 H158        0.4268  -15.3396  -46.3441 H         1 UNK         0.0600 
    159 H159        2.6566  -16.9339  -44.0314 H         1 UNK         0.3000 
    160 H160        3.8988  -20.2043  -43.3437 H         1 UNK         0.0600 
    161 H161        5.2891  -17.6194  -44.2351 H         1 UNK         0.0600 
    162 H162        5.4919  -19.1984  -44.9846 H         1 UNK         0.0600 
    163 H163        6.0301  -18.9413  -43.3327 H         1 UNK         0.0600 
    164 H164        4.1774  -17.6776  -42.0132 H         1 UNK         0.3000 
    165 H165        1.3303  -18.0262  -39.8852 H         1 UNK         0.0600 
    166 H166        4.3266  -18.2747  -39.2987 H         1 UNK         0.0600 
    167 H167        3.0614  -17.8811  -38.1341 H         1 UNK         0.0600 
    168 H168        3.1073  -19.4712  -38.8770 H         1 UNK         0.0600 
    169 H169        3.2578  -16.0342  -39.7823 H         1 UNK         0.3000 
    170 H170        2.6336  -13.9317  -40.2618 H         1 UNK         0.0600 
    171 H171        4.1567  -14.3300  -42.1910 H         1 UNK         0.0600 
    172 H172        2.8350  -14.0730  -43.3235 H         1 UNK         0.0600 
    173 H173        3.4121  -12.7434  -42.3237 H         1 UNK         0.0600 
    174 H174        0.7810  -13.1248  -42.3701 H         1 UNK         0.3000 
    175 H175       -2.1037  -13.0076  -40.3219 H         1 UNK         0.0600 
    176 H176       -2.1495  -10.5654  -40.7869 H         1 UNK         0.0600 
    177 H177       -1.0134  -10.9197  -39.4949 H         1 UNK         0.0600 
    178 H178       -0.4156  -10.5710  -41.1128 H         1 UNK         0.0600 
    179 H179       -1.2928  -11.9592  -42.9211 H         1 UNK         0.3000 
    180 H180       -1.3293  -14.7830  -44.6943 H         1 UNK         0.0600 
    181 H181       -3.3349  -14.3844  -46.0775 H         1 UNK         0.0600 
    182 H182       -3.7914  -15.1068  -44.5470 H         1 UNK         0.0600 
    183 H183       -4.0448  -13.3848  -44.8076 H         1 UNK         0.0600 
    184 H184       -2.0156  -12.3479  -45.8425 H         1 UNK         0.3000 
    185 H185       -0.7643  -10.5556  -46.1943 H         1 UNK         0.0600 
    186 H186        1.2821   -9.1856  -45.9348 H         1 UNK         0.0600 
    187 H187        0.6271   -9.6408  -44.3688 H         1 UNK         0.0600 
    188 H188        2.0510  -10.4585  -44.9900 H         1 UNK         0.0600 
    189 H189        0.1779  -11.3004  -48.0486 H         1 UNK         0.3000 
    190 H190       -1.8844  -19.6675  -46.5848 H         1 UNK         0.3000 
    191 H191       -4.0296  -19.8738  -48.4376 H         1 UNK         0.0600 
    192 H192       -5.2079  -18.3873  -46.8167 H         1 UNK         0.0600 
    193 H193       -3.5691  -17.8329  -47.1202 H         1 UNK         0.0600 
    194 H194       -3.9494  -18.6762  -45.6189 H         1 UNK         0.0600 
    195 H195       -3.4781  -21.5002  -45.3032 H         1 UNK         0.3000 
    196 H196       -6.0692  -22.7114  -45.1141 H         1 UNK         0.0600 
    197 H197       -4.9778  -24.1466  -43.3976 H         1 UNK         0.0600 
    198 H198       -4.5754  -22.4534  -43.1558 H         1 UNK         0.0600 
    199 H199       -3.3951  -23.5466  -43.8738 H         1 UNK         0.0600 
    200 H200       -2.9497  -23.8441  -46.4859 H         1 UNK         0.3000 
    201 H201       -3.9331  -26.4101  -47.3578 H         1 UNK         0.0600 
    202 H202       -1.5425  -26.0288  -46.9349 H         1 UNK         0.0600 
    203 H203       -1.4841  -24.7634  -48.1572 H         1 UNK         0.0600 
    204 H204       -1.7615  -26.4404  -48.6307 H         1 UNK         0.0600 
    205 H205       -3.5771  -23.2333  -48.9352 H         1 UNK         0.3000 
    206 H206       -4.4323  -22.2629  -50.6973 H         1 UNK         0.0600 
    207 H207       -6.6156  -22.9167  -49.6606 H         1 UNK         0.0600 
    208 H208       -6.7512  -22.8517  -51.4053 H         1 UNK         0.0600 
    209 H209       -6.6388  -24.4058  -50.5846 H         1 UNK         0.0600 
    210 H210       -5.9741  -24.5366  -52.5392 H         1 UNK         0.3000 
    211 H211       -4.2193  -24.4182  -54.7139 H         1 UNK         0.0600 
    212 H212       -6.5008  -26.3718  -54.1275 H         1 UNK         0.0600 
    213 H213       -5.7832  -26.0897  -55.7091 H         1 UNK         0.0600 
    214 H214       -6.6540  -24.7950  -54.9051 H         1 UNK         0.0600 
    215 H215       -4.0870  -26.5908  -51.9871 H         1 UNK         0.3000 
    216 H216       -2.5686  -28.7010  -53.2945 H         1 UNK         0.0600 
    217 H217       -2.3319  -29.5726  -51.0015 H         1 UNK         0.0600 
    218 H218       -4.0039  -29.1103  -51.2792 H         1 UNK         0.0600 
    219 H219       -2.9465  -28.0748  -50.3196 H         1 UNK         0.0600 
    220 H220       -1.7819  -25.5514  -51.9686 H         1 UNK         0.3000 
    221 H221        1.1263  -26.2536  -51.7592 H         1 UNK         0.0600 
    222 H222        0.2564  -25.4703  -49.6375 H         1 UNK         0.0600 
    223 H223        1.2448  -24.1996  -50.3252 H         1 UNK         0.0600 
    224 H224       -0.5098  -24.0652  -50.3892 H         1 UNK         0.0600 
    225 H225       -1.1915  -23.7422  -52.9593 H         1 UNK         0.3000 
    226 H226        0.5443  -23.0837  -55.1901 H         1 UNK         0.0600 
    227 H227        0.1563  -21.0157  -52.9545 H         1 UNK         0.0600 
    228 H228        1.6800  -21.7825  -53.3754 H         1 UNK         0.0600 
    229 H229        0.9149  -20.7019  -54.5179 H         1 UNK         0.0600 
    230 H230       -1.0989  -20.3318  -54.6355 H         1 UNK         0.3000 
    231 H231       -3.3154  -21.0038  -56.4089 H         1 UNK         0.0600 
    232 H232       -3.8195  -18.5506  -56.1461 H         1 UNK         0.0600 
    233 H233       -2.1586  -18.8326  -56.6375 H         1 UNK         0.0600 
    234 H234       -2.5213  -18.4098  -54.9689 H         1 UNK         0.0600 
    235 H235       -5.5504  -20.5264  -55.8569 H         1 UNK         0.3000 
    236 H236       -6.3083  -21.8058  -53.3908 H         1 UNK         0.0600 
    237 H237       -8.0048  -20.7034  -55.6792 H         1 UNK         0.0600 
    238 H238       -7.3661  -22.3433  -55.5644 H         1 UNK         0.0600 
    239 H239       -8.5591  -21.7860  -54.4063 H         1 UNK         0.0600 
    240 H240       -5.0884  -19.5130  -52.5297 H         1 UNK         0.3000 
    241 H241       -7.1980  -17.5919  -51.7603 H         1 UNK         0.0600 
    242 H242       -6.7573  -20.3531  -48.8745 H         1 UNK         0.3800 
    243 H243       -6.3408  -20.6103  -50.5479 H         1 UNK         0.3800 
    244 H244       -5.0130  -16.6660  -52.3951 H         1 UNK         0.0800 
    245 H245       -5.5211  -16.2072  -50.8075 H         1 UNK         0.0800 
    246 H246       -2.6767  -18.6103  -52.6388 H         1 UNK         0.0800 
    247 H247       -2.7868  -16.8771  -52.8257 H         1 UNK         0.0800 
@<TRIPOS>BOND
     1    1    2 1    
     2    1  127 1    
     3    1  128 1    
     4    1  129 1    
     5    2    3 2    
     6    2    4 am   BACKBONE|DICT|INTERRES
     7    4    5 1    
     8    4  130 1    
     9    5    6 1    
    10    5   65 1    
    11    5  131 1    
    12    6    7 1    
    13    6  132 1    
    14    6  133 1    
    15    7    8 1    
    16    8    9 1    
    17    8  134 1    
    18    8  135 1    
    19    9   10 ar   
    20    9   14 ar   
    21   10   11 ar   
    22   10  136 1    
    23   11   12 ar   
    24   11  126 1    
    25   12   13 ar   
    26   12  137 1    
    27   13   14 ar   
    28   13   15 1    
    29   14  138 1    
    30   15   16 1    
    31   15  139 1    
    32   15  140 1    
    33   16   17 1    
    34   17   18 1    
    35   17  141 1    
    36   17  142 1    
    37   18   19 1    
    38   18   67 1    
    39   18  143 1    
    40   19   20 am   BACKBONE|DICT|INTERRES
    41   19  144 1    
    42   20   21 2    
    43   20   22 1    
    44   22   23 1    
    45   22   24 1    
    46   22  145 1    
    47   23  146 1    
    48   23  147 1    
    49   23  148 1    
    50   24   25 am   BACKBONE|DICT|INTERRES
    51   24  149 1    
    52   25   26 2    
    53   25   27 1    
    54   27   28 1    
    55   27   29 1    
    56   27  150 1    
    57   28  151 1    
    58   28  152 1    
    59   28  153 1    
    60   29   30 am   BACKBONE|DICT|INTERRES
    61   29  154 1    
    62   30   31 2    
    63   30   32 1    
    64   32   33 1    
    65   32   34 1    
    66   32  155 1    
    67   33  156 1    
    68   33  157 1    
    69   33  158 1    
    70   34   35 am   BACKBONE|DICT|INTERRES
    71   34  159 1    
    72   35   36 2    
    73   35   37 1    
    74   37   38 1    
    75   37   39 1    
    76   37  160 1    
    77   38  161 1    
    78   38  162 1    
    79   38  163 1    
    80   39   40 am   BACKBONE|DICT|INTERRES
    81   39  164 1    
    82   40   41 2    
    83   40   42 1    
    84   42   43 1    
    85   42   44 1    
    86   42  165 1    
    87   43  166 1    
    88   43  167 1    
    89   43  168 1    
    90   44   45 am   BACKBONE|DICT|INTERRES
    91   44  169 1    
    92   45   46 2    
    93   45   47 1    
    94   47   48 1    
    95   47   49 1    
    96   47  170 1    
    97   48  171 1    
    98   48  172 1    
    99   48  173 1    
   100   49   50 am   BACKBONE|DICT|INTERRES
   101   49  174 1    
   102   50   51 2    
   103   50   52 1    
   104   52   53 1    
   105   52   54 1    
   106   52  175 1    
   107   53  176 1    
   108   53  177 1    
   109   53  178 1    
   110   54   55 am   BACKBONE|DICT|INTERRES
   111   54  179 1    
   112   55   56 2    
   113   55   57 1    
   114   57   58 1    
   115   57   59 1    
   116   57  180 1    
   117   58  181 1    
   118   58  182 1    
   119   58  183 1    
   120   59   60 am   BACKBONE|DICT|INTERRES
   121   59  184 1    
   122   60   61 2    
   123   60   62 1    
   124   62   63 1    
   125   62   64 1    
   126   62  185 1    
   127   63  186 1    
   128   63  187 1    
   129   63  188 1    
   130   64   65 am   BACKBONE|DICT|INTERRES
   131   64  189 1    
   132   65   66 2    
   133   67   68 2    
   134   67   69 am   BACKBONE|DICT|INTERRES
   135   69   70 1    
   136   69  190 1    
   137   70   71 1    
   138   70   72 1    
   139   70  191 1    
   140   71  192 1    
   141   71  193 1    
   142   71  194 1    
   143   72   73 2    
   144   72   74 am   BACKBONE|DICT|INTERRES
   145   74   75 1    
   146   74  195 1    
   147   75   76 1    
   148   75   77 1    
   149   75  196 1    
   150   76  197 1    
   151   76  198 1    
   152   76  199 1    
   153   77   78 2    
   154   77   79 am   BACKBONE|DICT|INTERRES
   155   79   80 1    
   156   79  200 1    
   157   80   81 1    
   158   80   82 1    
   159   80  201 1    
   160   81  202 1    
   161   81  203 1    
   162   81  204 1    
   163   82   83 2    
   164   82   84 am   BACKBONE|DICT|INTERRES
   165   84   85 1    
   166   84  205 1    
   167   85   86 1    
   168   85   87 1    
   169   85  206 1    
   170   86  207 1    
   171   86  208 1    
   172   86  209 1    
   173   87   88 2    
   174   87   89 am   BACKBONE|DICT|INTERRES
   175   89   90 1    
   176   89  210 1    
   177   90   91 1    
   178   90   92 1    
   179   90  211 1    
   180   91  212 1    
   181   91  213 1    
   182   91  214 1    
   183   92   93 2    
   184   92   94 am   BACKBONE|DICT|INTERRES
   185   94   95 1    
   186   94  215 1    
   187   95   96 1    
   188   95   97 1    
   189   95  216 1    
   190   96  217 1    
   191   96  218 1    
   192   96  219 1    
   193   97   98 2    
   194   97   99 am   BACKBONE|DICT|INTERRES
   195   99  100 1    
   196   99  220 1    
   197  100  101 1    
   198  100  102 1    
   199  100  221 1    
   200  101  222 1    
   201  101  223 1    
   202  101  224 1    
   203  102  103 2    
   204  102  104 am   BACKBONE|DICT|INTERRES
   205  104  105 1    
   206  104  225 1    
   207  105  106 1    
   208  105  107 1    
   209  105  226 1    
   210  106  227 1    
   211  106  228 1    
   212  106  229 1    
   213  107  108 2    
   214  107  109 am   BACKBONE|DICT|INTERRES
   215  109  110 1    
   216  109  230 1    
   217  110  111 1    
   218  110  112 1    
   219  110  231 1    
   220  111  232 1    
   221  111  233 1    
   222  111  234 1    
   223  112  113 2    
   224  112  114 am   BACKBONE|DICT|INTERRES
   225  114  115 1    
   226  114  235 1    
   227  115  116 1    
   228  115  117 1    
   229  115  236 1    
   230  116  237 1    
   231  116  238 1    
   232  116  239 1    
   233  117  118 2    
   234  117  119 am   BACKBONE|DICT|INTERRES
   235  119  120 1    
   236  119  240 1    
   237  120  121 1    
   238  120  124 1    
   239  120  241 1    
   240  121  122 am   BACKBONE|DICT|INTERRES
   241  121  123 2    
   242  122  242 1    
   243  122  243 1    
   244  124  125 1    
   245  124  244 1    
   246  124  245 1    
   247  125  126 1    
   248  126  246 1    
   249  126  247 1    
@<TRIPOS>SUBSTRUCTURE
     1 UNK         1 GROUP             0       ****    0 ROOT    
