@<TRIPOS>MOLECULE
3R540
247   249    1
SMALL
USER_CHARGES


@<TRIPOS>ATOM
      1 CA          5.2042  -12.1708  -45.8922 C.3       0 UNK        -0.1800 
      2 C           3.8693  -12.8632  -46.1177 C.2       0 UNK         0.5000 
      3 O           3.6065  -13.9007  -45.5094 O.2       0 UNK        -0.5000 
      4 N           3.0173  -12.3022  -46.9831 N.am      1 UNK        -0.5000 
      5 CA          1.6721  -12.8024  -47.2776 C.3       1 UNK         0.1400 
      6 C6          1.2999  -12.5844  -48.7675 C.3       23 UNK        -0.0398 
      7 S7          0.0487  -13.7804  -49.3519 S.3       23 UNK        -0.2404 
      8 C8          1.0554  -14.8437  -50.4313 C.3       23 UNK        -0.0205 
      9 C9          0.2142  -15.9054  -51.1238 C.ar      23 UNK        -0.0193 
     10 C10        -0.6531  -15.5411  -52.1598 C.ar      23 UNK        -0.1150 
     11 C11        -1.4095  -16.5018  -52.8387 C.ar      23 UNK        -0.0193 
     12 C12        -1.2767  -17.8426  -52.4634 C.ar      23 UNK        -0.1150 
     13 C13        -0.4155  -18.2261  -51.4336 C.ar      23 UNK        -0.0193 
     14 C14         0.3237  -17.2513  -50.7579 C.ar      23 UNK        -0.1150 
     15 C15        -0.2793  -19.7013  -51.0852 C.3       23 UNK        -0.0205 
     16 S16        -1.8494  -20.3911  -50.4758 S.3       23 UNK        -0.2404 
     17 C17        -1.7688  -19.9189  -48.7195 C.3       23 UNK        -0.0398 
     18 CA         -1.5973  -21.1670  -47.8147 C.3       11 UNK         0.1400 
     19 N          -0.5825  -20.9885  -46.7735 N.am      11 UNK        -0.5000 
     20 C          -0.1235  -21.9750  -45.9886 C.2       10 UNK         0.5000 
     21 O          -0.4759  -23.1494  -46.0923 O.2       10 UNK        -0.5000 
     22 CA          0.8483  -21.5766  -44.8631 C.3       10 UNK         0.1400 
     23 CB          2.2810  -21.4361  -45.3979 C.3       10 UNK        -0.1800 
     24 N           0.4467  -20.3390  -44.1952 N.am      10 UNK        -0.5000 
     25 C          -0.6973  -20.1802  -43.5137 C.2       9 UNK         0.5000 
     26 O          -1.5036  -21.0873  -43.3070 O.2       9 UNK        -0.5000 
     27 CA         -1.0246  -18.7512  -43.0455 C.3       9 UNK         0.1400 
     28 CB         -0.2578  -18.4041  -41.7609 C.3       9 UNK        -0.1800 
     29 N          -0.7365  -17.7579  -44.0824 N.am      9 UNK        -0.5000 
     30 C          -1.3811  -17.6829  -45.2572 C.2       8 UNK         0.5000 
     31 O          -2.3288  -18.4039  -45.5645 O.2       8 UNK        -0.5000 
     32 CA         -0.8479  -16.6679  -46.2818 C.3       8 UNK         0.1400 
     33 CB         -1.5000  -15.2970  -46.0678 C.3       8 UNK        -0.1800 
     34 N           0.6126  -16.5587  -46.2315 N.am      8 UNK        -0.5000 
     35 C           1.4318  -17.5158  -46.6922 C.2       7 UNK         0.5000 
     36 O           1.0357  -18.5491  -47.2284 O.2       7 UNK        -0.5000 
     37 CA          2.9407  -17.3191  -46.4778 C.3       7 UNK         0.1400 
     38 CB          3.5634  -16.5349  -47.6421 C.3       7 UNK        -0.1800 
     39 N           3.2623  -16.6685  -45.2061 N.am      7 UNK        -0.5000 
     40 C           3.0855  -17.2480  -44.0089 C.2       6 UNK         0.5000 
     41 O           2.5499  -18.3482  -43.8747 O.2       6 UNK        -0.5000 
     42 CA          3.5768  -16.5098  -42.7515 C.3       6 UNK         0.1400 
     43 CB          4.9377  -17.0773  -42.3061 C.3       6 UNK        -0.1800 
     44 N           3.6714  -15.0626  -42.9490 N.am      6 UNK        -0.5000 
     45 C           3.6436  -14.0924  -42.0281 C.2       5 UNK         0.5000 
     46 O           3.6393  -12.9066  -42.3580 O.2       5 UNK        -0.5000 
     47 CA          3.6057  -14.4209  -40.5243 C.3       5 UNK         0.1400 
     48 CB          4.8677  -13.8833  -39.8202 C.3       5 UNK        -0.1800 
     49 N           2.4008  -13.8018  -39.9885 N.am      5 UNK        -0.5000 
     50 C           1.8794  -13.9904  -38.7717 C.2       4 UNK         0.5000 
     51 O           2.3882  -14.6978  -37.9015 O.2       4 UNK        -0.5000 
     52 CA          0.5373  -13.2871  -38.4976 C.3       4 UNK         0.1400 
     53 CB          0.7595  -11.8113  -38.1314 C.3       4 UNK        -0.1800 
     54 N          -0.3720  -13.3718  -39.6427 N.am      4 UNK        -0.5000 
     55 C          -0.9744  -14.4993  -40.0489 C.2       3 UNK         0.5000 
     56 O          -0.8780  -15.5749  -39.4583 O.2       3 UNK        -0.5000 
     57 CA         -1.8291  -14.4153  -41.3279 C.3       3 UNK         0.1400 
     58 CB         -3.3107  -14.2186  -40.9740 C.3       3 UNK        -0.1800 
     59 N          -1.4070  -13.3445  -42.2337 N.am      3 UNK        -0.5000 
     60 C          -0.3126  -13.3955  -43.0019 C.2       2 UNK         0.5000 
     61 O           0.4655  -14.3534  -43.0277 O.2       2 UNK        -0.5000 
     62 CA         -0.0644  -12.1764  -43.9002 C.3       2 UNK         0.1400 
     63 CB          0.5795  -11.0258  -43.1099 C.3       2 UNK        -0.1800 
     64 N           0.8123  -12.5620  -45.0006 N.am      2 UNK        -0.5000 
     65 C           0.6643  -12.1939  -46.2777 C.2       1 UNK         0.5000 
     66 O          -0.1949  -11.3978  -46.6601 O.2       1 UNK        -0.5000 
     67 C          -2.9498  -21.6229  -47.2344 C.2       11 UNK         0.5000 
     68 O          -3.5530  -22.5517  -47.7688 O.2       11 UNK        -0.5000 
     69 N          -3.3845  -20.9920  -46.1346 N.am      12 UNK        -0.5000 
     70 CA         -4.6016  -21.3411  -45.4017 C.3       12 UNK         0.1400 
     71 CB         -4.8665  -20.2983  -44.3057 C.3       12 UNK        -0.1800 
     72 C          -4.5497  -22.7624  -44.8142 C.2       12 UNK         0.5000 
     73 O          -5.5229  -23.5046  -44.9465 O.2       12 UNK        -0.5000 
     74 N          -3.3998  -23.1381  -44.2352 N.am      13 UNK        -0.5000 
     75 CA         -3.1229  -24.4852  -43.7282 C.3       13 UNK         0.1400 
     76 CB         -1.7863  -24.4820  -42.9715 C.3       13 UNK        -0.1800 
     77 C          -3.1237  -25.5596  -44.8348 C.2       13 UNK         0.5000 
     78 O          -3.5887  -26.6751  -44.5992 O.2       13 UNK        -0.5000 
     79 N          -2.6414  -25.1925  -46.0293 N.am      14 UNK        -0.5000 
     80 CA         -2.6613  -26.0173  -47.2388 C.3       14 UNK         0.1400 
     81 CB         -1.5752  -25.5075  -48.2022 C.3       14 UNK        -0.1800 
     82 C          -4.0320  -26.0467  -47.9479 C.2       14 UNK         0.5000 
     83 O          -4.1715  -26.7718  -48.9318 O.2       14 UNK        -0.5000 
     84 N          -5.0031  -25.2460  -47.4813 N.am      15 UNK        -0.5000 
     85 CA         -6.3277  -25.0232  -48.0749 C.3       15 UNK         0.1400 
     86 CB         -7.1976  -26.2932  -47.9721 C.3       15 UNK        -0.1800 
     87 C          -6.2390  -24.4571  -49.5100 C.2       15 UNK         0.5000 
     88 O          -6.9620  -24.8989  -50.4037 O.2       15 UNK        -0.5000 
     89 N          -5.3114  -23.5072  -49.6946 N.am      16 UNK        -0.5000 
     90 CA         -4.9250  -22.8025  -50.9215 C.3       16 UNK         0.1400 
     91 CB         -6.1252  -22.1041  -51.5893 C.3       16 UNK        -0.1800 
     92 C          -4.1258  -23.6476  -51.9323 C.2       16 UNK         0.5000 
     93 O          -3.6130  -23.0823  -52.8994 O.2       16 UNK        -0.5000 
     94 N          -3.9783  -24.9608  -51.6981 N.am      17 UNK        -0.5000 
     95 CA         -3.3332  -25.9200  -52.6048 C.3       17 UNK         0.1400 
     96 CB         -3.5764  -27.3468  -52.0923 C.3       17 UNK        -0.1800 
     97 C          -1.8273  -25.6817  -52.8360 C.2       17 UNK         0.5000 
     98 O          -1.2686  -26.2410  -53.7798 O.2       17 UNK        -0.5000 
     99 N          -1.2041  -24.8403  -51.9987 N.am      18 UNK        -0.5000 
    100 CA         0.1673  -24.3553  -52.1594 C.3       18 UNK         0.1400 
    101 CB         0.5790  -23.5901  -50.8920 C.3       18 UNK        -0.1800 
    102 C          0.3628  -23.4822  -53.4185 C.2       18 UNK         0.5000 
    103 O          1.4770  -23.4319  -53.9409 O.2       18 UNK        -0.5000 
    104 N         -0.7130  -22.8353  -53.8904 N.am      19 UNK        -0.5000 
    105 CA        -0.7511  -22.0844  -55.1477 C.3       19 UNK         0.1400 
    106 CB        -1.0438  -20.6085  -54.8491 C.3       19 UNK        -0.1800 
    107 C         -1.8096  -22.6364  -56.1162 C.2       19 UNK         0.5000 
    108 O         -1.6134  -22.5503  -57.3290 O.2       19 UNK        -0.5000 
    109 N         -2.9211  -23.1590  -55.5760 N.am      20 UNK        -0.5000 
    110 CA        -4.1219  -23.6830  -56.2381 C.3       20 UNK         0.1400 
    111 CB        -3.7964  -24.8525  -57.1856 C.3       20 UNK        -0.1800 
    112 C         -4.9632  -22.5950  -56.9317 C.2       20 UNK         0.5000 
    113 O         -6.1606  -22.4909  -56.6624 O.2       20 UNK        -0.5000 
    114 N         -4.3207  -21.7710  -57.7692 N.am      21 UNK        -0.5000 
    115 CA        -4.9163  -20.6471  -58.4988 C.3       21 UNK         0.1400 
    116 CB        -3.8660  -20.0670  -59.4580 C.3       21 UNK        -0.1800 
    117 C         -5.4800  -19.5405  -57.5845 C.2       21 UNK         0.5000 
    118 O         -6.4171  -18.8454  -57.9789 O.2       21 UNK        -0.5000 
    119 N         -4.9141  -19.4164  -56.3781 N.am      22 UNK        -0.5000 
    120 CA        -5.3841  -18.5232  -55.3074 C.3       22 UNK         0.1400 
    121 C         -6.6322  -19.0562  -54.5394 C.2       22 UNK         0.5000 
    122 N         -7.1199  -20.2664  -54.7927 N.am      22 UNK        -0.7600 
    123 O         -7.1801  -18.3485  -53.6990 O.2       22 UNK        -0.5000 
    124 C124       -4.2380  -18.1630  -54.3265 C.3       23 UNK        -0.0398 
    125 S125       -2.8384  -17.3322  -55.1646 S.3       23 UNK        -0.2404 
    126 C126       -2.3545  -16.0456  -53.9550 C.3       23 UNK        -0.0205 
    127 H127        6.0218  -12.8375  -46.1654 H         1 UNK         0.0600 
    128 H128        5.3130  -11.9089  -44.8396 H         1 UNK         0.0600 
    129 H129        5.2936  -11.2589  -46.4829 H         1 UNK         0.0600 
    130 H130        3.2696  -11.4319  -47.4301 H         1 UNK         0.3000 
    131 H131        1.6608  -13.8794  -47.1035 H         1 UNK         0.0600 
    132 H132        2.1898  -12.6962  -49.3885 H         1 UNK         0.0800 
    133 H133        0.9471  -11.5692  -48.9561 H         1 UNK         0.0800 
    134 H134        1.8486  -15.3057  -49.8428 H         1 UNK         0.0800 
    135 H135        1.5473  -14.2314  -51.1887 H         1 UNK         0.0800 
    136 H136       -0.7373  -14.4995  -52.4375 H         1 UNK         0.1150 
    137 H137       -1.8433  -18.6093  -52.9631 H         1 UNK         0.1150 
    138 H138        0.9937  -17.5416  -49.9605 H         1 UNK         0.1150 
    139 H139        0.0203  -20.2513  -51.9770 H         1 UNK         0.0800 
    140 H140        0.5117  -19.8656  -50.3514 H         1 UNK         0.0800 
    141 H141       -2.6583  -19.3371  -48.4688 H         1 UNK         0.0800 
    142 H142       -0.9416  -19.2247  -48.5903 H         1 UNK         0.0800 
    143 H143       -1.2298  -21.9946  -48.4257 H         1 UNK         0.0600 
    144 H144       -0.1925  -20.0583  -46.6678 H         1 UNK         0.3000 
    145 H145        0.8401  -22.3746  -44.1180 H         1 UNK         0.0600 
    146 H146        2.9802  -21.2040  -44.5943 H         1 UNK         0.0600 
    147 H147        2.6154  -22.3636  -45.8641 H         1 UNK         0.0600 
    148 H148        2.3585  -20.6468  -46.1454 H         1 UNK         0.0600 
    149 H149        1.0878  -19.5538  -44.2646 H         1 UNK         0.3000 
    150 H150       -2.0934  -18.7058  -42.8259 H         1 UNK         0.0600 
    151 H151       -0.5323  -19.0815  -40.9514 H         1 UNK         0.0600 
    152 H152       -0.4825  -17.3927  -41.4272 H         1 UNK         0.0600 
    153 H153        0.8209  -18.4780  -41.8944 H         1 UNK         0.0600 
    154 H154        0.0433  -17.1392  -43.9165 H         1 UNK         0.3000 
    155 H155       -1.1306  -17.0156  -47.2781 H         1 UNK         0.0600 
    156 H156       -1.3233  -14.9216  -45.0636 H         1 UNK         0.0600 
    157 H157       -2.5804  -15.3585  -46.2038 H         1 UNK         0.0600 
    158 H158       -1.1281  -14.5611  -46.7779 H         1 UNK         0.0600 
    159 H159        1.0091  -15.7612  -45.7582 H         1 UNK         0.3000 
    160 H160        3.3982  -18.3108  -46.4673 H         1 UNK         0.0600 
    161 H161        3.1583  -15.5273  -47.7182 H         1 UNK         0.0600 
    162 H162        3.3766  -17.0361  -48.5927 H         1 UNK         0.0600 
    163 H163        4.6440  -16.4513  -47.5265 H         1 UNK         0.0600 
    164 H164        3.6545  -15.7347  -45.2753 H         1 UNK         0.3000 
    165 H165        2.8263  -16.7163  -41.9869 H         1 UNK         0.0600 
    166 H166        5.2741  -16.6534  -41.3612 H         1 UNK         0.0600 
    167 H167        4.8836  -18.1583  -42.1694 H         1 UNK         0.0600 
    168 H168        5.7109  -16.8806  -43.0497 H         1 UNK         0.0600 
    169 H169        3.6739  -14.7501  -43.9149 H         1 UNK         0.3000 
    170 H170        3.5406  -15.4914  -40.3411 H         1 UNK         0.0600 
    171 H171        5.7700  -14.2938  -40.2750 H         1 UNK         0.0600 
    172 H172        4.9326  -12.7965  -39.8849 H         1 UNK         0.0600 
    173 H173        4.8882  -14.1565  -38.7655 H         1 UNK         0.0600 
    174 H174        1.9070  -13.2150  -40.6468 H         1 UNK         0.3000 
    175 H175        0.0663  -13.7821  -37.6455 H         1 UNK         0.0600 
    176 H176        1.2071  -11.2523  -38.9541 H         1 UNK         0.0600 
    177 H177       -0.1798  -11.3254  -37.8670 H         1 UNK         0.0600 
    178 H178        1.4249  -11.7195  -37.2719 H         1 UNK         0.0600 
    179 H179       -0.5224  -12.5273  -40.1736 H         1 UNK         0.3000 
    180 H180       -1.7326  -15.3675  -41.8539 H         1 UNK         0.0600 
    181 H181       -3.9346  -14.2302  -41.8680 H         1 UNK         0.0600 
    182 H182       -3.4801  -13.2732  -40.4571 H         1 UNK         0.0600 
    183 H183       -3.6658  -15.0176  -40.3217 H         1 UNK         0.0600 
    184 H184       -2.0045  -12.5310  -42.2771 H         1 UNK         0.3000 
    185 H185       -1.0309  -11.8485  -44.2892 H         1 UNK         0.0600 
    186 H186        0.7435  -10.1570  -43.7476 H         1 UNK         0.0600 
    187 H187       -0.0586  -10.7060  -42.2855 H         1 UNK         0.0600 
    188 H188        1.5423  -11.3144  -42.6888 H         1 UNK         0.0600 
    189 H189        1.5480  -13.2125  -44.7506 H         1 UNK         0.3000 
    190 H190       -2.8587  -20.1939  -45.7868 H         1 UNK         0.3000 
    191 H191       -5.4330  -21.3059  -46.1088 H         1 UNK         0.0600 
    192 H192       -5.7893  -20.5221  -43.7691 H         1 UNK         0.0600 
    193 H193       -4.9704  -19.2994  -44.7298 H         1 UNK         0.0600 
    194 H194       -4.0603  -20.2668  -43.5730 H         1 UNK         0.0600 
    195 H195       -2.6606  -22.4491  -44.1265 H         1 UNK         0.3000 
    196 H196       -3.9132  -24.7413  -43.0196 H         1 UNK         0.0600 
    197 H197       -0.9546  -24.2149  -43.6236 H         1 UNK         0.0600 
    198 H198       -1.8033  -23.7717  -42.1446 H         1 UNK         0.0600 
    199 H199       -1.5723  -25.4657  -42.5520 H         1 UNK         0.0600 
    200 H200       -2.2166  -24.2754  -46.1185 H         1 UNK         0.3000 
    201 H201       -2.4160  -27.0453  -46.9650 H         1 UNK         0.0600 
    202 H202       -1.7749  -24.4873  -48.5301 H         1 UNK         0.0600 
    203 H203       -1.5131  -26.1324  -49.0941 H         1 UNK         0.0600 
    204 H204       -0.5925  -25.5197  -47.7307 H         1 UNK         0.0600 
    205 H205       -4.7909  -24.6710  -46.6755 H         1 UNK         0.3000 
    206 H206       -6.8043  -24.2489  -47.4723 H         1 UNK         0.0600 
    207 H207       -7.2459  -26.6542  -46.9447 H         1 UNK         0.0600 
    208 H208       -8.2201  -26.0921  -48.2934 H         1 UNK         0.0600 
    209 H209       -6.8136  -27.1020  -48.5943 H         1 UNK         0.0600 
    210 H210       -4.7441  -23.2517  -48.8858 H         1 UNK         0.3000 
    211 H211       -4.2453  -22.0183  -50.5910 H         1 UNK         0.0600 
    212 H212       -5.7918  -21.4507  -52.3964 H         1 UNK         0.0600 
    213 H213       -6.6695  -21.4846  -50.8767 H         1 UNK         0.0600 
    214 H214       -6.8259  -22.8183  -52.0218 H         1 UNK         0.0600 
    215 H215       -4.4059  -25.3513  -50.8684 H         1 UNK         0.3000 
    216 H216       -3.8226  -25.8238  -53.5761 H         1 UNK         0.0600 
    217 H217       -3.0342  -27.5373  -51.1659 H         1 UNK         0.0600 
    218 H218       -3.2408  -28.0851  -52.8217 H         1 UNK         0.0600 
    219 H219       -4.6352  -27.5298  -51.9081 H         1 UNK         0.0600 
    220 H220       -1.7458  -24.4340  -51.2513 H         1 UNK         0.3000 
    221 H221        0.8209  -25.2242  -52.2603 H         1 UNK         0.0600 
    222 H222        0.5480  -24.2346  -50.0135 H         1 UNK         0.0600 
    223 H223       -0.0751  -22.7394  -50.7060 H         1 UNK         0.0600 
    224 H224        1.5972  -23.2085  -50.9776 H         1 UNK         0.0600 
    225 H225       -1.5899  -22.9347  -53.3932 H         1 UNK         0.3000 
    226 H226        0.2093  -22.1427  -55.6638 H         1 UNK         0.0600 
    227 H227       -1.9578  -20.4984  -54.2660 H         1 UNK         0.0600 
    228 H228       -0.2264  -20.1509  -54.2936 H         1 UNK         0.0600 
    229 H229       -1.1659  -20.0340  -55.7685 H         1 UNK         0.0600 
    230 H230       -3.0238  -23.1081  -54.5646 H         1 UNK         0.3000 
    231 H231       -4.7400  -24.0851  -55.4336 H         1 UNK         0.0600 
    232 H232       -3.2047  -24.5356  -58.0445 H         1 UNK         0.0600 
    233 H233       -4.7114  -25.3030  -57.5717 H         1 UNK         0.0600 
    234 H234       -3.2421  -25.6346  -56.6665 H         1 UNK         0.0600 
    235 H235       -3.3249  -21.9295  -57.8983 H         1 UNK         0.3000 
    236 H236       -5.7463  -21.0376  -59.0909 H         1 UNK         0.0600 
    237 H237       -3.5194  -20.8201  -60.1659 H         1 UNK         0.0600 
    238 H238       -4.2794  -19.2414  -60.0389 H         1 UNK         0.0600 
    239 H239       -2.9969  -19.6877  -58.9188 H         1 UNK         0.0600 
    240 H240       -4.1459  -20.0267  -56.1468 H         1 UNK         0.3000 
    241 H241       -5.7098  -17.5922  -55.7752 H         1 UNK         0.0600 
    242 H242       -7.9336  -20.5796  -54.2885 H         1 UNK         0.3800 
    243 H243       -6.7061  -20.8717  -55.4916 H         1 UNK         0.3800 
    244 H244       -3.8767  -19.0642  -53.8303 H         1 UNK         0.0800 
    245 H245       -4.6084  -17.5103  -53.5345 H         1 UNK         0.0800 
    246 H246       -3.2454  -15.6002  -53.5111 H         1 UNK         0.0800 
    247 H247       -1.8669  -15.2473  -54.5166 H         1 UNK         0.0800 
@<TRIPOS>BOND
     1    1    2 1    
     2    1  127 1    
     3    1  128 1    
     4    1  129 1    
     5    2    3 2    
     6    2    4 am   BACKBONE|DICT|INTERRES
     7    4    5 1    
     8    4  130 1    
     9    5    6 1    
    10    5   65 1    
    11    5  131 1    
    12    6    7 1    
    13    6  132 1    
    14    6  133 1    
    15    7    8 1    
    16    8    9 1    
    17    8  134 1    
    18    8  135 1    
    19    9   10 ar   
    20    9   14 ar   
    21   10   11 ar   
    22   10  136 1    
    23   11   12 ar   
    24   11  126 1    
    25   12   13 ar   
    26   12  137 1    
    27   13   14 ar   
    28   13   15 1    
    29   14  138 1    
    30   15   16 1    
    31   15  139 1    
    32   15  140 1    
    33   16   17 1    
    34   17   18 1    
    35   17  141 1    
    36   17  142 1    
    37   18   19 1    
    38   18   67 1    
    39   18  143 1    
    40   19   20 am   BACKBONE|DICT|INTERRES
    41   19  144 1    
    42   20   21 2    
    43   20   22 1    
    44   22   23 1    
    45   22   24 1    
    46   22  145 1    
    47   23  146 1    
    48   23  147 1    
    49   23  148 1    
    50   24   25 am   BACKBONE|DICT|INTERRES
    51   24  149 1    
    52   25   26 2    
    53   25   27 1    
    54   27   28 1    
    55   27   29 1    
    56   27  150 1    
    57   28  151 1    
    58   28  152 1    
    59   28  153 1    
    60   29   30 am   BACKBONE|DICT|INTERRES
    61   29  154 1    
    62   30   31 2    
    63   30   32 1    
    64   32   33 1    
    65   32   34 1    
    66   32  155 1    
    67   33  156 1    
    68   33  157 1    
    69   33  158 1    
    70   34   35 am   BACKBONE|DICT|INTERRES
    71   34  159 1    
    72   35   36 2    
    73   35   37 1    
    74   37   38 1    
    75   37   39 1    
    76   37  160 1    
    77   38  161 1    
    78   38  162 1    
    79   38  163 1    
    80   39   40 am   BACKBONE|DICT|INTERRES
    81   39  164 1    
    82   40   41 2    
    83   40   42 1    
    84   42   43 1    
    85   42   44 1    
    86   42  165 1    
    87   43  166 1    
    88   43  167 1    
    89   43  168 1    
    90   44   45 am   BACKBONE|DICT|INTERRES
    91   44  169 1    
    92   45   46 2    
    93   45   47 1    
    94   47   48 1    
    95   47   49 1    
    96   47  170 1    
    97   48  171 1    
    98   48  172 1    
    99   48  173 1    
   100   49   50 am   BACKBONE|DICT|INTERRES
   101   49  174 1    
   102   50   51 2    
   103   50   52 1    
   104   52   53 1    
   105   52   54 1    
   106   52  175 1    
   107   53  176 1    
   108   53  177 1    
   109   53  178 1    
   110   54   55 am   BACKBONE|DICT|INTERRES
   111   54  179 1    
   112   55   56 2    
   113   55   57 1    
   114   57   58 1    
   115   57   59 1    
   116   57  180 1    
   117   58  181 1    
   118   58  182 1    
   119   58  183 1    
   120   59   60 am   BACKBONE|DICT|INTERRES
   121   59  184 1    
   122   60   61 2    
   123   60   62 1    
   124   62   63 1    
   125   62   64 1    
   126   62  185 1    
   127   63  186 1    
   128   63  187 1    
   129   63  188 1    
   130   64   65 am   BACKBONE|DICT|INTERRES
   131   64  189 1    
   132   65   66 2    
   133   67   68 2    
   134   67   69 am   BACKBONE|DICT|INTERRES
   135   69   70 1    
   136   69  190 1    
   137   70   71 1    
   138   70   72 1    
   139   70  191 1    
   140   71  192 1    
   141   71  193 1    
   142   71  194 1    
   143   72   73 2    
   144   72   74 am   BACKBONE|DICT|INTERRES
   145   74   75 1    
   146   74  195 1    
   147   75   76 1    
   148   75   77 1    
   149   75  196 1    
   150   76  197 1    
   151   76  198 1    
   152   76  199 1    
   153   77   78 2    
   154   77   79 am   BACKBONE|DICT|INTERRES
   155   79   80 1    
   156   79  200 1    
   157   80   81 1    
   158   80   82 1    
   159   80  201 1    
   160   81  202 1    
   161   81  203 1    
   162   81  204 1    
   163   82   83 2    
   164   82   84 am   BACKBONE|DICT|INTERRES
   165   84   85 1    
   166   84  205 1    
   167   85   86 1    
   168   85   87 1    
   169   85  206 1    
   170   86  207 1    
   171   86  208 1    
   172   86  209 1    
   173   87   88 2    
   174   87   89 am   BACKBONE|DICT|INTERRES
   175   89   90 1    
   176   89  210 1    
   177   90   91 1    
   178   90   92 1    
   179   90  211 1    
   180   91  212 1    
   181   91  213 1    
   182   91  214 1    
   183   92   93 2    
   184   92   94 am   BACKBONE|DICT|INTERRES
   185   94   95 1    
   186   94  215 1    
   187   95   96 1    
   188   95   97 1    
   189   95  216 1    
   190   96  217 1    
   191   96  218 1    
   192   96  219 1    
   193   97   98 2    
   194   97   99 am   BACKBONE|DICT|INTERRES
   195   99  100 1    
   196   99  220 1    
   197  100  101 1    
   198  100  102 1    
   199  100  221 1    
   200  101  222 1    
   201  101  223 1    
   202  101  224 1    
   203  102  103 2    
   204  102  104 am   BACKBONE|DICT|INTERRES
   205  104  105 1    
   206  104  225 1    
   207  105  106 1    
   208  105  107 1    
   209  105  226 1    
   210  106  227 1    
   211  106  228 1    
   212  106  229 1    
   213  107  108 2    
   214  107  109 am   BACKBONE|DICT|INTERRES
   215  109  110 1    
   216  109  230 1    
   217  110  111 1    
   218  110  112 1    
   219  110  231 1    
   220  111  232 1    
   221  111  233 1    
   222  111  234 1    
   223  112  113 2    
   224  112  114 am   BACKBONE|DICT|INTERRES
   225  114  115 1    
   226  114  235 1    
   227  115  116 1    
   228  115  117 1    
   229  115  236 1    
   230  116  237 1    
   231  116  238 1    
   232  116  239 1    
   233  117  118 2    
   234  117  119 am   BACKBONE|DICT|INTERRES
   235  119  120 1    
   236  119  240 1    
   237  120  121 1    
   238  120  124 1    
   239  120  241 1    
   240  121  122 am   BACKBONE|DICT|INTERRES
   241  121  123 2    
   242  122  242 1    
   243  122  243 1    
   244  124  125 1    
   245  124  244 1    
   246  124  245 1    
   247  125  126 1    
   248  126  246 1    
   249  126  247 1    
@<TRIPOS>SUBSTRUCTURE
     1 UNK         1 GROUP             0       ****    0 ROOT    
