@<TRIPOS>MOLECULE
3R540
247   249    1
SMALL
USER_CHARGES


@<TRIPOS>ATOM
      1 CA          1.5991   -9.1888  -48.4661 C.3       0 UNK        -0.1800 
      2 C           2.9993   -9.7703  -48.6036 C.2       0 UNK         0.5000 
      3 O           3.9829   -9.0469  -48.4419 O.2       0 UNK        -0.5000 
      4 N           3.0912  -11.0693  -48.9094 N.am      1 UNK        -0.5000 
      5 CA          4.3409  -11.8312  -48.9855 C.3       1 UNK         0.1400 
      6 C6          4.1527  -13.1438  -49.7893 C.3       23 UNK        -0.0398 
      7 S7          2.8968  -14.2858  -49.1084 S.3       23 UNK        -0.2404 
      8 C8          2.6864  -15.3984  -50.5295 C.3       23 UNK        -0.0205 
      9 C9          1.7359  -16.5416  -50.2124 C.ar      23 UNK        -0.0193 
     10 C10         0.3583  -16.3825  -50.3922 C.ar      23 UNK        -0.1150 
     11 C11        -0.5151  -17.4450  -50.1432 C.ar      23 UNK        -0.0193 
     12 C12        -0.0036  -18.6670  -49.6972 C.ar      23 UNK        -0.1150 
     13 C13         1.3717  -18.8390  -49.5153 C.ar      23 UNK        -0.0193 
     14 C14         2.2360  -17.7722  -49.7754 C.ar      23 UNK        -0.1150 
     15 C15         1.9282  -20.1911  -49.0921 C.3       23 UNK        -0.0205 
     16 S16         2.4475  -20.2399  -47.3446 S.3       23 UNK        -0.2404 
     17 C17         0.8853  -19.9778  -46.4399 C.3       23 UNK        -0.0398 
     18 CA          0.1651  -21.2979  -46.0670 C.3       11 UNK         0.1400 
     19 N          -0.6942  -21.1363  -44.8928 N.am      11 UNK        -0.5000 
     20 C          -1.3843  -22.1200  -44.2970 C.2       10 UNK         0.5000 
     21 O          -1.3058  -23.3074  -44.6129 O.2       10 UNK        -0.5000 
     22 CA         -2.3838  -21.6882  -43.2118 C.3       10 UNK         0.1400 
     23 CB         -1.6812  -21.5012  -41.8596 C.3       10 UNK        -0.1800 
     24 N          -3.0826  -20.4576  -43.5894 N.am      10 UNK        -0.5000 
     25 C          -4.0012  -20.3882  -44.5643 C.2       9 UNK         0.5000 
     26 O          -4.3888  -21.3654  -45.2042 O.2       9 UNK        -0.5000 
     27 CA         -4.5490  -18.9904  -44.9094 C.3       9 UNK         0.1400 
     28 CB         -5.6783  -18.5985  -43.9451 C.3       9 UNK        -0.1800 
     29 N          -3.5136  -17.9557  -44.8909 N.am      9 UNK        -0.5000 
     30 C          -2.4978  -17.8835  -45.7631 C.2       8 UNK         0.5000 
     31 O          -2.3528  -18.6580  -46.7053 O.2       8 UNK        -0.5000 
     32 CA         -1.4329  -16.7998  -45.5135 C.3       8 UNK         0.1400 
     33 CB         -1.7927  -15.5087  -46.2624 C.3       8 UNK        -0.1800 
     34 N          -1.2216  -16.5070  -44.0921 N.am      8 UNK        -0.5000 
     35 C          -0.7972  -17.4017  -43.1890 C.2       7 UNK         0.5000 
     36 O          -0.5607  -18.5799  -43.4618 O.2       7 UNK        -0.5000 
     37 CA         -0.6421  -16.8898  -41.7484 C.3       7 UNK         0.1400 
     38 CB         -1.5516  -17.6413  -40.7567 C.3       7 UNK        -0.1800 
     39 N           0.7647  -16.8839  -41.3467 N.am      7 UNK        -0.5000 
     40 C           1.5712  -17.9090  -41.0265 C.2       6 UNK         0.5000 
     41 O           1.1909  -19.0698  -40.8738 O.2       6 UNK        -0.5000 
     42 CA          3.0708  -17.5829  -40.8411 C.3       6 UNK         0.1400 
     43 CB          3.9629  -18.6181  -41.5489 C.3       6 UNK        -0.1800 
     44 N           3.4119  -16.2502  -41.3454 N.am      6 UNK        -0.5000 
     45 C           3.4308  -15.1250  -40.6155 C.2       5 UNK         0.5000 
     46 O           3.2483  -15.1001  -39.3984 O.2       5 UNK        -0.5000 
     47 CA          3.6488  -13.7972  -41.3727 C.3       5 UNK         0.1400 
     48 CB          5.1095  -13.3404  -41.2466 C.3       5 UNK        -0.1800 
     49 N           3.2915  -13.8729  -42.7917 N.am      5 UNK        -0.5000 
     50 C           2.0509  -14.0689  -43.2648 C.2       4 UNK         0.5000 
     51 O           1.0526  -14.1212  -42.5466 O.2       4 UNK        -0.5000 
     52 CA          1.8982  -14.3103  -44.7794 C.3       4 UNK         0.1400 
     53 CB          1.3361  -13.0620  -45.4749 C.3       4 UNK        -0.1800 
     54 N           3.1435  -14.7299  -45.4291 N.am      4 UNK        -0.5000 
     55 C           3.7519  -15.9056  -45.2015 C.2       3 UNK         0.5000 
     56 O           3.3135  -16.7452  -44.4152 O.2       3 UNK        -0.5000 
     57 CA          5.0859  -16.1835  -45.9229 C.3       3 UNK         0.1400 
     58 CB          4.8672  -17.1200  -47.1179 C.3       3 UNK        -0.1800 
     59 N           5.7679  -14.9753  -46.3861 N.am      3 UNK        -0.5000 
     60 C           6.3359  -14.0592  -45.5893 C.2       2 UNK         0.5000 
     61 O           6.3732  -14.1524  -44.3626 O.2       2 UNK        -0.5000 
     62 CA          6.9182  -12.8079  -46.2796 C.3       2 UNK         0.1400 
     63 CB          8.4113  -13.0058  -46.5808 C.3       2 UNK        -0.1800 
     64 N           6.2195  -12.4424  -47.5187 N.am      2 UNK        -0.5000 
     65 C           4.9250  -12.0997  -47.5807 C.2       1 UNK         0.5000 
     66 O           4.1972  -12.0483  -46.5869 O.2       1 UNK        -0.5000 
     67 C          -0.6261  -21.8723  -47.2604 C.2       11 UNK         0.5000 
     68 O          -0.1980  -22.8602  -47.8550 O.2       11 UNK        -0.5000 
     69 N          -1.7893  -21.2750  -47.5565 N.am      12 UNK        -0.5000 
     70 CA         -2.7022  -21.6982  -48.6155 C.3       12 UNK         0.1400 
     71 CB         -3.8509  -20.6906  -48.7421 C.3       12 UNK        -0.1800 
     72 C          -3.2612  -23.1120  -48.4067 C.2       12 UNK         0.5000 
     73 O          -3.3810  -23.8549  -49.3796 O.2       12 UNK        -0.5000 
     74 N          -3.5815  -23.4667  -47.1561 N.am      13 UNK        -0.5000 
     75 CA         -4.0301  -24.8053  -46.7764 C.3       13 UNK         0.1400 
     76 CB         -4.5421  -24.7890  -45.3286 C.3       13 UNK        -0.1800 
     77 C          -2.9287  -25.8650  -46.9636 C.2       13 UNK         0.5000 
     78 O          -3.2101  -26.9425  -47.4884 O.2       13 UNK        -0.5000 
     79 N          -1.6934  -25.5287  -46.5654 N.am      14 UNK        -0.5000 
     80 CA         -0.5108  -26.3779  -46.7172 C.3       14 UNK         0.1400 
     81 CB          0.6452  -25.7954  -45.8894 C.3       14 UNK        -0.1800 
     82 C          -0.0914  -26.5640  -48.1878 C.2       14 UNK         0.5000 
     83 O           0.2315  -27.6815  -48.5922 O.2       14 UNK        -0.5000 
     84 N          -0.1171  -25.4716  -48.9626 N.am      15 UNK        -0.5000 
     85 CA          0.2315  -25.4437  -50.3852 C.3       15 UNK         0.1400 
     86 CB          0.5448  -23.9916  -50.7839 C.3       15 UNK        -0.1800 
     87 C          -0.8647  -26.0166  -51.3056 C.2       15 UNK         0.5000 
     88 O          -0.5843  -26.2806  -52.4750 O.2       15 UNK        -0.5000 
     89 N          -2.0916  -26.1508  -50.7795 N.am      16 UNK        -0.5000 
     90 CA         -3.3419  -26.4881  -51.4739 C.3       16 UNK         0.1400 
     91 CB         -3.2689  -27.8741  -52.1464 C.3       16 UNK        -0.1800 
     92 C          -3.8257  -25.3782  -52.4353 C.2       16 UNK         0.5000 
     93 O          -4.6901  -25.6228  -53.2779 O.2       16 UNK        -0.5000 
     94 N          -3.2988  -24.1591  -52.2569 N.am      17 UNK        -0.5000 
     95 CA         -3.6893  -22.9434  -52.9687 C.3       17 UNK         0.1400 
     96 CB         -2.5601  -21.9089  -52.8541 C.3       17 UNK        -0.1800 
     97 C          -5.0183  -22.3593  -52.4550 C.2       17 UNK         0.5000 
     98 O          -5.6027  -21.5109  -53.1276 O.2       17 UNK        -0.5000 
     99 N          -5.5005  -22.8271  -51.2934 N.am      18 UNK        -0.5000 
    100 CA        -6.8051  -22.4767  -50.7228 C.3       18 UNK         0.1400 
    101 CB        -6.9680  -23.1677  -49.3606 C.3       18 UNK        -0.1800 
    102 C         -7.9835  -22.8218  -51.6556 C.2       18 UNK         0.5000 
    103 O         -8.9518  -22.0647  -51.7185 O.2       18 UNK        -0.5000 
    104 N         -7.8434  -23.9160  -52.4182 N.am      19 UNK        -0.5000 
    105 CA        -8.7823  -24.3448  -53.4577 C.3       19 UNK         0.1400 
    106 CB        -8.4275  -25.7785  -53.8806 C.3       19 UNK        -0.1800 
    107 C         -8.8097  -23.4117  -54.6872 C.2       19 UNK         0.5000 
    108 O         -9.8072  -23.3958  -55.4087 O.2       19 UNK        -0.5000 
    109 N         -7.7299  -22.6461  -54.8964 N.am      20 UNK        -0.5000 
    110 CA        -7.5896  -21.6439  -55.9541 C.3       20 UNK         0.1400 
    111 CB        -6.1545  -21.7089  -56.5059 C.3       20 UNK        -0.1800 
    112 C         -7.9321  -20.2213  -55.4621 C.2       20 UNK         0.5000 
    113 O         -7.8096  -19.2768  -56.2430 O.2       20 UNK        -0.5000 
    114 N         -8.3553  -20.0917  -54.1936 N.am      21 UNK        -0.5000 
    115 CA        -8.7257  -18.8576  -53.4956 C.3       21 UNK         0.1400 
    116 CB        -9.9953  -18.2351  -54.1148 C.3       21 UNK        -0.1800 
    117 C         -7.5496  -17.8652  -53.3799 C.2       21 UNK         0.5000 
    118 O         -7.6634  -16.7131  -53.8036 O.2       21 UNK        -0.5000 
    119 N         -6.4367  -18.3499  -52.8111 N.am      22 UNK        -0.5000 
    120 CA        -5.2179  -17.5867  -52.4860 C.3       22 UNK         0.1400 
    121 C         -5.4818  -16.2855  -51.6715 C.2       22 UNK         0.5000 
    122 N         -4.8290  -15.1835  -52.0148 N.am      22 UNK        -0.7600 
    123 O         -6.2414  -16.2828  -50.7053 O.2       22 UNK        -0.5000 
    124 C124       -4.2064  -18.4886  -51.7342 C.3       23 UNK        -0.0398 
    125 S125       -2.4654  -18.0139  -51.9955 S.3       23 UNK        -0.2404 
    126 C126       -2.0078  -17.2943  -50.3850 C.3       23 UNK        -0.0205 
    127 H127        0.8291   -9.9404  -48.6427 H         1 UNK         0.0600 
    128 H128        1.4558   -8.3798  -49.1824 H         1 UNK         0.0600 
    129 H129        1.4573   -8.7873  -47.4627 H         1 UNK         0.0600 
    130 H130        2.2497  -11.6212  -48.9941 H         1 UNK         0.3000 
    131 H131        5.0686  -11.2191  -49.5227 H         1 UNK         0.0600 
    132 H132        3.8657  -12.8909  -50.8111 H         1 UNK         0.0800 
    133 H133        5.0984  -13.6809  -49.8786 H         1 UNK         0.0800 
    134 H134        2.3107  -14.8311  -51.3824 H         1 UNK         0.0800 
    135 H135        3.6592  -15.7935  -50.8266 H         1 UNK         0.0800 
    136 H136       -0.0307  -15.4371  -50.7435 H         1 UNK         0.1150 
    137 H137       -0.6789  -19.4908  -49.5156 H         1 UNK         0.1150 
    138 H138        3.3008  -17.9082  -49.6516 H         1 UNK         0.1150 
    139 H139        1.2052  -20.9830  -49.2878 H         1 UNK         0.0800 
    140 H140        2.7938  -20.4262  -49.7130 H         1 UNK         0.0800 
    141 H141        1.1573  -19.4419  -45.5290 H         1 UNK         0.0800 
    142 H142        0.2347  -19.2972  -46.9879 H         1 UNK         0.0800 
    143 H143        0.9208  -22.0359  -45.7896 H         1 UNK         0.0600 
    144 H144       -0.7824  -20.1963  -44.5170 H         1 UNK         0.3000 
    145 H145       -3.1251  -22.4824  -43.1004 H         1 UNK         0.0600 
    146 H146       -2.3830  -21.1852  -41.0877 H         1 UNK         0.0600 
    147 H147       -1.2297  -22.4363  -41.5263 H         1 UNK         0.0600 
    148 H148       -0.8842  -20.7595  -41.9159 H         1 UNK         0.0600 
    149 H149       -2.7682  -19.6049  -43.1507 H         1 UNK         0.3000 
    150 H150       -4.9637  -19.0365  -45.9187 H         1 UNK         0.0600 
    151 H151       -6.4731  -19.3456  -43.9517 H         1 UNK         0.0600 
    152 H152       -6.1268  -17.6465  -44.2298 H         1 UNK         0.0600 
    153 H153       -5.3208  -18.5082  -42.9186 H         1 UNK         0.0600 
    154 H154       -3.5593  -17.2751  -44.1474 H         1 UNK         0.3000 
    155 H155       -0.4883  -17.1704  -45.9169 H         1 UNK         0.0600 
    156 H156       -1.0004  -14.7661  -46.1770 H         1 UNK         0.0600 
    157 H157       -2.7136  -15.0647  -45.8826 H         1 UNK         0.0600 
    158 H158       -1.9356  -15.7036  -47.3265 H         1 UNK         0.0600 
    159 H159       -1.4006  -15.5580  -43.7955 H         1 UNK         0.3000 
    160 H160       -0.9528  -15.8442  -41.7266 H         1 UNK         0.0600 
    161 H161       -1.3584  -18.7130  -40.7454 H         1 UNK         0.0600 
    162 H162       -2.6015  -17.5077  -41.0192 H         1 UNK         0.0600 
    163 H163       -1.4201  -17.2673  -39.7414 H         1 UNK         0.0600 
    164 H164        1.2081  -15.9806  -41.4574 H         1 UNK         0.3000 
    165 H165        3.2815  -17.6368  -39.7712 H         1 UNK         0.0600 
    166 H166        3.7404  -18.6805  -42.6145 H         1 UNK         0.0600 
    167 H167        5.0189  -18.3709  -41.4397 H         1 UNK         0.0600 
    168 H168        3.8193  -19.6135  -41.1270 H         1 UNK         0.0600 
    169 H169        3.5387  -16.1856  -42.3491 H         1 UNK         0.3000 
    170 H170        3.0119  -13.0430  -40.9060 H         1 UNK         0.0600 
    171 H171        5.3881  -13.2079  -40.2004 H         1 UNK         0.0600 
    172 H172        5.7966  -14.0690  -41.6785 H         1 UNK         0.0600 
    173 H173        5.2716  -12.3868  -41.7495 H         1 UNK         0.0600 
    174 H174        4.0587  -13.8513  -43.4503 H         1 UNK         0.3000 
    175 H175        1.1774  -15.1195  -44.9077 H         1 UNK         0.0600 
    176 H176        1.9611  -12.1864  -45.3002 H         1 UNK         0.0600 
    177 H177        1.2525  -13.2092  -46.5518 H         1 UNK         0.0600 
    178 H178        0.3397  -12.8257  -45.0999 H         1 UNK         0.0600 
    179 H179        3.5747  -14.0570  -46.0517 H         1 UNK         0.3000 
    180 H180        5.7408  -16.6896  -45.2104 H         1 UNK         0.0600 
    181 H181        4.2190  -16.6654  -47.8657 H         1 UNK         0.0600 
    182 H182        4.3997  -18.0519  -46.7999 H         1 UNK         0.0600 
    183 H183        5.8103  -17.3782  -47.5995 H         1 UNK         0.0600 
    184 H184        5.7744  -14.8138  -47.3818 H         1 UNK         0.3000 
    185 H185        6.8177  -11.9742  -45.5815 H         1 UNK         0.0600 
    186 H186        8.8559  -12.0977  -46.9884 H         1 UNK         0.0600 
    187 H187        8.9626  -13.2564  -45.6734 H         1 UNK         0.0600 
    188 H188        8.5746  -13.8120  -47.2972 H         1 UNK         0.0600 
    189 H189        6.7690  -12.4634  -48.3659 H         1 UNK         0.3000 
    190 H190       -2.0518  -20.4301  -47.0534 H         1 UNK         0.3000 
    191 H191       -2.1358  -21.6969  -49.5473 H         1 UNK         0.0600 
    192 H192       -4.4766  -20.9130  -49.6047 H         1 UNK         0.0600 
    193 H193       -3.4714  -19.6810  -48.8710 H         1 UNK         0.0600 
    194 H194       -4.4917  -20.6921  -47.8602 H         1 UNK         0.0600 
    195 H195       -3.5258  -22.7730  -46.4181 H         1 UNK         0.3000 
    196 H196       -4.8654  -25.0752  -47.4263 H         1 UNK         0.0600 
    197 H197       -4.9092  -25.7726  -45.0334 H         1 UNK         0.0600 
    198 H198       -5.3660  -24.0849  -45.2111 H         1 UNK         0.0600 
    199 H199       -3.7586  -24.5061  -44.6255 H         1 UNK         0.0600 
    200 H200       -1.5532  -24.6313  -46.1110 H         1 UNK         0.3000 
    201 H201       -0.7511  -27.3636  -46.3136 H         1 UNK         0.0600 
    202 H202        0.3814  -25.7361  -44.8333 H         1 UNK         0.0600 
    203 H203        0.9145  -24.7922  -46.2214 H         1 UNK         0.0600 
    204 H204        1.5364  -26.4190  -45.9685 H         1 UNK         0.0600 
    205 H205       -0.3277  -24.5731  -48.5316 H         1 UNK         0.3000 
    206 H206        1.1327  -26.0418  -50.5349 H         1 UNK         0.0600 
    207 H207        1.3615  -23.5863  -50.1861 H         1 UNK         0.0600 
    208 H208        0.8456  -23.9258  -51.8303 H         1 UNK         0.0600 
    209 H209       -0.3211  -23.3420  -50.6495 H         1 UNK         0.0600 
    210 H210       -2.2079  -25.8685  -49.8147 H         1 UNK         0.3000 
    211 H211       -4.0993  -26.5480  -50.6910 H         1 UNK         0.0600 
    212 H212       -2.6060  -27.8740  -53.0117 H         1 UNK         0.0600 
    213 H213       -4.2531  -28.1902  -52.4939 H         1 UNK         0.0600 
    214 H214       -2.9133  -28.6325  -51.4488 H         1 UNK         0.0600 
    215 H215       -2.6713  -24.0434  -51.4728 H         1 UNK         0.3000 
    216 H216       -3.8243  -23.1873  -54.0245 H         1 UNK         0.0600 
    217 H217       -2.7777  -21.0275  -53.4588 H         1 UNK         0.0600 
    218 H218       -1.6127  -22.3163  -53.2076 H         1 UNK         0.0600 
    219 H219       -2.4187  -21.5727  -51.8278 H         1 UNK         0.0600 
    220 H220       -4.9311  -23.4811  -50.7692 H         1 UNK         0.3000 
    221 H221       -6.8209  -21.3966  -50.5634 H         1 UNK         0.0600 
    222 H222       -6.8668  -24.2506  -49.4426 H         1 UNK         0.0600 
    223 H223       -6.2250  -22.8142  -48.6466 H         1 UNK         0.0600 
    224 H224       -7.9487  -22.9600  -48.9305 H         1 UNK         0.0600 
    225 H225       -7.0020  -24.4666  -52.3196 H         1 UNK         0.3000 
    226 H226       -9.7862  -24.3517  -53.0280 H         1 UNK         0.0600 
    227 H227       -8.4752  -26.4634  -53.0338 H         1 UNK         0.0600 
    228 H228       -9.1229  -26.1477  -54.6355 H         1 UNK         0.0600 
    229 H229       -7.4231  -25.8359  -54.3026 H         1 UNK         0.0600 
    230 H230       -6.9706  -22.6777  -54.2278 H         1 UNK         0.3000 
    231 H231       -8.2732  -21.8736  -56.7739 H         1 UNK         0.0600 
    232 H232       -6.0331  -21.0409  -57.3594 H         1 UNK         0.0600 
    233 H233       -5.9077  -22.7148  -56.8460 H         1 UNK         0.0600 
    234 H234       -5.4174  -21.4174  -55.7576 H         1 UNK         0.0600 
    235 H235       -8.4152  -20.9333  -53.6358 H         1 UNK         0.3000 
    236 H236       -8.9766  -19.1508  -52.4749 H         1 UNK         0.0600 
    237 H237      -10.8133  -18.9550  -54.1414 H         1 UNK         0.0600 
    238 H238      -10.3346  -17.3806  -53.5282 H         1 UNK         0.0600 
    239 H239       -9.8246  -17.8838  -55.1327 H         1 UNK         0.0600 
    240 H240       -6.4198  -19.3312  -52.5699 H         1 UNK         0.3000 
    241 H241       -4.7867  -17.3060  -53.4487 H         1 UNK         0.0600 
    242 H242       -4.1897  -15.1709  -52.7942 H         1 UNK         0.3800 
    243 H243       -4.9842  -14.3380  -51.4887 H         1 UNK         0.3800 
    244 H244       -4.4431  -18.5444  -50.6716 H         1 UNK         0.0800 
    245 H245       -4.2799  -19.5112  -52.0980 H         1 UNK         0.0800 
    246 H246       -2.5480  -17.7761  -49.5714 H         1 UNK         0.0800 
    247 H247       -2.3004  -16.2435  -50.3640 H         1 UNK         0.0800 
@<TRIPOS>BOND
     1    1    2 1    
     2    1  127 1    
     3    1  128 1    
     4    1  129 1    
     5    2    3 2    
     6    2    4 am   BACKBONE|DICT|INTERRES
     7    4    5 1    
     8    4  130 1    
     9    5    6 1    
    10    5   65 1    
    11    5  131 1    
    12    6    7 1    
    13    6  132 1    
    14    6  133 1    
    15    7    8 1    
    16    8    9 1    
    17    8  134 1    
    18    8  135 1    
    19    9   10 ar   
    20    9   14 ar   
    21   10   11 ar   
    22   10  136 1    
    23   11   12 ar   
    24   11  126 1    
    25   12   13 ar   
    26   12  137 1    
    27   13   14 ar   
    28   13   15 1    
    29   14  138 1    
    30   15   16 1    
    31   15  139 1    
    32   15  140 1    
    33   16   17 1    
    34   17   18 1    
    35   17  141 1    
    36   17  142 1    
    37   18   19 1    
    38   18   67 1    
    39   18  143 1    
    40   19   20 am   BACKBONE|DICT|INTERRES
    41   19  144 1    
    42   20   21 2    
    43   20   22 1    
    44   22   23 1    
    45   22   24 1    
    46   22  145 1    
    47   23  146 1    
    48   23  147 1    
    49   23  148 1    
    50   24   25 am   BACKBONE|DICT|INTERRES
    51   24  149 1    
    52   25   26 2    
    53   25   27 1    
    54   27   28 1    
    55   27   29 1    
    56   27  150 1    
    57   28  151 1    
    58   28  152 1    
    59   28  153 1    
    60   29   30 am   BACKBONE|DICT|INTERRES
    61   29  154 1    
    62   30   31 2    
    63   30   32 1    
    64   32   33 1    
    65   32   34 1    
    66   32  155 1    
    67   33  156 1    
    68   33  157 1    
    69   33  158 1    
    70   34   35 am   BACKBONE|DICT|INTERRES
    71   34  159 1    
    72   35   36 2    
    73   35   37 1    
    74   37   38 1    
    75   37   39 1    
    76   37  160 1    
    77   38  161 1    
    78   38  162 1    
    79   38  163 1    
    80   39   40 am   BACKBONE|DICT|INTERRES
    81   39  164 1    
    82   40   41 2    
    83   40   42 1    
    84   42   43 1    
    85   42   44 1    
    86   42  165 1    
    87   43  166 1    
    88   43  167 1    
    89   43  168 1    
    90   44   45 am   BACKBONE|DICT|INTERRES
    91   44  169 1    
    92   45   46 2    
    93   45   47 1    
    94   47   48 1    
    95   47   49 1    
    96   47  170 1    
    97   48  171 1    
    98   48  172 1    
    99   48  173 1    
   100   49   50 am   BACKBONE|DICT|INTERRES
   101   49  174 1    
   102   50   51 2    
   103   50   52 1    
   104   52   53 1    
   105   52   54 1    
   106   52  175 1    
   107   53  176 1    
   108   53  177 1    
   109   53  178 1    
   110   54   55 am   BACKBONE|DICT|INTERRES
   111   54  179 1    
   112   55   56 2    
   113   55   57 1    
   114   57   58 1    
   115   57   59 1    
   116   57  180 1    
   117   58  181 1    
   118   58  182 1    
   119   58  183 1    
   120   59   60 am   BACKBONE|DICT|INTERRES
   121   59  184 1    
   122   60   61 2    
   123   60   62 1    
   124   62   63 1    
   125   62   64 1    
   126   62  185 1    
   127   63  186 1    
   128   63  187 1    
   129   63  188 1    
   130   64   65 am   BACKBONE|DICT|INTERRES
   131   64  189 1    
   132   65   66 2    
   133   67   68 2    
   134   67   69 am   BACKBONE|DICT|INTERRES
   135   69   70 1    
   136   69  190 1    
   137   70   71 1    
   138   70   72 1    
   139   70  191 1    
   140   71  192 1    
   141   71  193 1    
   142   71  194 1    
   143   72   73 2    
   144   72   74 am   BACKBONE|DICT|INTERRES
   145   74   75 1    
   146   74  195 1    
   147   75   76 1    
   148   75   77 1    
   149   75  196 1    
   150   76  197 1    
   151   76  198 1    
   152   76  199 1    
   153   77   78 2    
   154   77   79 am   BACKBONE|DICT|INTERRES
   155   79   80 1    
   156   79  200 1    
   157   80   81 1    
   158   80   82 1    
   159   80  201 1    
   160   81  202 1    
   161   81  203 1    
   162   81  204 1    
   163   82   83 2    
   164   82   84 am   BACKBONE|DICT|INTERRES
   165   84   85 1    
   166   84  205 1    
   167   85   86 1    
   168   85   87 1    
   169   85  206 1    
   170   86  207 1    
   171   86  208 1    
   172   86  209 1    
   173   87   88 2    
   174   87   89 am   BACKBONE|DICT|INTERRES
   175   89   90 1    
   176   89  210 1    
   177   90   91 1    
   178   90   92 1    
   179   90  211 1    
   180   91  212 1    
   181   91  213 1    
   182   91  214 1    
   183   92   93 2    
   184   92   94 am   BACKBONE|DICT|INTERRES
   185   94   95 1    
   186   94  215 1    
   187   95   96 1    
   188   95   97 1    
   189   95  216 1    
   190   96  217 1    
   191   96  218 1    
   192   96  219 1    
   193   97   98 2    
   194   97   99 am   BACKBONE|DICT|INTERRES
   195   99  100 1    
   196   99  220 1    
   197  100  101 1    
   198  100  102 1    
   199  100  221 1    
   200  101  222 1    
   201  101  223 1    
   202  101  224 1    
   203  102  103 2    
   204  102  104 am   BACKBONE|DICT|INTERRES
   205  104  105 1    
   206  104  225 1    
   207  105  106 1    
   208  105  107 1    
   209  105  226 1    
   210  106  227 1    
   211  106  228 1    
   212  106  229 1    
   213  107  108 2    
   214  107  109 am   BACKBONE|DICT|INTERRES
   215  109  110 1    
   216  109  230 1    
   217  110  111 1    
   218  110  112 1    
   219  110  231 1    
   220  111  232 1    
   221  111  233 1    
   222  111  234 1    
   223  112  113 2    
   224  112  114 am   BACKBONE|DICT|INTERRES
   225  114  115 1    
   226  114  235 1    
   227  115  116 1    
   228  115  117 1    
   229  115  236 1    
   230  116  237 1    
   231  116  238 1    
   232  116  239 1    
   233  117  118 2    
   234  117  119 am   BACKBONE|DICT|INTERRES
   235  119  120 1    
   236  119  240 1    
   237  120  121 1    
   238  120  124 1    
   239  120  241 1    
   240  121  122 am   BACKBONE|DICT|INTERRES
   241  121  123 2    
   242  122  242 1    
   243  122  243 1    
   244  124  125 1    
   245  124  244 1    
   246  124  245 1    
   247  125  126 1    
   248  126  246 1    
   249  126  247 1    
@<TRIPOS>SUBSTRUCTURE
     1 UNK         1 GROUP             0       ****    0 ROOT    
