@<TRIPOS>MOLECULE
3R540
247   249    1
SMALL
USER_CHARGES


@<TRIPOS>ATOM
      1 CA         -1.1477  -11.0558  -49.9523 C.3       0 UNK        -0.1800 
      2 C          -0.6291  -12.2209  -49.1225 C.2       0 UNK         0.5000 
      3 O           0.5143  -12.1909  -48.6695 O.2       0 UNK        -0.5000 
      4 N          -1.4687  -13.2423  -48.9059 N.am      1 UNK        -0.5000 
      5 CA         -1.1448  -14.4802  -48.1769 C.3       1 UNK         0.1400 
      6 C6         -2.2853  -15.5285  -48.2661 C.3       23 UNK        -0.0398 
      7 S7         -2.8546  -15.8032  -49.9805 S.3       23 UNK        -0.2404 
      8 C8         -4.5016  -16.5353  -49.7223 C.3       23 UNK        -0.0205 
      9 C9         -4.4075  -18.0215  -49.4199 C.ar      23 UNK        -0.0193 
     10 C10        -4.1452  -18.9276  -50.4521 C.ar      23 UNK        -0.1150 
     11 C11        -4.0224  -20.2945  -50.1858 C.ar      23 UNK        -0.0193 
     12 C12        -4.1817  -20.7522  -48.8771 C.ar      23 UNK        -0.1150 
     13 C13        -4.4428  -19.8564  -47.8374 C.ar      23 UNK        -0.0193 
     14 C14        -4.5621  -18.4916  -48.1130 C.ar      23 UNK        -0.1150 
     15 C15        -4.5299  -20.3669  -46.4098 C.3       23 UNK        -0.0205 
     16 S16        -3.0512  -19.9586  -45.4189 S.3       23 UNK        -0.2404 
     17 C17        -1.6309  -20.2337  -46.5482 C.3       23 UNK        -0.0398 
     18 CA         -0.9097  -21.5917  -46.3803 C.3       11 UNK         0.1400 
     19 N          -0.4371  -21.7982  -45.0070 N.am      11 UNK        -0.5000 
     20 C           0.2135  -22.8713  -44.5342 C.2       10 UNK         0.5000 
     21 O           0.4077  -23.8959  -45.1878 O.2       10 UNK        -0.5000 
     22 CA          0.7488  -22.7904  -43.0950 C.3       10 UNK         0.1400 
     23 CB          2.2699  -22.5754  -43.1126 C.3       10 UNK        -0.1800 
     24 N           0.1392  -21.6973  -42.3419 N.am      10 UNK        -0.5000 
     25 C          -0.9468  -21.7949  -41.5663 C.2       9 UNK         0.5000 
     26 O          -1.5709  -22.8432  -41.3952 O.2       9 UNK        -0.5000 
     27 CA         -1.4063  -20.4893  -40.8813 C.3       9 UNK         0.1400 
     28 CB         -2.2519  -20.7313  -39.6144 C.3       9 UNK        -0.1800 
     29 N          -0.2945  -19.5693  -40.6108 N.am      9 UNK        -0.5000 
     30 C           0.7542  -19.7544  -39.7935 C.2       8 UNK         0.5000 
     31 O           0.8996  -20.7374  -39.0665 O.2       8 UNK        -0.5000 
     32 CA          1.8466  -18.6650  -39.8145 C.3       8 UNK         0.1400 
     33 CB          3.0520  -19.1464  -40.6379 C.3       8 UNK        -0.1800 
     34 N           1.3791  -17.3961  -40.3755 N.am      8 UNK        -0.5000 
     35 C           0.5621  -16.5326  -39.7560 C.2       7 UNK         0.5000 
     36 O           0.1899  -16.6558  -38.5890 O.2       7 UNK        -0.5000 
     37 CA          0.0264  -15.3705  -40.6127 C.3       7 UNK         0.1400 
     38 CB          1.0457  -14.2249  -40.7000 C.3       7 UNK        -0.1800 
     39 N          -0.3330  -15.8275  -41.9583 N.am      7 UNK        -0.5000 
     40 C          -1.4186  -16.5671  -42.2296 C.2       6 UNK         0.5000 
     41 O          -2.2802  -16.8386  -41.3943 O.2       6 UNK        -0.5000 
     42 CA         -1.5523  -17.1476  -43.6475 C.3       6 UNK         0.1400 
     43 CB         -2.6290  -16.4088  -44.4559 C.3       6 UNK        -0.1800 
     44 N          -0.2844  -17.1533  -44.3826 N.am      6 UNK        -0.5000 
     45 C           0.6217  -18.1345  -44.2901 C.2       5 UNK         0.5000 
     46 O           0.4744  -19.1349  -43.5864 O.2       5 UNK        -0.5000 
     47 CA          1.9168  -17.9692  -45.1044 C.3       5 UNK         0.1400 
     48 CB          1.6920  -18.3248  -46.5820 C.3       5 UNK        -0.1800 
     49 N           2.5248  -16.6394  -45.0139 N.am      5 UNK        -0.5000 
     50 C           2.9626  -16.0797  -43.8783 C.2       4 UNK         0.5000 
     51 O           2.7220  -16.5264  -42.7574 O.2       4 UNK        -0.5000 
     52 CA          3.8231  -14.8202  -44.0214 C.3       4 UNK         0.1400 
     53 CB          5.1757  -15.1534  -44.6829 C.3       4 UNK        -0.1800 
     54 N           3.1135  -13.7799  -44.7626 N.am      4 UNK        -0.5000 
     55 C           3.4566  -12.4831  -44.7535 C.2       3 UNK         0.5000 
     56 O           4.4423  -12.0406  -44.1617 O.2       3 UNK        -0.5000 
     57 CA          2.5431  -11.5016  -45.5150 C.3       3 UNK         0.1400 
     58 CB          3.0856  -11.2567  -46.9306 C.3       3 UNK        -0.1800 
     59 N           1.1490  -11.9434  -45.5959 N.am      3 UNK        -0.5000 
     60 C           0.3373  -12.0811  -44.5359 C.2       2 UNK         0.5000 
     61 O           0.6705  -11.7766  -43.3909 O.2       2 UNK        -0.5000 
     62 CA         -1.0734  -12.6601  -44.7662 C.3       2 UNK         0.1400 
     63 CB         -2.1538  -11.6264  -44.4118 C.3       2 UNK        -0.1800 
     64 N          -1.3206  -13.1423  -46.1263 N.am      2 UNK        -0.5000 
     65 C          -0.7668  -14.2191  -46.7012 C.2       1 UNK         0.5000 
     66 O           0.0273  -14.9640  -46.1244 O.2       1 UNK        -0.5000 
     67 C          -1.7526  -22.7468  -46.9578 C.2       11 UNK         0.5000 
     68 O          -1.5694  -23.1039  -48.1216 O.2       11 UNK        -0.5000 
     69 N          -2.6340  -23.3230  -46.1299 N.am      12 UNK        -0.5000 
     70 CA         -3.5291  -24.4187  -46.5028 C.3       12 UNK         0.1400 
     71 CB         -4.6021  -24.5783  -45.4152 C.3       12 UNK        -0.1800 
     72 C          -2.7949  -25.7517  -46.7378 C.2       12 UNK         0.5000 
     73 O          -3.2534  -26.5587  -47.5470 O.2       12 UNK        -0.5000 
     74 N          -1.6742  -25.9567  -46.0338 N.am      13 UNK        -0.5000 
     75 CA         -0.8024  -27.1179  -46.1959 C.3       13 UNK         0.1400 
     76 CB         -0.0878  -27.4068  -44.8662 C.3       13 UNK        -0.1800 
     77 C           0.2166  -26.8908  -47.3241 C.2       13 UNK         0.5000 
     78 O           0.4939  -27.8159  -48.0883 O.2       13 UNK        -0.5000 
     79 N           0.7561  -25.6666  -47.4022 N.am      14 UNK        -0.5000 
     80 CA          1.7619  -25.2574  -48.3784 C.3       14 UNK         0.1400 
     81 CB          2.3566  -23.9044  -47.9563 C.3       14 UNK        -0.1800 
     82 C           1.2196  -25.1769  -49.8148 C.2       14 UNK         0.5000 
     83 O           1.9280  -25.5659  -50.7430 O.2       14 UNK        -0.5000 
     84 N           0.0041  -24.6299  -49.9784 N.am      15 UNK        -0.5000 
     85 CA         -0.7381  -24.3674  -51.2240 C.3       15 UNK         0.1400 
     86 CB         -1.0397  -25.6741  -51.9795 C.3       15 UNK        -0.1800 
     87 C          -0.1020  -23.3174  -52.1638 C.2       15 UNK         0.5000 
     88 O          -0.8282  -22.6489  -52.9005 O.2       15 UNK        -0.5000 
     89 N           1.2251  -23.1499  -52.0939 N.am      16 UNK        -0.5000 
     90 CA          2.0643  -22.2342  -52.8733 C.3       16 UNK         0.1400 
     91 CB          3.5323  -22.4836  -52.4935 C.3       16 UNK        -0.1800 
     92 C           1.7180  -20.7377  -52.7303 C.2       16 UNK         0.5000 
     93 O           2.1746  -19.9358  -53.5458 O.2       16 UNK        -0.5000 
     94 N           0.9011  -20.3887  -51.7256 N.am      17 UNK        -0.5000 
     95 CA          0.2754  -19.0751  -51.5621 C.3       17 UNK         0.1400 
     96 CB         -0.4532  -19.0364  -50.2094 C.3       17 UNK        -0.1800 
     97 C          -0.6715  -18.7040  -52.7272 C.2       17 UNK         0.5000 
     98 O          -0.8182  -17.5170  -53.0161 O.2       17 UNK        -0.5000 
     99 N          -1.2322  -19.7230  -53.4035 N.am      18 UNK        -0.5000 
    100 CA        -1.9939  -19.6702  -54.6544 C.3       18 UNK         0.1400 
    101 CB        -1.0567  -19.3378  -55.8348 C.3       18 UNK        -0.1800 
    102 C         -3.2349  -18.7590  -54.5835 C.2       18 UNK         0.5000 
    103 O         -4.2926  -19.2228  -54.1535 O.2       18 UNK        -0.5000 
    104 N         -3.0979  -17.5050  -55.0435 N.am      19 UNK        -0.5000 
    105 CA        -4.0807  -16.4105  -54.9992 C.3       19 UNK         0.1400 
    106 CB        -4.3111  -15.9816  -53.5367 C.3       19 UNK        -0.1800 
    107 C         -5.4138  -16.7045  -55.7235 C.2       19 UNK         0.5000 
    108 O         -6.4212  -16.0586  -55.4316 O.2       19 UNK        -0.5000 
    109 N         -5.4026  -17.7011  -56.6225 N.am      20 UNK        -0.5000 
    110 CA        -6.5558  -18.3376  -57.2736 C.3       20 UNK         0.1400 
    111 CB        -7.3088  -17.3396  -58.1779 C.3       20 UNK        -0.1800 
    112 C         -7.4995  -19.0758  -56.2927 C.2       20 UNK         0.5000 
    113 O         -8.5994  -19.4645  -56.6889 O.2       20 UNK        -0.5000 
    114 N         -7.0552  -19.2792  -55.0446 N.am      21 UNK        -0.5000 
    115 CA        -7.7814  -19.9845  -53.9930 C.3       21 UNK         0.1400 
    116 CB        -7.4593  -19.3386  -52.6348 C.3       21 UNK        -0.1800 
    117 C         -7.4098  -21.4740  -53.9866 C.2       21 UNK         0.5000 
    118 O         -8.3013  -22.3199  -53.9031 O.2       21 UNK        -0.5000 
    119 N         -6.1056  -21.7613  -54.0939 N.am      22 UNK        -0.5000 
    120 CA        -5.5447  -23.1260  -54.0856 C.3       22 UNK         0.1400 
    121 C         -5.1933  -23.6619  -55.5040 C.2       22 UNK         0.5000 
    122 N         -5.4542  -22.9256  -56.5775 N.am      22 UNK        -0.7600 
    123 O         -4.6878  -24.7729  -55.6379 O.2       22 UNK        -0.5000 
    124 C124       -4.3389  -23.2583  -53.1184 C.3       23 UNK        -0.0398 
    125 S125       -4.7331  -22.7011  -51.4234 S.3       23 UNK        -0.2404 
    126 C126       -3.6361  -21.2561  -51.2982 C.3       23 UNK        -0.0205 
    127 H127       -1.1160  -10.1363  -49.3678 H         1 UNK         0.0600 
    128 H128       -0.5257  -10.9205  -50.8370 H         1 UNK         0.0600 
    129 H129       -2.1751  -11.2168  -50.2796 H         1 UNK         0.0600 
    130 H130       -2.3883  -13.2205  -49.3240 H         1 UNK         0.3000 
    131 H131       -0.2617  -14.9084  -48.6559 H         1 UNK         0.0600 
    132 H132       -3.1391  -15.2133  -47.6635 H         1 UNK         0.0800 
    133 H133       -1.9561  -16.4870  -47.8599 H         1 UNK         0.0800 
    134 H134       -5.0977  -16.3916  -50.6236 H         1 UNK         0.0800 
    135 H135       -5.0284  -16.0058  -48.9272 H         1 UNK         0.0800 
    136 H136       -4.0052  -18.5599  -51.4591 H         1 UNK         0.1150 
    137 H137       -4.0653  -21.8057  -48.6657 H         1 UNK         0.1150 
    138 H138       -4.7467  -17.7969  -47.3057 H         1 UNK         0.1150 
    139 H139       -5.4071  -19.9365  -45.9251 H         1 UNK         0.0800 
    140 H140       -4.6826  -21.4460  -46.4002 H         1 UNK         0.0800 
    141 H141       -0.9281  -19.4319  -46.3373 H         1 UNK         0.0800 
    142 H142       -1.8998  -20.0708  -47.5900 H         1 UNK         0.0800 
    143 H143       -0.0087  -21.5473  -46.9946 H         1 UNK         0.0600 
    144 H144       -0.5376  -21.0059  -44.3864 H         1 UNK         0.3000 
    145 H145        0.5395  -23.7438  -42.6056 H         1 UNK         0.0600 
    146 H146        2.6756  -22.5555  -42.1008 H         1 UNK         0.0600 
    147 H147        2.7737  -23.3804  -43.6494 H         1 UNK         0.0600 
    148 H148        2.5381  -21.6362  -43.5988 H         1 UNK         0.0600 
    149 H149        0.5358  -20.7740  -42.4865 H         1 UNK         0.3000 
    150 H150       -2.0443  -19.9820  -41.6064 H         1 UNK         0.0600 
    151 H151       -3.1617  -21.2837  -39.8521 H         1 UNK         0.0600 
    152 H152       -2.5556  -19.7887  -39.1589 H         1 UNK         0.0600 
    153 H153       -1.7078  -21.3072  -38.8655 H         1 UNK         0.0600 
    154 H154       -0.2785  -18.7346  -41.1780 H         1 UNK         0.3000 
    155 H155        2.1721  -18.4962  -38.7860 H         1 UNK         0.0600 
    156 H156        2.7810  -19.3241  -41.6798 H         1 UNK         0.0600 
    157 H157        3.4539  -20.0786  -40.2390 H         1 UNK         0.0600 
    158 H158        3.8575  -18.4119  -40.6238 H         1 UNK         0.0600 
    159 H159        1.7073  -17.1715  -41.3118 H         1 UNK         0.3000 
    160 H160       -0.8707  -14.9820  -40.1257 H         1 UNK         0.0600 
    161 H161        0.6342  -13.3767  -41.2457 H         1 UNK         0.0600 
    162 H162        1.9662  -14.5292  -41.1970 H         1 UNK         0.0600 
    163 H163        1.3149  -13.8684  -39.7050 H         1 UNK         0.0600 
    164 H164        0.3530  -15.6919  -42.6860 H         1 UNK         0.3000 
    165 H165       -1.8903  -18.1770  -43.5236 H         1 UNK         0.0600 
    166 H166       -2.7185  -16.8200  -45.4611 H         1 UNK         0.0600 
    167 H167       -3.6050  -16.5089  -43.9796 H         1 UNK         0.0600 
    168 H168       -2.4199  -15.3454  -44.5411 H         1 UNK         0.0600 
    169 H169       -0.0957  -16.3616  -44.9956 H         1 UNK         0.3000 
    170 H170        2.6414  -18.6786  -44.6988 H         1 UNK         0.0600 
    171 H171        1.3703  -19.3607  -46.6887 H         1 UNK         0.0600 
    172 H172        0.9355  -17.6874  -47.0424 H         1 UNK         0.0600 
    173 H173        2.6118  -18.2199  -47.1576 H         1 UNK         0.0600 
    174 H174        2.7442  -16.1918  -45.8914 H         1 UNK         0.3000 
    175 H175        4.0159  -14.4522  -43.0112 H         1 UNK         0.0600 
    176 H176        5.8615  -14.3076  -44.6388 H         1 UNK         0.0600 
    177 H177        5.6644  -15.9865  -44.1758 H         1 UNK         0.0600 
    178 H178        5.0569  -15.4298  -45.7310 H         1 UNK         0.0600 
    179 H179        2.2639  -14.0568  -45.2374 H         1 UNK         0.3000 
    180 H180        2.5615  -10.5518  -44.9765 H         1 UNK         0.0600 
    181 H181        3.0797  -12.1704  -47.5263 H         1 UNK         0.0600 
    182 H182        4.1130  -10.8918  -46.8988 H         1 UNK         0.0600 
    183 H183        2.4920  -10.5090  -47.4570 H         1 UNK         0.0600 
    184 H184        0.8053  -12.1855  -46.5181 H         1 UNK         0.3000 
    185 H185       -1.1727  -13.5021  -44.0797 H         1 UNK         0.0600 
    186 H186       -2.1076  -10.7567  -45.0683 H         1 UNK         0.0600 
    187 H187       -3.1523  -12.0565  -44.4917 H         1 UNK         0.0600 
    188 H188       -2.0381  -11.2710  -43.3869 H         1 UNK         0.0600 
    189 H189       -1.9390  -12.5783  -46.6912 H         1 UNK         0.3000 
    190 H190       -2.7079  -22.9704  -45.1866 H         1 UNK         0.3000 
    191 H191       -4.0266  -24.1477  -47.4367 H         1 UNK         0.0600 
    192 H192       -5.1829  -23.6639  -45.2942 H         1 UNK         0.0600 
    193 H193       -4.1615  -24.8270  -44.4489 H         1 UNK         0.0600 
    194 H194       -5.3023  -25.3745  -45.6715 H         1 UNK         0.0600 
    195 H195       -1.3336  -25.2161  -45.4346 H         1 UNK         0.3000 
    196 H196       -1.4028  -27.9937  -46.4517 H         1 UNK         0.0600 
    197 H197        0.5568  -28.2823  -44.9533 H         1 UNK         0.0600 
    198 H198       -0.8048  -27.6090  -44.0704 H         1 UNK         0.0600 
    199 H199        0.5365  -26.5705  -44.5495 H         1 UNK         0.0600 
    200 H200        0.5124  -24.9835  -46.6896 H         1 UNK         0.3000 
    201 H201        2.5637  -25.9988  -48.3663 H         1 UNK         0.0600 
    202 H202        1.5986  -23.1213  -47.9330 H         1 UNK         0.0600 
    203 H203        3.1372  -23.5862  -48.6486 H         1 UNK         0.0600 
    204 H204        2.8055  -23.9633  -46.9644 H         1 UNK         0.0600 
    205 H205       -0.4687  -24.2851  -49.1463 H         1 UNK         0.3000 
    206 H206       -1.6943  -23.9490  -50.9061 H         1 UNK         0.0600 
    207 H207       -1.5562  -26.3882  -51.3380 H         1 UNK         0.0600 
    208 H208       -1.6826  -25.4857  -52.8402 H         1 UNK         0.0600 
    209 H209       -0.1320  -26.1504  -52.3508 H         1 UNK         0.0600 
    210 H210        1.7220  -23.8114  -51.5069 H         1 UNK         0.3000 
    211 H211        1.9324  -22.4910  -53.9261 H         1 UNK         0.0600 
    212 H212        3.7148  -22.2704  -51.4394 H         1 UNK         0.0600 
    213 H213        4.2035  -21.8528  -53.0781 H         1 UNK         0.0600 
    214 H214        3.8180  -23.5190  -52.6805 H         1 UNK         0.0600 
    215 H215        0.5932  -21.1184  -51.1012 H         1 UNK         0.3000 
    216 H216        1.0705  -18.3270  -51.5409 H         1 UNK         0.0600 
    217 H217       -0.9560  -18.0809  -50.0620 H         1 UNK         0.0600 
    218 H218        0.2446  -19.1651  -49.3820 H         1 UNK         0.0600 
    219 H219       -1.2068  -19.8191  -50.1348 H         1 UNK         0.0600 
    220 H220       -1.0359  -20.6641  -53.0767 H         1 UNK         0.3000 
    221 H221       -2.3713  -20.6808  -54.8188 H         1 UNK         0.0600 
    222 H222       -0.5512  -18.3800  -55.7077 H         1 UNK         0.0600 
    223 H223       -0.2849  -20.1006  -55.9401 H         1 UNK         0.0600 
    224 H224       -1.6051  -19.3038  -56.7771 H         1 UNK         0.0600 
    225 H225       -2.1781  -17.2378  -55.3655 H         1 UNK         0.3000 
    226 H226       -3.6273  -15.5700  -55.5262 H         1 UNK         0.0600 
    227 H227       -3.3655  -15.7899  -53.0293 H         1 UNK         0.0600 
    228 H228       -4.9007  -15.0662  -53.4786 H         1 UNK         0.0600 
    229 H229       -4.8426  -16.7508  -52.9763 H         1 UNK         0.0600 
    230 H230       -4.5139  -18.1527  -56.7845 H         1 UNK         0.3000 
    231 H231       -6.1400  -19.1112  -57.9205 H         1 UNK         0.0600 
    232 H232       -6.6256  -16.8277  -58.8556 H         1 UNK         0.0600 
    233 H233       -7.8377  -16.5828  -57.5983 H         1 UNK         0.0600 
    234 H234       -8.0495  -17.8519  -58.7929 H         1 UNK         0.0600 
    235 H235       -6.1175  -18.9729  -54.8055 H         1 UNK         0.3000 
    236 H236       -8.8568  -19.8983  -54.1624 H         1 UNK         0.0600 
    237 H237       -8.0056  -19.8308  -51.8295 H         1 UNK         0.0600 
    238 H238       -6.3974  -19.4030  -52.3948 H         1 UNK         0.0600 
    239 H239       -7.7391  -18.2851  -52.6237 H         1 UNK         0.0600 
    240 H240       -5.4411  -20.9983  -54.1436 H         1 UNK         0.3000 
    241 H241       -6.3065  -23.8139  -53.7148 H         1 UNK         0.0600 
    242 H242       -5.2312  -23.2850  -57.4925 H         1 UNK         0.3800 
    243 H243       -5.9000  -22.0285  -56.4824 H         1 UNK         0.3800 
    244 H244       -4.0192  -24.2994  -53.0512 H         1 UNK         0.0800 
    245 H245       -3.4802  -22.7080  -53.5052 H         1 UNK         0.0800 
    246 H246       -3.6347  -20.7340  -52.2514 H         1 UNK         0.0800 
    247 H247       -2.6159  -21.5987  -51.1282 H         1 UNK         0.0800 
@<TRIPOS>BOND
     1    1    2 1    
     2    1  127 1    
     3    1  128 1    
     4    1  129 1    
     5    2    3 2    
     6    2    4 am   BACKBONE|DICT|INTERRES
     7    4    5 1    
     8    4  130 1    
     9    5    6 1    
    10    5   65 1    
    11    5  131 1    
    12    6    7 1    
    13    6  132 1    
    14    6  133 1    
    15    7    8 1    
    16    8    9 1    
    17    8  134 1    
    18    8  135 1    
    19    9   10 ar   
    20    9   14 ar   
    21   10   11 ar   
    22   10  136 1    
    23   11   12 ar   
    24   11  126 1    
    25   12   13 ar   
    26   12  137 1    
    27   13   14 ar   
    28   13   15 1    
    29   14  138 1    
    30   15   16 1    
    31   15  139 1    
    32   15  140 1    
    33   16   17 1    
    34   17   18 1    
    35   17  141 1    
    36   17  142 1    
    37   18   19 1    
    38   18   67 1    
    39   18  143 1    
    40   19   20 am   BACKBONE|DICT|INTERRES
    41   19  144 1    
    42   20   21 2    
    43   20   22 1    
    44   22   23 1    
    45   22   24 1    
    46   22  145 1    
    47   23  146 1    
    48   23  147 1    
    49   23  148 1    
    50   24   25 am   BACKBONE|DICT|INTERRES
    51   24  149 1    
    52   25   26 2    
    53   25   27 1    
    54   27   28 1    
    55   27   29 1    
    56   27  150 1    
    57   28  151 1    
    58   28  152 1    
    59   28  153 1    
    60   29   30 am   BACKBONE|DICT|INTERRES
    61   29  154 1    
    62   30   31 2    
    63   30   32 1    
    64   32   33 1    
    65   32   34 1    
    66   32  155 1    
    67   33  156 1    
    68   33  157 1    
    69   33  158 1    
    70   34   35 am   BACKBONE|DICT|INTERRES
    71   34  159 1    
    72   35   36 2    
    73   35   37 1    
    74   37   38 1    
    75   37   39 1    
    76   37  160 1    
    77   38  161 1    
    78   38  162 1    
    79   38  163 1    
    80   39   40 am   BACKBONE|DICT|INTERRES
    81   39  164 1    
    82   40   41 2    
    83   40   42 1    
    84   42   43 1    
    85   42   44 1    
    86   42  165 1    
    87   43  166 1    
    88   43  167 1    
    89   43  168 1    
    90   44   45 am   BACKBONE|DICT|INTERRES
    91   44  169 1    
    92   45   46 2    
    93   45   47 1    
    94   47   48 1    
    95   47   49 1    
    96   47  170 1    
    97   48  171 1    
    98   48  172 1    
    99   48  173 1    
   100   49   50 am   BACKBONE|DICT|INTERRES
   101   49  174 1    
   102   50   51 2    
   103   50   52 1    
   104   52   53 1    
   105   52   54 1    
   106   52  175 1    
   107   53  176 1    
   108   53  177 1    
   109   53  178 1    
   110   54   55 am   BACKBONE|DICT|INTERRES
   111   54  179 1    
   112   55   56 2    
   113   55   57 1    
   114   57   58 1    
   115   57   59 1    
   116   57  180 1    
   117   58  181 1    
   118   58  182 1    
   119   58  183 1    
   120   59   60 am   BACKBONE|DICT|INTERRES
   121   59  184 1    
   122   60   61 2    
   123   60   62 1    
   124   62   63 1    
   125   62   64 1    
   126   62  185 1    
   127   63  186 1    
   128   63  187 1    
   129   63  188 1    
   130   64   65 am   BACKBONE|DICT|INTERRES
   131   64  189 1    
   132   65   66 2    
   133   67   68 2    
   134   67   69 am   BACKBONE|DICT|INTERRES
   135   69   70 1    
   136   69  190 1    
   137   70   71 1    
   138   70   72 1    
   139   70  191 1    
   140   71  192 1    
   141   71  193 1    
   142   71  194 1    
   143   72   73 2    
   144   72   74 am   BACKBONE|DICT|INTERRES
   145   74   75 1    
   146   74  195 1    
   147   75   76 1    
   148   75   77 1    
   149   75  196 1    
   150   76  197 1    
   151   76  198 1    
   152   76  199 1    
   153   77   78 2    
   154   77   79 am   BACKBONE|DICT|INTERRES
   155   79   80 1    
   156   79  200 1    
   157   80   81 1    
   158   80   82 1    
   159   80  201 1    
   160   81  202 1    
   161   81  203 1    
   162   81  204 1    
   163   82   83 2    
   164   82   84 am   BACKBONE|DICT|INTERRES
   165   84   85 1    
   166   84  205 1    
   167   85   86 1    
   168   85   87 1    
   169   85  206 1    
   170   86  207 1    
   171   86  208 1    
   172   86  209 1    
   173   87   88 2    
   174   87   89 am   BACKBONE|DICT|INTERRES
   175   89   90 1    
   176   89  210 1    
   177   90   91 1    
   178   90   92 1    
   179   90  211 1    
   180   91  212 1    
   181   91  213 1    
   182   91  214 1    
   183   92   93 2    
   184   92   94 am   BACKBONE|DICT|INTERRES
   185   94   95 1    
   186   94  215 1    
   187   95   96 1    
   188   95   97 1    
   189   95  216 1    
   190   96  217 1    
   191   96  218 1    
   192   96  219 1    
   193   97   98 2    
   194   97   99 am   BACKBONE|DICT|INTERRES
   195   99  100 1    
   196   99  220 1    
   197  100  101 1    
   198  100  102 1    
   199  100  221 1    
   200  101  222 1    
   201  101  223 1    
   202  101  224 1    
   203  102  103 2    
   204  102  104 am   BACKBONE|DICT|INTERRES
   205  104  105 1    
   206  104  225 1    
   207  105  106 1    
   208  105  107 1    
   209  105  226 1    
   210  106  227 1    
   211  106  228 1    
   212  106  229 1    
   213  107  108 2    
   214  107  109 am   BACKBONE|DICT|INTERRES
   215  109  110 1    
   216  109  230 1    
   217  110  111 1    
   218  110  112 1    
   219  110  231 1    
   220  111  232 1    
   221  111  233 1    
   222  111  234 1    
   223  112  113 2    
   224  112  114 am   BACKBONE|DICT|INTERRES
   225  114  115 1    
   226  114  235 1    
   227  115  116 1    
   228  115  117 1    
   229  115  236 1    
   230  116  237 1    
   231  116  238 1    
   232  116  239 1    
   233  117  118 2    
   234  117  119 am   BACKBONE|DICT|INTERRES
   235  119  120 1    
   236  119  240 1    
   237  120  121 1    
   238  120  124 1    
   239  120  241 1    
   240  121  122 am   BACKBONE|DICT|INTERRES
   241  121  123 2    
   242  122  242 1    
   243  122  243 1    
   244  124  125 1    
   245  124  244 1    
   246  124  245 1    
   247  125  126 1    
   248  126  246 1    
   249  126  247 1    
@<TRIPOS>SUBSTRUCTURE
     1 UNK         1 GROUP             0       ****    0 ROOT    
