@<TRIPOS>MOLECULE
3R540
247   249    1
SMALL
USER_CHARGES


@<TRIPOS>ATOM
      1 CA          4.0393  -13.0813  -47.4935 C.3       0 UNK        -0.1800 
      2 C           2.5424  -12.9311  -47.7202 C.2       0 UNK         0.5000 
      3 O           1.9710  -11.9049  -47.3505 O.2       0 UNK        -0.5000 
      4 N           1.9053  -13.9558  -48.3033 N.am      1 UNK        -0.5000 
      5 CA          0.4807  -14.0506  -48.6648 C.3       1 UNK         0.1400 
      6 C6         -0.0078  -12.9528  -49.6534 C.3       23 UNK        -0.0398 
      7 S7          1.0411  -12.8128  -51.1451 S.3       23 UNK        -0.2404 
      8 C8         -0.0548  -13.4284  -52.4693 C.3       23 UNK        -0.0205 
      9 C9         -0.5107  -14.8721  -52.2806 C.ar      23 UNK        -0.0193 
     10 C10        -1.8389  -15.2177  -52.5491 C.ar      23 UNK        -0.1150 
     11 C11        -2.2811  -16.5331  -52.3815 C.ar      23 UNK        -0.0193 
     12 C12        -1.3865  -17.5068  -51.9312 C.ar      23 UNK        -0.1150 
     13 C13        -0.0592  -17.1734  -51.6464 C.ar      23 UNK        -0.0193 
     14 C14         0.3790  -15.8633  -51.8517 C.ar      23 UNK        -0.1150 
     15 C15         0.8970  -18.2166  -51.0879 C.3       23 UNK        -0.0205 
     16 S16         1.2004  -17.9812  -49.3034 S.3       23 UNK        -0.2404 
     17 C17        -0.4483  -18.3255  -48.5955 C.3       23 UNK        -0.0398 
     18 CA         -0.6160  -19.8122  -48.1956 C.3       11 UNK         0.1400 
     19 N           0.2307  -20.1568  -47.0528 N.am      11 UNK        -0.5000 
     20 C           0.9481  -21.2775  -46.9225 C.2       10 UNK         0.5000 
     21 O           0.9738  -22.1788  -47.7594 O.2       10 UNK        -0.5000 
     22 CA          1.7546  -21.4259  -45.6188 C.3       10 UNK         0.1400 
     23 CB          3.1269  -20.7488  -45.7528 C.3       10 UNK        -0.1800 
     24 N           1.0541  -20.8877  -44.4494 N.am      10 UNK        -0.5000 
     25 C          -0.0797  -21.3990  -43.9488 C.2       9 UNK         0.5000 
     26 O          -0.6319  -22.3987  -44.4073 O.2       9 UNK        -0.5000 
     27 CA         -0.7143  -20.6674  -42.7519 C.3       9 UNK         0.1400 
     28 CB         -0.0124  -21.0559  -41.4420 C.3       9 UNK        -0.1800 
     29 N          -0.6963  -19.2131  -42.9069 N.am      9 UNK        -0.5000 
     30 C          -1.4418  -18.5318  -43.7894 C.2       8 UNK         0.5000 
     31 O          -2.2825  -19.0525  -44.5203 O.2       8 UNK        -0.5000 
     32 CA         -1.1876  -17.0153  -43.8956 C.3       8 UNK         0.1400 
     33 CB         -1.9929  -16.2529  -42.8322 C.3       8 UNK        -0.1800 
     34 N           0.2282  -16.6649  -43.7787 N.am      8 UNK        -0.5000 
     35 C           1.1864  -17.0785  -44.6198 C.2       7 UNK         0.5000 
     36 O           0.9778  -17.7806  -45.6064 O.2       7 UNK        -0.5000 
     37 CA          2.6305  -16.6977  -44.2591 C.3       7 UNK         0.1400 
     38 CB          2.9354  -15.2479  -44.6635 C.3       7 UNK        -0.1800 
     39 N           2.9005  -16.8926  -42.8348 N.am      7 UNK        -0.5000 
     40 C           2.9659  -18.0929  -42.2400 C.2       6 UNK         0.5000 
     41 O           2.8424  -19.1605  -42.8391 O.2       6 UNK        -0.5000 
     42 CA          3.1574  -18.0989  -40.7126 C.3       6 UNK         0.1400 
     43 CB          4.6418  -17.9407  -40.3513 C.3       6 UNK        -0.1800 
     44 N           2.3812  -17.0515  -40.0484 N.am      6 UNK        -0.5000 
     45 C           1.0417  -17.0141  -40.0034 C.2       5 UNK         0.5000 
     46 O           0.3169  -17.8871  -40.4785 O.2       5 UNK        -0.5000 
     47 CA          0.4085  -15.7609  -39.3702 C.3       5 UNK         0.1400 
     48 CB          0.2794  -15.9293  -37.8492 C.3       5 UNK        -0.1800 
     49 N           1.1509  -14.5309  -39.6647 N.am      5 UNK        -0.5000 
     50 C           1.3392  -14.0393  -40.8956 C.2       4 UNK         0.5000 
     51 O           0.9098  -14.5764  -41.9214 O.2       4 UNK        -0.5000 
     52 CA          2.1897  -12.7687  -41.0059 C.3       4 UNK         0.1400 
     53 CB          3.6888  -13.1034  -40.9271 C.3       4 UNK        -0.1800 
     54 N           1.9009  -12.1480  -42.2903 N.am      4 UNK        -0.5000 
     55 C           1.8642  -10.8376  -42.5444 C.2       3 UNK         0.5000 
     56 O           2.1674   -9.9738  -41.7201 O.2       3 UNK        -0.5000 
     57 CA          1.4110  -10.4128  -43.9570 C.3       3 UNK         0.1400 
     58 CB          2.6200   -9.9487  -44.7844 C.3       3 UNK        -0.1800 
     59 N           0.6970  -11.4544  -44.7074 N.am      3 UNK        -0.5000 
     60 C          -0.5226  -11.9283  -44.3981 C.2       2 UNK         0.5000 
     61 O          -1.1563  -11.5477  -43.4132 O.2       2 UNK        -0.5000 
     62 CA         -1.1468  -12.9890  -45.3291 C.3       2 UNK         0.1400 
     63 CB         -2.6408  -12.7164  -45.5961 C.3       2 UNK        -0.1800 
     64 N          -0.4213  -13.0999  -46.5927 N.am      2 UNK        -0.5000 
     65 C          -0.4330  -14.1464  -47.4234 C.2       1 UNK         0.5000 
     66 O          -1.1073  -15.1578  -47.2354 O.2       1 UNK        -0.5000 
     67 C          -2.0985  -20.1878  -47.9597 C.2       11 UNK         0.5000 
     68 O          -2.9719  -19.6539  -48.6441 O.2       11 UNK        -0.5000 
     69 N          -2.3810  -21.0940  -47.0140 N.am      12 UNK        -0.5000 
     70 CA         -3.7328  -21.5656  -46.7174 C.3       12 UNK         0.1400 
     71 CB         -3.7198  -22.3158  -45.3767 C.3       12 UNK        -0.1800 
     72 C          -4.2908  -22.4838  -47.8200 C.2       12 UNK         0.5000 
     73 O          -3.5333  -23.1882  -48.4923 O.2       12 UNK        -0.5000 
     74 N          -5.6264  -22.5458  -47.9142 N.am      13 UNK        -0.5000 
     75 CA         -6.3544  -23.5144  -48.7445 C.3       13 UNK         0.1400 
     76 CB         -7.8483  -23.1576  -48.7431 C.3       13 UNK        -0.1800 
     77 C          -6.1475  -24.9768  -48.2960 C.2       13 UNK         0.5000 
     78 O          -6.2859  -25.8860  -49.1125 O.2       13 UNK        -0.5000 
     79 N          -5.7932  -25.1719  -47.0174 N.am      14 UNK        -0.5000 
     80 CA         -5.3880  -26.4552  -46.4452 C.3       14 UNK         0.1400 
     81 CB         -5.4278  -26.3507  -44.9128 C.3       14 UNK        -0.1800 
     82 C          -3.9916  -26.9094  -46.9167 C.2       14 UNK         0.5000 
     83 O          -3.7436  -28.1142  -46.9773 O.2       14 UNK        -0.5000 
     84 N          -3.1085  -25.9520  -47.2408 N.am      15 UNK        -0.5000 
     85 CA         -1.7856  -26.2142  -47.8097 C.3       15 UNK         0.1400 
     86 CB         -0.8462  -25.0323  -47.5191 C.3       15 UNK        -0.1800 
     87 C          -1.8881  -26.4924  -49.3192 C.2       15 UNK         0.5000 
     88 O          -1.2779  -27.4481  -49.8005 O.2       15 UNK        -0.5000 
     89 N          -2.7022  -25.6822  -50.0139 N.am      16 UNK        -0.5000 
     90 CA         -3.0601  -25.7923  -51.4306 C.3       16 UNK         0.1400 
     91 CB         -3.9556  -27.0299  -51.6644 C.3       16 UNK        -0.1800 
     92 C          -1.8330  -25.7212  -52.3668 C.2       16 UNK         0.5000 
     93 O          -0.9454  -24.8983  -52.1343 O.2       16 UNK        -0.5000 
     94 N          -1.8195  -26.5410  -53.4296 N.am      17 UNK        -0.5000 
     95 CA         -0.8259  -26.5693  -54.5083 C.3       17 UNK         0.1400 
     96 CB          0.5331  -27.0913  -53.9886 C.3       17 UNK        -0.1800 
     97 C          -0.7559  -25.1996  -55.2133 C.2       17 UNK         0.5000 
     98 O          -1.7462  -24.7899  -55.8194 O.2       17 UNK        -0.5000 
     99 N           0.3704  -24.4878  -55.0811 N.am      18 UNK        -0.5000 
    100 CA         0.5532  -23.1215  -55.5766 C.3       18 UNK         0.1400 
    101 CB         2.0331  -22.7343  -55.4351 C.3       18 UNK        -0.1800 
    102 C         -0.3447  -22.0826  -54.8715 C.2       18 UNK         0.5000 
    103 O         -0.6468  -21.0474  -55.4655 O.2       18 UNK        -0.5000 
    104 N         -0.7659  -22.3737  -53.6324 N.am      19 UNK        -0.5000 
    105 CA        -1.6222  -21.5098  -52.8217 C.3       19 UNK         0.1400 
    106 CB        -1.2580  -21.6865  -51.3426 C.3       19 UNK        -0.1800 
    107 C         -3.1239  -21.7739  -53.0261 C.2       19 UNK         0.5000 
    108 O         -3.9352  -21.0666  -52.4278 O.2       19 UNK        -0.5000 
    109 N         -3.4933  -22.7601  -53.8595 N.am      20 UNK        -0.5000 
    110 CA        -4.8784  -23.1878  -54.1095 C.3       20 UNK         0.1400 
    111 CB        -4.8676  -24.4303  -55.0116 C.3       20 UNK        -0.1800 
    112 C         -5.8067  -22.0997  -54.6938 C.2       20 UNK         0.5000 
    113 O         -7.0259  -22.2706  -54.6729 O.2       20 UNK        -0.5000 
    114 N         -5.2224  -20.9934  -55.1730 N.am      21 UNK        -0.5000 
    115 CA        -5.9138  -19.7736  -55.5849 C.3       21 UNK         0.1400 
    116 CB        -4.9004  -18.8413  -56.2672 C.3       21 UNK        -0.1800 
    117 C         -6.6293  -19.0372  -54.4311 C.2       21 UNK         0.5000 
    118 O         -7.5556  -18.2731  -54.7071 O.2       21 UNK        -0.5000 
    119 N         -6.2101  -19.2635  -53.1768 N.am      22 UNK        -0.5000 
    120 CA        -6.8351  -18.6676  -51.9838 C.3       22 UNK         0.1400 
    121 C         -6.7776  -19.5428  -50.6993 C.2       22 UNK         0.5000 
    122 N         -5.9493  -20.5751  -50.6172 N.am      22 UNK        -0.7600 
    123 O         -7.5275  -19.2948  -49.7589 O.2       22 UNK        -0.5000 
    124 C124       -6.3862  -17.1999  -51.7420 C.3       23 UNK        -0.0398 
    125 S125       -4.6787  -17.0041  -51.1199 S.3       23 UNK        -0.2404 
    126 C126       -3.7285  -16.8997  -52.6650 C.3       23 UNK        -0.0205 
    127 H127        4.2738  -12.9485  -46.4373 H         1 UNK         0.0600 
    128 H128        4.4005  -14.0627  -47.8019 H         1 UNK         0.0600 
    129 H129        4.5803  -12.3243  -48.0611 H         1 UNK         0.0600 
    130 H130        2.4454  -14.7719  -48.5534 H         1 UNK         0.3000 
    131 H131        0.3825  -15.0070  -49.1789 H         1 UNK         0.0600 
    132 H132       -1.0374  -13.1513  -49.9562 H         1 UNK         0.0800 
    133 H133       -0.0224  -11.9741  -49.1721 H         1 UNK         0.0800 
    134 H134       -0.9144  -12.7603  -52.5427 H         1 UNK         0.0800 
    135 H135        0.4736  -13.3555  -53.4206 H         1 UNK         0.0800 
    136 H136       -2.5337  -14.4609  -52.8856 H         1 UNK         0.1150 
    137 H137       -1.7384  -18.5156  -51.7690 H         1 UNK         0.1150 
    138 H138        1.4081  -15.6097  -51.6398 H         1 UNK         0.1150 
    139 H139        0.5167  -19.2232  -51.2623 H         1 UNK         0.0800 
    140 H140        1.8481  -18.1542  -51.6186 H         1 UNK         0.0800 
    141 H141       -1.2076  -18.0076  -49.3078 H         1 UNK         0.0800 
    142 H142       -0.5920  -17.6871  -47.7239 H         1 UNK         0.0800 
    143 H143       -0.2988  -20.4087  -49.0500 H         1 UNK         0.0600 
    144 H144        0.3281  -19.4346  -46.3437 H         1 UNK         0.3000 
    145 H145        1.9176  -22.4924  -45.4506 H         1 UNK         0.0600 
    146 H146        3.7376  -20.9162  -44.8656 H         1 UNK         0.0600 
    147 H147        3.6770  -21.1461  -46.6067 H         1 UNK         0.0600 
    148 H148        3.0314  -19.6720  -45.8958 H         1 UNK         0.0600 
    149 H149        1.4840  -20.0925  -43.9879 H         1 UNK         0.3000 
    150 H150       -1.7560  -20.9871  -42.6818 H         1 UNK         0.0600 
    151 H151       -0.0230  -22.1370  -41.2985 H         1 UNK         0.0600 
    152 H152       -0.5105  -20.6088  -40.5815 H         1 UNK         0.0600 
    153 H153        1.0287  -20.7324  -41.4300 H         1 UNK         0.0600 
    154 H154       -0.0842  -18.6967  -42.2840 H         1 UNK         0.3000 
    155 H155       -1.5266  -16.6893  -44.8812 H         1 UNK         0.0600 
    156 H156       -1.8410  -15.1766  -42.9100 H         1 UNK         0.0600 
    157 H157       -1.7126  -16.5556  -41.8234 H         1 UNK         0.0600 
    158 H158       -3.0612  -16.4405  -42.9457 H         1 UNK         0.0600 
    159 H159        0.4873  -16.0607  -43.0033 H         1 UNK         0.3000 
    160 H160        3.3000  -17.3509  -44.8229 H         1 UNK         0.0600 
    161 H161        2.2803  -14.5339  -44.1664 H         1 UNK         0.0600 
    162 H162        2.7980  -15.1220  -45.7365 H         1 UNK         0.0600 
    163 H163        3.9662  -14.9788  -44.4327 H         1 UNK         0.0600 
    164 H164        2.9556  -16.0639  -42.2632 H         1 UNK         0.3000 
    165 H165        2.8149  -19.0658  -40.3376 H         1 UNK         0.0600 
    166 H166        5.0373  -16.9779  -40.6773 H         1 UNK         0.0600 
    167 H167        4.7959  -18.0202  -39.2750 H         1 UNK         0.0600 
    168 H168        5.2427  -18.7195  -40.8229 H         1 UNK         0.0600 
    169 H169        2.8985  -16.2935  -39.6290 H         1 UNK         0.3000 
    170 H170       -0.5948  -15.6522  -39.7871 H         1 UNK         0.0600 
    171 H171       -0.2862  -16.8292  -37.6032 H         1 UNK         0.0600 
    172 H172        1.2545  -16.0124  -37.3677 H         1 UNK         0.0600 
    173 H173       -0.2458  -15.0852  -37.4020 H         1 UNK         0.0600 
    174 H174        1.5389  -14.0384  -38.8729 H         1 UNK         0.3000 
    175 H175        1.9133  -12.0953  -40.1919 H         1 UNK         0.0600 
    176 H176        4.2964  -12.2020  -41.0098 H         1 UNK         0.0600 
    177 H177        3.9390  -13.5755  -39.9764 H         1 UNK         0.0600 
    178 H178        3.9923  -13.7832  -41.7244 H         1 UNK         0.0600 
    179 H179        1.5599  -12.7901  -42.9928 H         1 UNK         0.3000 
    180 H180        0.7352   -9.5636  -43.8364 H         1 UNK         0.0600 
    181 H181        3.3216  -10.7648  -44.9619 H         1 UNK         0.0600 
    182 H182        3.1637   -9.1521  -44.2749 H         1 UNK         0.0600 
    183 H183        2.3084   -9.5581  -45.7534 H         1 UNK         0.0600 
    184 H184        1.1741  -11.7907  -45.5357 H         1 UNK         0.3000 
    185 H185       -1.0558  -13.9414  -44.8043 H         1 UNK         0.0600 
    186 H186       -3.0908  -13.5078  -46.1953 H         1 UNK         0.0600 
    187 H187       -3.2064  -12.6639  -44.6651 H         1 UNK         0.0600 
    188 H188       -2.7847  -11.7733  -46.1242 H         1 UNK         0.0600 
    189 H189        0.1999  -12.3325  -46.8313 H         1 UNK         0.3000 
    190 H190       -1.6251  -21.5059  -46.4850 H         1 UNK         0.3000 
    191 H191       -4.3857  -20.6953  -46.6216 H         1 UNK         0.0600 
    192 H192       -3.3603  -21.6739  -44.5727 H         1 UNK         0.0600 
    193 H193       -4.7202  -22.6472  -45.0967 H         1 UNK         0.0600 
    194 H194       -3.0783  -23.1974  -45.4138 H         1 UNK         0.0600 
    195 H195       -6.1889  -21.9595  -47.3129 H         1 UNK         0.3000 
    196 H196       -5.9815  -23.4340  -49.7680 H         1 UNK         0.0600 
    197 H197       -8.4134  -23.8424  -49.3768 H         1 UNK         0.0600 
    198 H198       -8.0180  -22.1512  -49.1258 H         1 UNK         0.0600 
    199 H199       -8.2742  -23.2116  -47.7405 H         1 UNK         0.0600 
    200 H200       -5.7431  -24.3700  -46.4084 H         1 UNK         0.3000 
    201 H201       -6.1082  -27.2150  -46.7561 H         1 UNK         0.0600 
    202 H202       -6.4270  -26.0938  -44.5604 H         1 UNK         0.0600 
    203 H203       -4.7350  -25.5943  -44.5418 H         1 UNK         0.0600 
    204 H204       -5.1556  -27.3002  -44.4499 H         1 UNK         0.0600 
    205 H205       -3.4038  -24.9860  -47.2259 H         1 UNK         0.3000 
    206 H206       -1.3627  -27.0991  -47.3290 H         1 UNK         0.0600 
    207 H207       -1.1668  -24.1176  -48.0172 H         1 UNK         0.0600 
    208 H208       -0.7861  -24.8251  -46.4504 H         1 UNK         0.0600 
    209 H209        0.1650  -25.2476  -47.8657 H         1 UNK         0.0600 
    210 H210       -3.0905  -24.8818  -49.5254 H         1 UNK         0.3000 
    211 H211       -3.6576  -24.9076  -51.6532 H         1 UNK         0.0600 
    212 H212       -3.4044  -27.9622  -51.5364 H         1 UNK         0.0600 
    213 H213       -4.3871  -27.0282  -52.6658 H         1 UNK         0.0600 
    214 H214       -4.7900  -27.0466  -50.9645 H         1 UNK         0.0600 
    215 H215       -2.6002  -27.1709  -53.5472 H         1 UNK         0.3000 
    216 H216       -1.1897  -27.2785  -55.2531 H         1 UNK         0.0600 
    217 H217        0.4257  -28.0902  -53.5655 H         1 UNK         0.0600 
    218 H218        0.9578  -26.4538  -53.2127 H         1 UNK         0.0600 
    219 H219        1.2614  -27.1640  -54.7973 H         1 UNK         0.0600 
    220 H220        1.1278  -24.8808  -54.5413 H         1 UNK         0.3000 
    221 H221        0.2961  -23.1100  -56.6379 H         1 UNK         0.0600 
    222 H222        2.3542  -22.7472  -54.3927 H         1 UNK         0.0600 
    223 H223        2.6750  -23.4157  -55.9939 H         1 UNK         0.0600 
    224 H224        2.2131  -21.7302  -55.8216 H         1 UNK         0.0600 
    225 H225       -0.5163  -23.2662  -53.2159 H         1 UNK         0.3000 
    226 H226       -1.4367  -20.4682  -53.0901 H         1 UNK         0.0600 
    227 H227       -0.1889  -21.5599  -51.1744 H         1 UNK         0.0600 
    228 H228       -1.7819  -20.9441  -50.7433 H         1 UNK         0.0600 
    229 H229       -1.5453  -22.6657  -50.9593 H         1 UNK         0.0600 
    230 H230       -2.7717  -23.2682  -54.3546 H         1 UNK         0.3000 
    231 H231       -5.3046  -23.4752  -53.1461 H         1 UNK         0.0600 
    232 H232       -5.8776  -24.8110  -55.1689 H         1 UNK         0.0600 
    233 H233       -4.2845  -25.2373  -54.5692 H         1 UNK         0.0600 
    234 H234       -4.4446  -24.2082  -55.9920 H         1 UNK         0.0600 
    235 H235       -4.2143  -20.9537  -55.1561 H         1 UNK         0.3000 
    236 H236       -6.6746  -20.0497  -56.3179 H         1 UNK         0.0600 
    237 H237       -5.3803  -17.9230  -56.6082 H         1 UNK         0.0600 
    238 H238       -4.0937  -18.5582  -55.5901 H         1 UNK         0.0600 
    239 H239       -4.4537  -19.3160  -57.1410 H         1 UNK         0.0600 
    240 H240       -5.4422  -19.9039  -53.0115 H         1 UNK         0.3000 
    241 H241       -7.9055  -18.6250  -52.1957 H         1 UNK         0.0600 
    242 H242       -5.2349  -20.7519  -51.3209 H         1 UNK         0.3800 
    243 H243       -5.9328  -21.1034  -49.7621 H         1 UNK         0.3800 
    244 H244       -6.5086  -16.6106  -52.6513 H         1 UNK         0.0800 
    245 H245       -7.0507  -16.7363  -51.0113 H         1 UNK         0.0800 
    246 H246       -3.7678  -17.8597  -53.1807 H         1 UNK         0.0800 
    247 H247       -4.1846  -16.1660  -53.3313 H         1 UNK         0.0800 
@<TRIPOS>BOND
     1    1    2 1    
     2    1  127 1    
     3    1  128 1    
     4    1  129 1    
     5    2    3 2    
     6    2    4 am   BACKBONE|DICT|INTERRES
     7    4    5 1    
     8    4  130 1    
     9    5    6 1    
    10    5   65 1    
    11    5  131 1    
    12    6    7 1    
    13    6  132 1    
    14    6  133 1    
    15    7    8 1    
    16    8    9 1    
    17    8  134 1    
    18    8  135 1    
    19    9   10 ar   
    20    9   14 ar   
    21   10   11 ar   
    22   10  136 1    
    23   11   12 ar   
    24   11  126 1    
    25   12   13 ar   
    26   12  137 1    
    27   13   14 ar   
    28   13   15 1    
    29   14  138 1    
    30   15   16 1    
    31   15  139 1    
    32   15  140 1    
    33   16   17 1    
    34   17   18 1    
    35   17  141 1    
    36   17  142 1    
    37   18   19 1    
    38   18   67 1    
    39   18  143 1    
    40   19   20 am   BACKBONE|DICT|INTERRES
    41   19  144 1    
    42   20   21 2    
    43   20   22 1    
    44   22   23 1    
    45   22   24 1    
    46   22  145 1    
    47   23  146 1    
    48   23  147 1    
    49   23  148 1    
    50   24   25 am   BACKBONE|DICT|INTERRES
    51   24  149 1    
    52   25   26 2    
    53   25   27 1    
    54   27   28 1    
    55   27   29 1    
    56   27  150 1    
    57   28  151 1    
    58   28  152 1    
    59   28  153 1    
    60   29   30 am   BACKBONE|DICT|INTERRES
    61   29  154 1    
    62   30   31 2    
    63   30   32 1    
    64   32   33 1    
    65   32   34 1    
    66   32  155 1    
    67   33  156 1    
    68   33  157 1    
    69   33  158 1    
    70   34   35 am   BACKBONE|DICT|INTERRES
    71   34  159 1    
    72   35   36 2    
    73   35   37 1    
    74   37   38 1    
    75   37   39 1    
    76   37  160 1    
    77   38  161 1    
    78   38  162 1    
    79   38  163 1    
    80   39   40 am   BACKBONE|DICT|INTERRES
    81   39  164 1    
    82   40   41 2    
    83   40   42 1    
    84   42   43 1    
    85   42   44 1    
    86   42  165 1    
    87   43  166 1    
    88   43  167 1    
    89   43  168 1    
    90   44   45 am   BACKBONE|DICT|INTERRES
    91   44  169 1    
    92   45   46 2    
    93   45   47 1    
    94   47   48 1    
    95   47   49 1    
    96   47  170 1    
    97   48  171 1    
    98   48  172 1    
    99   48  173 1    
   100   49   50 am   BACKBONE|DICT|INTERRES
   101   49  174 1    
   102   50   51 2    
   103   50   52 1    
   104   52   53 1    
   105   52   54 1    
   106   52  175 1    
   107   53  176 1    
   108   53  177 1    
   109   53  178 1    
   110   54   55 am   BACKBONE|DICT|INTERRES
   111   54  179 1    
   112   55   56 2    
   113   55   57 1    
   114   57   58 1    
   115   57   59 1    
   116   57  180 1    
   117   58  181 1    
   118   58  182 1    
   119   58  183 1    
   120   59   60 am   BACKBONE|DICT|INTERRES
   121   59  184 1    
   122   60   61 2    
   123   60   62 1    
   124   62   63 1    
   125   62   64 1    
   126   62  185 1    
   127   63  186 1    
   128   63  187 1    
   129   63  188 1    
   130   64   65 am   BACKBONE|DICT|INTERRES
   131   64  189 1    
   132   65   66 2    
   133   67   68 2    
   134   67   69 am   BACKBONE|DICT|INTERRES
   135   69   70 1    
   136   69  190 1    
   137   70   71 1    
   138   70   72 1    
   139   70  191 1    
   140   71  192 1    
   141   71  193 1    
   142   71  194 1    
   143   72   73 2    
   144   72   74 am   BACKBONE|DICT|INTERRES
   145   74   75 1    
   146   74  195 1    
   147   75   76 1    
   148   75   77 1    
   149   75  196 1    
   150   76  197 1    
   151   76  198 1    
   152   76  199 1    
   153   77   78 2    
   154   77   79 am   BACKBONE|DICT|INTERRES
   155   79   80 1    
   156   79  200 1    
   157   80   81 1    
   158   80   82 1    
   159   80  201 1    
   160   81  202 1    
   161   81  203 1    
   162   81  204 1    
   163   82   83 2    
   164   82   84 am   BACKBONE|DICT|INTERRES
   165   84   85 1    
   166   84  205 1    
   167   85   86 1    
   168   85   87 1    
   169   85  206 1    
   170   86  207 1    
   171   86  208 1    
   172   86  209 1    
   173   87   88 2    
   174   87   89 am   BACKBONE|DICT|INTERRES
   175   89   90 1    
   176   89  210 1    
   177   90   91 1    
   178   90   92 1    
   179   90  211 1    
   180   91  212 1    
   181   91  213 1    
   182   91  214 1    
   183   92   93 2    
   184   92   94 am   BACKBONE|DICT|INTERRES
   185   94   95 1    
   186   94  215 1    
   187   95   96 1    
   188   95   97 1    
   189   95  216 1    
   190   96  217 1    
   191   96  218 1    
   192   96  219 1    
   193   97   98 2    
   194   97   99 am   BACKBONE|DICT|INTERRES
   195   99  100 1    
   196   99  220 1    
   197  100  101 1    
   198  100  102 1    
   199  100  221 1    
   200  101  222 1    
   201  101  223 1    
   202  101  224 1    
   203  102  103 2    
   204  102  104 am   BACKBONE|DICT|INTERRES
   205  104  105 1    
   206  104  225 1    
   207  105  106 1    
   208  105  107 1    
   209  105  226 1    
   210  106  227 1    
   211  106  228 1    
   212  106  229 1    
   213  107  108 2    
   214  107  109 am   BACKBONE|DICT|INTERRES
   215  109  110 1    
   216  109  230 1    
   217  110  111 1    
   218  110  112 1    
   219  110  231 1    
   220  111  232 1    
   221  111  233 1    
   222  111  234 1    
   223  112  113 2    
   224  112  114 am   BACKBONE|DICT|INTERRES
   225  114  115 1    
   226  114  235 1    
   227  115  116 1    
   228  115  117 1    
   229  115  236 1    
   230  116  237 1    
   231  116  238 1    
   232  116  239 1    
   233  117  118 2    
   234  117  119 am   BACKBONE|DICT|INTERRES
   235  119  120 1    
   236  119  240 1    
   237  120  121 1    
   238  120  124 1    
   239  120  241 1    
   240  121  122 am   BACKBONE|DICT|INTERRES
   241  121  123 2    
   242  122  242 1    
   243  122  243 1    
   244  124  125 1    
   245  124  244 1    
   246  124  245 1    
   247  125  126 1    
   248  126  246 1    
   249  126  247 1    
@<TRIPOS>SUBSTRUCTURE
     1 UNK         1 GROUP             0       ****    0 ROOT    
