@<TRIPOS>MOLECULE
3R540
247   249    1
SMALL
USER_CHARGES


@<TRIPOS>ATOM
      1 CA          5.1944  -16.1034  -44.7251 C.3       0 UNK        -0.1800 
      2 C           5.2371  -15.9700  -46.2471 C.2       0 UNK         0.5000 
      3 O           6.2445  -16.3227  -46.8562 O.2       0 UNK        -0.5000 
      4 N           4.1747  -15.4869  -46.9062 N.am      1 UNK        -0.5000 
      5 CA          2.9388  -14.9676  -46.3104 C.3       1 UNK         0.1400 
      6 C6          1.7291  -15.0632  -47.2746 C.3       23 UNK        -0.0398 
      7 S7          2.0074  -14.2807  -48.9022 S.3       23 UNK        -0.2404 
      8 C8          0.2990  -13.9380  -49.4458 C.3       23 UNK        -0.0205 
      9 C9         -0.5932  -15.1745  -49.5433 C.ar      23 UNK        -0.0193 
     10 C10        -1.9351  -15.0874  -49.1572 C.ar      23 UNK        -0.1150 
     11 C11        -2.7846  -16.1928  -49.2664 C.ar      23 UNK        -0.0193 
     12 C12        -2.2759  -17.3984  -49.7565 C.ar      23 UNK        -0.1150 
     13 C13        -0.9372  -17.5061  -50.1410 C.ar      23 UNK        -0.0193 
     14 C14        -0.1053  -16.3882  -50.0432 C.ar      23 UNK        -0.1150 
     15 C15        -0.3908  -18.8246  -50.6704 C.3       23 UNK        -0.0205 
     16 S16         0.3069  -19.8543  -49.3388 S.3       23 UNK        -0.2404 
     17 C17        -1.1916  -20.2895  -48.3983 C.3       23 UNK        -0.0398 
     18 CA         -1.1907  -21.7509  -47.9059 C.3       11 UNK         0.1400 
     19 N          -0.1230  -22.0012  -46.9403 N.am      11 UNK        -0.5000 
     20 C           0.1876  -23.1736  -46.3759 C.2       10 UNK         0.5000 
     21 O          -0.3960  -24.2265  -46.6391 O.2       10 UNK        -0.5000 
     22 CA          1.2762  -23.1546  -45.2828 C.3       10 UNK         0.1400 
     23 CB          2.2961  -24.2972  -45.4490 C.3       10 UNK        -0.1800 
     24 N           1.9272  -21.8492  -45.1139 N.am      10 UNK        -0.5000 
     25 C           2.7896  -21.2315  -45.9356 C.2       9 UNK         0.5000 
     26 O           3.2433  -21.7335  -46.9632 O.2       9 UNK        -0.5000 
     27 CA          3.1707  -19.7803  -45.5769 C.3       9 UNK         0.1400 
     28 CB          2.4736  -18.8105  -46.5388 C.3       9 UNK        -0.1800 
     29 N           2.8155  -19.3991  -44.2080 N.am      9 UNK        -0.5000 
     30 C           3.4545  -19.8152  -43.1065 C.2       8 UNK         0.5000 
     31 O           4.4614  -20.5231  -43.1225 O.2       8 UNK        -0.5000 
     32 CA          2.8360  -19.3962  -41.7616 C.3       8 UNK         0.1400 
     33 CB          3.3680  -18.0220  -41.3258 C.3       8 UNK        -0.1800 
     34 N           1.3716  -19.3617  -41.8130 N.am      8 UNK        -0.5000 
     35 C           0.5854  -20.4478  -41.8580 C.2       7 UNK         0.5000 
     36 O           1.0116  -21.6019  -41.8620 O.2       7 UNK        -0.5000 
     37 CA         -0.9316  -20.2032  -41.9596 C.3       7 UNK         0.1400 
     38 CB         -1.5371  -19.9366  -40.5743 C.3       7 UNK        -0.1800 
     39 N          -1.2542  -19.0924  -42.8553 N.am      7 UNK        -0.5000 
     40 C          -1.1127  -19.1366  -44.1863 C.2       6 UNK         0.5000 
     41 O          -0.7920  -20.1552  -44.7975 O.2       6 UNK        -0.5000 
     42 CA         -1.3529  -17.8332  -44.9700 C.3       6 UNK         0.1400 
     43 CB         -2.7809  -17.7948  -45.5276 C.3       6 UNK        -0.1800 
     44 N          -1.1177  -16.6171  -44.1909 N.am      6 UNK        -0.5000 
     45 C           0.0505  -16.2517  -43.6516 C.2       5 UNK         0.5000 
     46 O           1.0773  -16.9294  -43.7372 O.2       5 UNK        -0.5000 
     47 CA          0.0534  -14.8956  -42.9196 C.3       5 UNK         0.1400 
     48 CB          1.3182  -14.6906  -42.0667 C.3       5 UNK        -0.1800 
     49 N          -0.0753  -13.7968  -43.8779 N.am      5 UNK        -0.5000 
     50 C          -1.2148  -13.4136  -44.4701 C.2       4 UNK         0.5000 
     51 O          -2.3071  -13.9202  -44.2038 O.2       4 UNK        -0.5000 
     52 CA         -1.1160  -12.3284  -45.5672 C.3       4 UNK         0.1400 
     53 CB         -2.4668  -11.6387  -45.8480 C.3       4 UNK        -0.1800 
     54 N          -0.0641  -11.3270  -45.3541 N.am      4 UNK        -0.5000 
     55 C           0.0685  -10.4785  -44.3246 C.2       3 UNK         0.5000 
     56 O          -0.6837  -10.4685  -43.3486 O.2       3 UNK        -0.5000 
     57 CA          1.2398   -9.4695  -44.4120 C.3       3 UNK         0.1400 
     58 CB          1.4278   -8.6645  -43.1131 C.3       3 UNK        -0.1800 
     59 N           2.5120  -10.1136  -44.7468 N.am      3 UNK        -0.5000 
     60 C           2.9048  -10.4989  -45.9678 C.2       2 UNK         0.5000 
     61 O           2.2388  -10.3031  -46.9857 O.2       2 UNK        -0.5000 
     62 CA          4.2165  -11.3106  -46.0694 C.3       2 UNK         0.1400 
     63 CB          5.1082  -11.2263  -44.8100 C.3       2 UNK        -0.1800 
     64 N           3.9504  -12.7152  -46.4050 N.am      2 UNK        -0.5000 
     65 C           3.1155  -13.5420  -45.7560 C.2       1 UNK         0.5000 
     66 O           2.5002  -13.2268  -44.7406 O.2       1 UNK        -0.5000 
     67 C          -2.5741  -22.1290  -47.3469 C.2       11 UNK         0.5000 
     68 O          -3.3739  -22.7199  -48.0720 O.2       11 UNK        -0.5000 
     69 N          -2.8091  -21.8097  -46.0685 N.am      12 UNK        -0.5000 
     70 CA         -4.0125  -22.1995  -45.3397 C.3       12 UNK         0.1400 
     71 CB         -4.3665  -21.1119  -44.3132 C.3       12 UNK        -0.1800 
     72 C          -3.8320  -23.5597  -44.6465 C.2       12 UNK         0.5000 
     73 O          -4.7298  -24.3981  -44.7183 O.2       12 UNK        -0.5000 
     74 N          -2.6826  -23.7522  -43.9808 N.am      13 UNK        -0.5000 
     75 CA         -2.4320  -24.8874  -43.0862 C.3       13 UNK         0.1400 
     76 CB         -1.1932  -24.6038  -42.2229 C.3       13 UNK        -0.1800 
     77 C          -2.2952  -26.2426  -43.8042 C.2       13 UNK         0.5000 
     78 O          -2.7723  -27.2489  -43.2785 O.2       13 UNK        -0.5000 
     79 N          -1.6633  -26.2461  -44.9848 N.am      14 UNK        -0.5000 
     80 CA         -1.4816  -27.4296  -45.8312 C.3       14 UNK         0.1400 
     81 CB          0.0114  -27.5694  -46.1767 C.3       14 UNK        -0.1800 
     82 C          -2.3401  -27.3534  -47.1086 C.2       14 UNK         0.5000 
     83 O          -2.2015  -28.2148  -47.9777 O.2       14 UNK        -0.5000 
     84 N          -3.1931  -26.3210  -47.2104 N.am      15 UNK        -0.5000 
     85 CA         -4.0583  -25.9829  -48.3471 C.3       15 UNK         0.1400 
     86 CB         -5.1304  -27.0698  -48.5686 C.3       15 UNK        -0.1800 
     87 C          -3.2774  -25.6439  -49.6371 C.2       15 UNK         0.5000 
     88 O          -3.8230  -25.7654  -50.7364 O.2       15 UNK        -0.5000 
     89 N          -2.0210  -25.1936  -49.4885 N.am      16 UNK        -0.5000 
     90 CA         -1.1003  -24.8772  -50.5843 C.3       16 UNK         0.1400 
     91 CB          0.3339  -24.7773  -50.0366 C.3       16 UNK        -0.1800 
     92 C          -1.4898  -23.6382  -51.4218 C.2       16 UNK         0.5000 
     93 O          -0.8453  -23.3827  -52.4392 O.2       16 UNK        -0.5000 
     94 N          -2.5492  -22.9145  -51.0206 N.am      17 UNK        -0.5000 
     95 CA         -3.2169  -21.8913  -51.8309 C.3       17 UNK         0.1400 
     96 CB         -4.3144  -21.2066  -51.0008 C.3       17 UNK        -0.1800 
     97 C          -3.8221  -22.4612  -53.1292 C.2       17 UNK         0.5000 
     98 O          -3.8558  -21.7498  -54.1334 O.2       17 UNK        -0.5000 
     99 N          -4.2583  -23.7316  -53.0832 N.am      18 UNK        -0.5000 
    100 CA        -4.7087  -24.5638  -54.2022 C.3       18 UNK         0.1400 
    101 CB        -3.4705  -25.1104  -54.9481 C.3       18 UNK        -0.1800 
    102 C         -5.7384  -23.8631  -55.1194 C.2       18 UNK         0.5000 
    103 O         -6.7026  -23.2815  -54.6177 O.2       18 UNK        -0.5000 
    104 N         -5.5149  -23.9218  -56.4385 N.am      19 UNK        -0.5000 
    105 CA        -6.3342  -23.2694  -57.4599 C.3       19 UNK         0.1400 
    106 CB        -6.1162  -23.9917  -58.7990 C.3       19 UNK        -0.1800 
    107 C         -6.0419  -21.7624  -57.6079 C.2       19 UNK         0.5000 
    108 O         -6.8590  -21.0544  -58.1981 O.2       19 UNK        -0.5000 
    109 N         -4.8943  -21.2929  -57.0927 N.am      20 UNK        -0.5000 
    110 CA        -4.5006  -19.8811  -57.1147 C.3       20 UNK         0.1400 
    111 CB        -2.9988  -19.7499  -56.8179 C.3       20 UNK        -0.1800 
    112 C         -5.3336  -19.0288  -56.1406 C.2       20 UNK         0.5000 
    113 O         -5.6203  -17.8712  -56.4483 O.2       20 UNK        -0.5000 
    114 N         -5.7208  -19.6275  -55.0029 N.am      21 UNK        -0.5000 
    115 CA        -6.6797  -19.1263  -54.0110 C.3       21 UNK         0.1400 
    116 CB        -8.1114  -19.2419  -54.5723 C.3       21 UNK        -0.1800 
    117 C         -6.3496  -17.7094  -53.4934 C.2       21 UNK         0.5000 
    118 O         -7.2256  -16.8436  -53.4496 O.2       21 UNK        -0.5000 
    119 N         -5.0730  -17.5049  -53.1435 N.am      22 UNK        -0.5000 
    120 CA        -4.4749  -16.2313  -52.6956 C.3       22 UNK         0.1400 
    121 C         -4.2476  -15.1851  -53.8305 C.2       22 UNK         0.5000 
    122 N         -4.5043  -15.4898  -55.0974 N.am      22 UNK        -0.7600 
    123 O         -3.7956  -14.0751  -53.5632 O.2       22 UNK        -0.5000 
    124 C124       -5.1802  -15.5901  -51.4624 C.3       23 UNK        -0.0398 
    125 S125       -5.4143  -16.7441  -50.0661 S.3       23 UNK        -0.2404 
    126 C126       -4.2433  -16.0858  -48.8340 C.3       23 UNK        -0.0205 
    127 H127        4.3963  -16.7786  -44.4163 H         1 UNK         0.0600 
    128 H128        6.1335  -16.5118  -44.3513 H         1 UNK         0.0600 
    129 H129        5.0420  -15.1355  -44.2483 H         1 UNK         0.0600 
    130 H130        4.2156  -15.4287  -47.9141 H         1 UNK         0.3000 
    131 H131        2.6865  -15.5899  -45.4511 H         1 UNK         0.0600 
    132 H132        0.8371  -14.6389  -46.8118 H         1 UNK         0.0800 
    133 H133        1.4881  -16.1113  -47.4540 H         1 UNK         0.0800 
    134 H134        0.3376  -13.4660  -50.4281 H         1 UNK         0.0800 
    135 H135       -0.1372  -13.2011  -48.7707 H         1 UNK         0.0800 
    136 H136       -2.3226  -14.1524  -48.7772 H         1 UNK         0.1150 
    137 H137       -2.9335  -18.2502  -49.8458 H         1 UNK         0.1150 
    138 H138        0.9266  -16.4683  -50.3540 H         1 UNK         0.1150 
    139 H139       -1.1703  -19.3764  -51.1959 H         1 UNK         0.0800 
    140 H140        0.3895  -18.6302  -51.4075 H         1 UNK         0.0800 
    141 H141       -1.2876  -19.5931  -47.5654 H         1 UNK         0.0800 
    142 H142       -2.0549  -20.1259  -49.0384 H         1 UNK         0.0800 
    143 H143       -1.0101  -22.3930  -48.7645 H         1 UNK         0.0600 
    144 H144        0.3684  -21.1849  -46.6075 H         1 UNK         0.3000 
    145 H145        0.7506  -23.3230  -44.3448 H         1 UNK         0.0600 
    146 H146        3.0699  -24.2509  -44.6827 H         1 UNK         0.0600 
    147 H147        1.8089  -25.2679  -45.3573 H         1 UNK         0.0600 
    148 H148        2.7831  -24.2710  -46.4240 H         1 UNK         0.0600 
    149 H149        1.6209  -21.3279  -44.3037 H         1 UNK         0.3000 
    150 H150        4.2507  -19.6756  -45.6993 H         1 UNK         0.0600 
    151 H151        2.7821  -18.9869  -47.5700 H         1 UNK         0.0600 
    152 H152        2.7257  -17.7829  -46.2961 H         1 UNK         0.0600 
    153 H153        1.3889  -18.9079  -46.4963 H         1 UNK         0.0600 
    154 H154        2.0365  -18.7594  -44.0953 H         1 UNK         0.3000 
    155 H155        3.1358  -20.1309  -41.0111 H         1 UNK         0.0600 
    156 H156        2.9529  -17.7238  -40.3631 H         1 UNK         0.0600 
    157 H157        3.1275  -17.2445  -42.0511 H         1 UNK         0.0600 
    158 H158        4.4533  -18.0420  -41.2196 H         1 UNK         0.0600 
    159 H159        0.9471  -18.4485  -41.8839 H         1 UNK         0.3000 
    160 H160       -1.3880  -21.1118  -42.3576 H         1 UNK         0.0600 
    161 H161       -1.1372  -19.0264  -40.1257 H         1 UNK         0.0600 
    162 H162       -1.3254  -20.7604  -39.8913 H         1 UNK         0.0600 
    163 H163       -2.6210  -19.8346  -40.6322 H         1 UNK         0.0600 
    164 H164       -1.5472  -18.2257  -42.4294 H         1 UNK         0.3000 
    165 H165       -0.6577  -17.8242  -45.8114 H         1 UNK         0.0600 
    166 H166       -3.5244  -17.7854  -44.7298 H         1 UNK         0.0600 
    167 H167       -2.9307  -16.9021  -46.1334 H         1 UNK         0.0600 
    168 H168       -2.9872  -18.6581  -46.1608 H         1 UNK         0.0600 
    169 H169       -1.8903  -15.9635  -44.1184 H         1 UNK         0.3000 
    170 H170       -0.8039  -14.8776  -42.2436 H         1 UNK         0.0600 
    171 H171        1.3134  -13.7140  -41.5825 H         1 UNK         0.0600 
    172 H172        1.3804  -15.4434  -41.2802 H         1 UNK         0.0600 
    173 H173        2.2304  -14.7653  -42.6590 H         1 UNK         0.0600 
    174 H174        0.8014  -13.3686  -44.1701 H         1 UNK         0.3000 
    175 H175       -0.8360  -12.8615  -46.4754 H         1 UNK         0.0600 
    176 H176       -2.3771  -10.9081  -46.6519 H         1 UNK         0.0600 
    177 H177       -3.2224  -12.3629  -46.1553 H         1 UNK         0.0600 
    178 H178       -2.8473  -11.1226  -44.9660 H         1 UNK         0.0600 
    179 H179        0.6232  -11.2425  -46.0950 H         1 UNK         0.3000 
    180 H180        0.9877   -8.7612  -45.2039 H         1 UNK         0.0600 
    181 H181        2.2310   -7.9343  -43.2146 H         1 UNK         0.0600 
    182 H182        0.5222   -8.1127  -42.8579 H         1 UNK         0.0600 
    183 H183        1.6681   -9.3129  -42.2696 H         1 UNK         0.0600 
    184 H184        3.0870  -10.3868  -43.9632 H         1 UNK         0.3000 
    185 H185        4.7771  -10.8859  -46.9034 H         1 UNK         0.0600 
    186 H186        6.0588  -11.7332  -44.9760 H         1 UNK         0.0600 
    187 H187        5.3386  -10.1900  -44.5591 H         1 UNK         0.0600 
    188 H188        4.6422  -11.6866  -43.9381 H         1 UNK         0.0600 
    189 H189        4.3947  -13.0575  -47.2450 H         1 UNK         0.3000 
    190 H190       -2.0872  -21.3106  -45.5562 H         1 UNK         0.3000 
    191 H191       -4.8522  -22.2852  -46.0333 H         1 UNK         0.0600 
    192 H192       -5.2639  -21.3810  -43.7547 H         1 UNK         0.0600 
    193 H193       -4.5666  -20.1600  -44.8042 H         1 UNK         0.0600 
    194 H194       -3.5664  -20.9555  -43.5899 H         1 UNK         0.0600 
    195 H195       -1.9908  -23.0200  -43.9893 H         1 UNK         0.3000 
    196 H196       -3.2891  -24.9638  -42.4132 H         1 UNK         0.0600 
    197 H197       -1.0721  -25.3735  -41.4596 H         1 UNK         0.0600 
    198 H198       -1.2750  -23.6477  -41.7056 H         1 UNK         0.0600 
    199 H199       -0.2786  -24.5933  -42.8134 H         1 UNK         0.0600 
    200 H200       -1.2947  -25.3795  -45.3657 H         1 UNK         0.3000 
    201 H201       -1.7870  -28.3334  -45.3006 H         1 UNK         0.0600 
    202 H202        0.6248  -27.5888  -45.2759 H         1 UNK         0.0600 
    203 H203        0.3609  -26.7503  -46.8053 H         1 UNK         0.0600 
    204 H204        0.2025  -28.4973  -46.7170 H         1 UNK         0.0600 
    205 H205       -3.2430  -25.6871  -46.4254 H         1 UNK         0.3000 
    206 H206       -4.5823  -25.0698  -48.0632 H         1 UNK         0.0600 
    207 H207       -5.6657  -27.2894  -47.6448 H         1 UNK         0.0600 
    208 H208       -5.8707  -26.7451  -49.3008 H         1 UNK         0.0600 
    209 H209       -4.6969  -28.0003  -48.9358 H         1 UNK         0.0600 
    210 H210       -1.6570  -25.0932  -48.5500 H         1 UNK         0.3000 
    211 H211       -1.1232  -25.7242  -51.2731 H         1 UNK         0.0600 
    212 H212        0.4615  -23.9425  -49.3505 H         1 UNK         0.0600 
    213 H213        1.0515  -24.6413  -50.8466 H         1 UNK         0.0600 
    214 H214        0.6161  -25.6872  -49.5065 H         1 UNK         0.0600 
    215 H215       -3.0028  -23.1688  -50.1511 H         1 UNK         0.3000 
    216 H216       -2.4728  -21.1443  -52.1117 H         1 UNK         0.0600 
    217 H217       -4.7908  -20.4065  -51.5680 H         1 UNK         0.0600 
    218 H218       -3.9173  -20.7600  -50.0921 H         1 UNK         0.0600 
    219 H219       -5.0936  -21.9113  -50.7074 H         1 UNK         0.0600 
    220 H220       -4.1940  -24.2174  -52.1958 H         1 UNK         0.3000 
    221 H221       -5.2300  -25.4135  -53.7590 H         1 UNK         0.0600 
    222 H222       -2.9026  -24.3142  -55.4316 H         1 UNK         0.0600 
    223 H223       -2.7962  -25.6172  -54.2571 H         1 UNK         0.0600 
    224 H224       -3.7487  -25.8414  -55.7082 H         1 UNK         0.0600 
    225 H225       -4.7003  -24.4203  -56.7666 H         1 UNK         0.3000 
    226 H226       -7.3862  -23.3731  -57.1855 H         1 UNK         0.0600 
    227 H227       -6.7377  -23.5578  -59.5836 H         1 UNK         0.0600 
    228 H228       -5.0785  -23.9253  -59.1283 H         1 UNK         0.0600 
    229 H229       -6.3793  -25.0471  -58.7256 H         1 UNK         0.0600 
    230 H230       -4.2965  -21.9233  -56.5769 H         1 UNK         0.3000 
    231 H231       -4.6755  -19.4953  -58.1214 H         1 UNK         0.0600 
    232 H232       -2.4044  -20.3152  -57.5357 H         1 UNK         0.0600 
    233 H233       -2.7459  -20.1055  -55.8194 H         1 UNK         0.0600 
    234 H234       -2.6810  -18.7084  -56.8821 H         1 UNK         0.0600 
    235 H235       -5.3441  -20.5527  -54.8211 H         1 UNK         0.3000 
    236 H236       -6.6107  -19.7919  -53.1497 H         1 UNK         0.0600 
    237 H237       -8.2610  -18.5878  -55.4321 H         1 UNK         0.0600 
    238 H238       -8.3273  -20.2630  -54.8878 H         1 UNK         0.0600 
    239 H239       -8.8523  -18.9720  -53.8190 H         1 UNK         0.0600 
    240 H240       -4.4258  -18.2713  -53.2537 H         1 UNK         0.3000 
    241 H241       -3.4679  -16.4993  -52.3744 H         1 UNK         0.0600 
    242 H242       -4.3365  -14.7970  -55.8094 H         1 UNK         0.3800 
    243 H243       -4.9061  -16.3832  -55.3622 H         1 UNK         0.3800 
    244 H244       -6.1583  -15.1971  -51.7416 H         1 UNK         0.0800 
    245 H245       -4.6108  -14.7283  -51.1107 H         1 UNK         0.0800 
    246 H246       -4.3775  -16.6451  -47.9088 H         1 UNK         0.0800 
    247 H247       -4.5097  -15.0517  -48.6095 H         1 UNK         0.0800 
@<TRIPOS>BOND
     1    1    2 1    
     2    1  127 1    
     3    1  128 1    
     4    1  129 1    
     5    2    3 2    
     6    2    4 am   BACKBONE|DICT|INTERRES
     7    4    5 1    
     8    4  130 1    
     9    5    6 1    
    10    5   65 1    
    11    5  131 1    
    12    6    7 1    
    13    6  132 1    
    14    6  133 1    
    15    7    8 1    
    16    8    9 1    
    17    8  134 1    
    18    8  135 1    
    19    9   10 ar   
    20    9   14 ar   
    21   10   11 ar   
    22   10  136 1    
    23   11   12 ar   
    24   11  126 1    
    25   12   13 ar   
    26   12  137 1    
    27   13   14 ar   
    28   13   15 1    
    29   14  138 1    
    30   15   16 1    
    31   15  139 1    
    32   15  140 1    
    33   16   17 1    
    34   17   18 1    
    35   17  141 1    
    36   17  142 1    
    37   18   19 1    
    38   18   67 1    
    39   18  143 1    
    40   19   20 am   BACKBONE|DICT|INTERRES
    41   19  144 1    
    42   20   21 2    
    43   20   22 1    
    44   22   23 1    
    45   22   24 1    
    46   22  145 1    
    47   23  146 1    
    48   23  147 1    
    49   23  148 1    
    50   24   25 am   BACKBONE|DICT|INTERRES
    51   24  149 1    
    52   25   26 2    
    53   25   27 1    
    54   27   28 1    
    55   27   29 1    
    56   27  150 1    
    57   28  151 1    
    58   28  152 1    
    59   28  153 1    
    60   29   30 am   BACKBONE|DICT|INTERRES
    61   29  154 1    
    62   30   31 2    
    63   30   32 1    
    64   32   33 1    
    65   32   34 1    
    66   32  155 1    
    67   33  156 1    
    68   33  157 1    
    69   33  158 1    
    70   34   35 am   BACKBONE|DICT|INTERRES
    71   34  159 1    
    72   35   36 2    
    73   35   37 1    
    74   37   38 1    
    75   37   39 1    
    76   37  160 1    
    77   38  161 1    
    78   38  162 1    
    79   38  163 1    
    80   39   40 am   BACKBONE|DICT|INTERRES
    81   39  164 1    
    82   40   41 2    
    83   40   42 1    
    84   42   43 1    
    85   42   44 1    
    86   42  165 1    
    87   43  166 1    
    88   43  167 1    
    89   43  168 1    
    90   44   45 am   BACKBONE|DICT|INTERRES
    91   44  169 1    
    92   45   46 2    
    93   45   47 1    
    94   47   48 1    
    95   47   49 1    
    96   47  170 1    
    97   48  171 1    
    98   48  172 1    
    99   48  173 1    
   100   49   50 am   BACKBONE|DICT|INTERRES
   101   49  174 1    
   102   50   51 2    
   103   50   52 1    
   104   52   53 1    
   105   52   54 1    
   106   52  175 1    
   107   53  176 1    
   108   53  177 1    
   109   53  178 1    
   110   54   55 am   BACKBONE|DICT|INTERRES
   111   54  179 1    
   112   55   56 2    
   113   55   57 1    
   114   57   58 1    
   115   57   59 1    
   116   57  180 1    
   117   58  181 1    
   118   58  182 1    
   119   58  183 1    
   120   59   60 am   BACKBONE|DICT|INTERRES
   121   59  184 1    
   122   60   61 2    
   123   60   62 1    
   124   62   63 1    
   125   62   64 1    
   126   62  185 1    
   127   63  186 1    
   128   63  187 1    
   129   63  188 1    
   130   64   65 am   BACKBONE|DICT|INTERRES
   131   64  189 1    
   132   65   66 2    
   133   67   68 2    
   134   67   69 am   BACKBONE|DICT|INTERRES
   135   69   70 1    
   136   69  190 1    
   137   70   71 1    
   138   70   72 1    
   139   70  191 1    
   140   71  192 1    
   141   71  193 1    
   142   71  194 1    
   143   72   73 2    
   144   72   74 am   BACKBONE|DICT|INTERRES
   145   74   75 1    
   146   74  195 1    
   147   75   76 1    
   148   75   77 1    
   149   75  196 1    
   150   76  197 1    
   151   76  198 1    
   152   76  199 1    
   153   77   78 2    
   154   77   79 am   BACKBONE|DICT|INTERRES
   155   79   80 1    
   156   79  200 1    
   157   80   81 1    
   158   80   82 1    
   159   80  201 1    
   160   81  202 1    
   161   81  203 1    
   162   81  204 1    
   163   82   83 2    
   164   82   84 am   BACKBONE|DICT|INTERRES
   165   84   85 1    
   166   84  205 1    
   167   85   86 1    
   168   85   87 1    
   169   85  206 1    
   170   86  207 1    
   171   86  208 1    
   172   86  209 1    
   173   87   88 2    
   174   87   89 am   BACKBONE|DICT|INTERRES
   175   89   90 1    
   176   89  210 1    
   177   90   91 1    
   178   90   92 1    
   179   90  211 1    
   180   91  212 1    
   181   91  213 1    
   182   91  214 1    
   183   92   93 2    
   184   92   94 am   BACKBONE|DICT|INTERRES
   185   94   95 1    
   186   94  215 1    
   187   95   96 1    
   188   95   97 1    
   189   95  216 1    
   190   96  217 1    
   191   96  218 1    
   192   96  219 1    
   193   97   98 2    
   194   97   99 am   BACKBONE|DICT|INTERRES
   195   99  100 1    
   196   99  220 1    
   197  100  101 1    
   198  100  102 1    
   199  100  221 1    
   200  101  222 1    
   201  101  223 1    
   202  101  224 1    
   203  102  103 2    
   204  102  104 am   BACKBONE|DICT|INTERRES
   205  104  105 1    
   206  104  225 1    
   207  105  106 1    
   208  105  107 1    
   209  105  226 1    
   210  106  227 1    
   211  106  228 1    
   212  106  229 1    
   213  107  108 2    
   214  107  109 am   BACKBONE|DICT|INTERRES
   215  109  110 1    
   216  109  230 1    
   217  110  111 1    
   218  110  112 1    
   219  110  231 1    
   220  111  232 1    
   221  111  233 1    
   222  111  234 1    
   223  112  113 2    
   224  112  114 am   BACKBONE|DICT|INTERRES
   225  114  115 1    
   226  114  235 1    
   227  115  116 1    
   228  115  117 1    
   229  115  236 1    
   230  116  237 1    
   231  116  238 1    
   232  116  239 1    
   233  117  118 2    
   234  117  119 am   BACKBONE|DICT|INTERRES
   235  119  120 1    
   236  119  240 1    
   237  120  121 1    
   238  120  124 1    
   239  120  241 1    
   240  121  122 am   BACKBONE|DICT|INTERRES
   241  121  123 2    
   242  122  242 1    
   243  122  243 1    
   244  124  125 1    
   245  124  244 1    
   246  124  245 1    
   247  125  126 1    
   248  126  246 1    
   249  126  247 1    
@<TRIPOS>SUBSTRUCTURE
     1 UNK         1 GROUP             0       ****    0 ROOT    
