@<TRIPOS>MOLECULE
3R540
247   249    1
SMALL
USER_CHARGES


@<TRIPOS>ATOM
      1 CA         -2.1510   -9.5092  -44.0730 C.3       0 UNK        -0.1800 
      2 C          -1.0778   -9.6766  -45.1400 C.2       0 UNK         0.5000 
      3 O          -0.2628   -8.7752  -45.3370 O.2       0 UNK        -0.5000 
      4 N          -1.0780  -10.8256  -45.8275 N.am      1 UNK        -0.5000 
      5 CA         -0.0801  -11.2075  -46.8317 C.3       1 UNK         0.1400 
      6 C6         -0.5697  -12.4307  -47.6433 C.3       23 UNK        -0.0398 
      7 S7          0.3459  -12.6782  -49.2051 S.3       23 UNK        -0.2404 
      8 C8          1.0300  -14.3510  -48.9633 C.3       23 UNK        -0.0205 
      9 C9          0.1519  -15.4473  -49.5602 C.ar      23 UNK        -0.0193 
     10 C10         0.7060  -16.3671  -50.4546 C.ar      23 UNK        -0.1150 
     11 C11        -0.0658  -17.3928  -51.0080 C.ar      23 UNK        -0.0193 
     12 C12        -1.4219  -17.4821  -50.6614 C.ar      23 UNK        -0.1150 
     13 C13        -1.9970  -16.5723  -49.7640 C.ar      23 UNK        -0.0193 
     14 C14        -1.1978  -15.5664  -49.2129 C.ar      23 UNK        -0.1150 
     15 C15        -3.4887  -16.5960  -49.4285 C.3       23 UNK        -0.0205 
     16 S16        -4.2652  -18.2476  -49.4423 S.3       23 UNK        -0.2404 
     17 C17        -4.1297  -18.7748  -47.7022 C.3       23 UNK        -0.0398 
     18 CA         -4.0118  -20.3138  -47.5984 C.3       11 UNK         0.1400 
     19 N          -2.7189  -20.7842  -48.1043 N.am      11 UNK        -0.5000 
     20 C          -2.3100  -22.0563  -48.1965 C.2       10 UNK         0.5000 
     21 O          -3.0147  -23.0285  -47.9224 O.2       10 UNK        -0.5000 
     22 CA         -0.8412  -22.2762  -48.6057 C.3       10 UNK         0.1400 
     23 CB         -0.7531  -22.4863  -50.1240 C.3       10 UNK        -0.1800 
     24 N           0.0672  -21.1875  -48.2221 N.am      10 UNK        -0.5000 
     25 C           0.2255  -20.6791  -46.9907 C.2       9 UNK         0.5000 
     26 O          -0.4012  -21.0642  -46.0007 O.2       9 UNK        -0.5000 
     27 CA          1.1774  -19.4803  -46.8801 C.3       9 UNK         0.1400 
     28 CB          0.4790  -18.2267  -47.4203 C.3       9 UNK        -0.1800 
     29 N           1.5803  -19.2397  -45.4973 N.am      9 UNK        -0.5000 
     30 C           2.5697  -19.8859  -44.8669 C.2       8 UNK         0.5000 
     31 O           3.2892  -20.7229  -45.4136 O.2       8 UNK        -0.5000 
     32 CA          2.8153  -19.5367  -43.3855 C.3       8 UNK         0.1400 
     33 CB          4.1675  -18.8268  -43.2088 C.3       8 UNK        -0.1800 
     34 N           1.7584  -18.6870  -42.8320 N.am      8 UNK        -0.5000 
     35 C           0.6923  -19.1485  -42.1643 C.2       7 UNK         0.5000 
     36 O           0.5223  -20.3367  -41.8901 O.2       7 UNK        -0.5000 
     37 CA         -0.3684  -18.1190  -41.7284 C.3       7 UNK         0.1400 
     38 CB         -0.1151  -17.6762  -40.2809 C.3       7 UNK        -0.1800 
     39 N          -0.4380  -16.9463  -42.6059 N.am      7 UNK        -0.5000 
     40 C          -0.9293  -16.9739  -43.8545 C.2       6 UNK         0.5000 
     41 O          -1.3659  -18.0001  -44.3747 O.2       6 UNK        -0.5000 
     42 CA         -0.9005  -15.6770  -44.6936 C.3       6 UNK         0.1400 
     43 CB         -2.2195  -15.4651  -45.4666 C.3       6 UNK        -0.1800 
     44 N          -0.5089  -14.4738  -43.9517 N.am      6 UNK        -0.5000 
     45 C          -1.1939  -13.8124  -43.0079 C.2       5 UNK         0.5000 
     46 O          -2.3349  -14.1019  -42.6469 O.2       5 UNK        -0.5000 
     47 CA         -0.4361  -12.6372  -42.3515 C.3       5 UNK         0.1400 
     48 CB         -1.1025  -12.1241  -41.0580 C.3       5 UNK        -0.1800 
     49 N           0.9859  -12.9438  -42.1369 N.am      5 UNK        -0.5000 
     50 C           1.4806  -13.9231  -41.3640 C.2       4 UNK         0.5000 
     51 O           0.7788  -14.6660  -40.6794 O.2       4 UNK        -0.5000 
     52 CA          3.0085  -14.1348  -41.4195 C.3       4 UNK         0.1400 
     53 CB          3.4750  -15.3699  -40.6184 C.3       4 UNK        -0.1800 
     54 N           3.5170  -14.1963  -42.7957 N.am      4 UNK        -0.5000 
     55 C           3.1690  -15.0786  -43.7448 C.2       3 UNK         0.5000 
     56 O           2.3275  -15.9649  -43.5876 O.2       3 UNK        -0.5000 
     57 CA          3.8286  -14.8768  -45.1167 C.3       3 UNK         0.1400 
     58 CB          3.3218  -15.8662  -46.1808 C.3       3 UNK        -0.1800 
     59 N           3.5521  -13.5094  -45.5343 N.am      3 UNK        -0.5000 
     60 C           4.2853  -12.7449  -46.3430 C.2       2 UNK         0.5000 
     61 O           5.3072  -13.1372  -46.9087 O.2       2 UNK        -0.5000 
     62 CA          3.7832  -11.2933  -46.5303 C.3       2 UNK         0.1400 
     63 CB          4.6308  -10.5025  -47.5431 C.3       2 UNK        -0.1800 
     64 N           2.3734  -11.1917  -46.9263 N.am      2 UNK        -0.5000 
     65 C           1.2966  -11.4625  -46.1757 C.2       1 UNK         0.5000 
     66 O           1.3575  -11.9202  -45.0293 O.2       1 UNK        -0.5000 
     67 C          -4.3368  -20.8029  -46.1680 C.2       11 UNK         0.5000 
     68 O          -5.5166  -20.9407  -45.8439 O.2       11 UNK        -0.5000 
     69 N          -3.3081  -21.0891  -45.3594 N.am      12 UNK        -0.5000 
     70 CA         -3.4383  -21.7026  -44.0408 C.3       12 UNK         0.1400 
     71 CB         -2.8484  -20.7583  -42.9860 C.3       12 UNK        -0.1800 
     72 C          -2.7342  -23.0672  -44.0042 C.2       12 UNK         0.5000 
     73 O          -3.3396  -24.0488  -43.5734 O.2       12 UNK        -0.5000 
     74 N          -1.4788  -23.1173  -44.4718 N.am      13 UNK        -0.5000 
     75 CA         -0.5795  -24.2696  -44.3650 C.3       13 UNK         0.1400 
     76 CB          0.8384  -23.8360  -44.7685 C.3       13 UNK        -0.1800 
     77 C          -1.0157  -25.5002  -45.1810 C.2       13 UNK         0.5000 
     78 O          -0.6627  -26.6205  -44.8108 O.2       13 UNK        -0.5000 
     79 N          -1.7769  -25.2760  -46.2583 N.am      14 UNK        -0.5000 
     80 CA         -2.3590  -26.3143  -47.1088 C.3       14 UNK         0.1400 
     81 CB         -1.7642  -26.1940  -48.5230 C.3       14 UNK        -0.1800 
     82 C          -3.8953  -26.2113  -47.1254 C.2       14 UNK         0.5000 
     83 O          -4.5233  -26.7245  -48.0519 O.2       14 UNK        -0.5000 
     84 N          -4.4774  -25.5168  -46.1324 N.am      15 UNK        -0.5000 
     85 CA         -5.9136  -25.2677  -45.9441 C.3       15 UNK         0.1400 
     86 CB         -6.6178  -26.5653  -45.4978 C.3       15 UNK        -0.1800 
     87 C          -6.6047  -24.6092  -47.1611 C.2       15 UNK         0.5000 
     88 O          -7.7949  -24.8321  -47.3879 O.2       15 UNK        -0.5000 
     89 N          -5.8312  -23.8335  -47.9344 N.am      16 UNK        -0.5000 
     90 CA         -6.1891  -23.1783  -49.1930 C.3       16 UNK         0.1400 
     91 CB         -7.3339  -22.1622  -49.0002 C.3       16 UNK        -0.1800 
     92 C          -6.4374  -24.1397  -50.3746 C.2       16 UNK         0.5000 
     93 O          -6.9370  -23.6935  -51.4077 O.2       16 UNK        -0.5000 
     94 N          -6.0502  -25.4189  -50.2502 N.am      17 UNK        -0.5000 
     95 CA         -6.1571  -26.4053  -51.3290 C.3       17 UNK         0.1400 
     96 CB         -6.0422  -27.8245  -50.7524 C.3       17 UNK        -0.1800 
     97 C          -5.0998  -26.1729  -52.4232 C.2       17 UNK         0.5000 
     98 O          -5.4198  -26.2458  -53.6098 O.2       17 UNK        -0.5000 
     99 N          -3.8655  -25.8650  -52.0004 N.am      18 UNK        -0.5000 
    100 CA        -2.7348  -25.5685  -52.8853 C.3       18 UNK         0.1400 
    101 CB        -1.4334  -26.0154  -52.2012 C.3       18 UNK        -0.1800 
    102 C         -2.6568  -24.0810  -53.2822 C.2       18 UNK         0.5000 
    103 O         -1.8593  -23.7310  -54.1526 O.2       18 UNK        -0.5000 
    104 N         -3.4827  -23.2264  -52.6578 N.am      19 UNK        -0.5000 
    105 CA        -3.4966  -21.7719  -52.8519 C.3       19 UNK         0.1400 
    106 CB        -4.3676  -21.1098  -51.7773 C.3       19 UNK        -0.1800 
    107 C         -3.9115  -21.3086  -54.2620 C.2       19 UNK         0.5000 
    108 O         -3.6795  -20.1514  -54.6068 O.2       19 UNK        -0.5000 
    109 N         -4.4609  -22.2177  -55.0786 N.am      20 UNK        -0.5000 
    110 CA        -4.7199  -22.0136  -56.5056 C.3       20 UNK         0.1400 
    111 CB        -5.4681  -23.2391  -57.0520 C.3       20 UNK        -0.1800 
    112 C         -3.4428  -21.7451  -57.3337 C.2       20 UNK         0.5000 
    113 O         -3.5352  -21.1377  -58.4009 O.2       20 UNK        -0.5000 
    114 N         -2.2796  -22.1858  -56.8307 N.am      21 UNK        -0.5000 
    115 CA        -0.9680  -21.9396  -57.4301 C.3       21 UNK         0.1400 
    116 CB         0.0017  -23.0333  -56.9548 C.3       21 UNK        -0.1800 
    117 C         -0.3971  -20.5418  -57.1093 C.2       21 UNK         0.5000 
    118 O          0.5508  -20.1223  -57.7755 O.2       21 UNK        -0.5000 
    119 N         -0.9436  -19.8562  -56.0956 N.am      22 UNK        -0.5000 
    120 CA        -0.5012  -18.5235  -55.6544 C.3       22 UNK         0.1400 
    121 C         -0.8973  -17.4042  -56.6565 C.2       22 UNK         0.5000 
    122 N         -0.0656  -16.3832  -56.8139 N.am      22 UNK        -0.7600 
    123 O         -1.9663  -17.4291  -57.2625 O.2       22 UNK        -0.5000 
    124 C124       -1.0129  -18.1837  -54.2310 C.3       23 UNK        -0.0398 
    125 S125       -0.4687  -19.4038  -52.9859 S.3       23 UNK        -0.2404 
    126 C126        0.6280  -18.3982  -51.9307 C.3       23 UNK        -0.0205 
    127 H127       -2.7891  -10.3901  -43.9965 H         1 UNK         0.0600 
    128 H128       -2.7815   -8.6512  -44.3058 H         1 UNK         0.0600 
    129 H129       -1.6891   -9.3404  -43.1002 H         1 UNK         0.0600 
    130 H130       -1.7749  -11.5236  -45.6147 H         1 UNK         0.3000 
    131 H131        0.0217  -10.3617  -47.5154 H         1 UNK         0.0600 
    132 H132       -0.5360  -13.3313  -47.0303 H         1 UNK         0.0800 
    133 H133       -1.6171  -12.2960  -47.9178 H         1 UNK         0.0800 
    134 H134        1.1882  -14.5470  -47.9040 H         1 UNK         0.0800 
    135 H135        2.0206  -14.3715  -49.4200 H         1 UNK         0.0800 
    136 H136        1.7533  -16.2943  -50.7129 H         1 UNK         0.1150 
    137 H137       -2.0368  -18.2590  -51.0894 H         1 UNK         0.1150 
    138 H138       -1.6382  -14.8581  -48.5279 H         1 UNK         0.1150 
    139 H139       -3.6742  -16.1235  -48.4628 H         1 UNK         0.0800 
    140 H140       -4.0006  -15.9803  -50.1688 H         1 UNK         0.0800 
    141 H141       -5.0195  -18.4110  -47.1847 H         1 UNK         0.0800 
    142 H142       -3.2741  -18.2916  -47.2273 H         1 UNK         0.0800 
    143 H143       -4.7776  -20.7487  -48.2401 H         1 UNK         0.0600 
    144 H144       -2.0646  -20.0620  -48.3647 H         1 UNK         0.3000 
    145 H145       -0.4974  -23.1848  -48.1080 H         1 UNK         0.0600 
    146 H146        0.2453  -22.8049  -50.4236 H         1 UNK         0.0600 
    147 H147       -1.4518  -23.2543  -50.4547 H         1 UNK         0.0600 
    148 H148       -0.9926  -21.5730  -50.6701 H         1 UNK         0.0600 
    149 H149        0.6152  -20.7950  -48.9736 H         1 UNK         0.3000 
    150 H150        2.0627  -19.6790  -47.4878 H         1 UNK         0.0600 
    151 H151        0.1352  -18.3887  -48.4397 H         1 UNK         0.0600 
    152 H152        1.1543  -17.3751  -47.4467 H         1 UNK         0.0600 
    153 H153       -0.3948  -17.9547  -46.8297 H         1 UNK         0.0600 
    154 H154        0.9734  -18.6489  -44.9483 H         1 UNK         0.3000 
    155 H155        2.8621  -20.4785  -42.8350 H         1 UNK         0.0600 
    156 H156        4.2260  -17.9129  -43.7981 H         1 UNK         0.0600 
    157 H157        4.9894  -19.4704  -43.5244 H         1 UNK         0.0600 
    158 H158        4.3426  -18.5644  -42.1653 H         1 UNK         0.0600 
    159 H159        1.8372  -17.6891  -43.0180 H         1 UNK         0.3000 
    160 H160       -1.3415  -18.6119  -41.7548 H         1 UNK         0.0600 
    161 H161        0.8790  -17.2455  -40.1604 H         1 UNK         0.0600 
    162 H162       -0.1861  -18.5236  -39.5980 H         1 UNK         0.0600 
    163 H163       -0.8465  -16.9351  -39.9579 H         1 UNK         0.0600 
    164 H164       -0.0616  -16.0809  -42.2395 H         1 UNK         0.3000 
    165 H165       -0.1131  -15.8237  -45.4337 H         1 UNK         0.0600 
    166 H166       -3.0838  -15.4831  -44.8022 H         1 UNK         0.0600 
    167 H167       -2.2309  -14.5157  -45.9987 H         1 UNK         0.0600 
    168 H168       -2.3649  -16.2526  -46.2060 H         1 UNK         0.0600 
    169 H169        0.4316  -14.1513  -44.1297 H         1 UNK         0.3000 
    170 H170       -0.4647  -11.8202  -43.0714 H         1 UNK         0.0600 
    171 H171       -2.1121  -11.7633  -41.2578 H         1 UNK         0.0600 
    172 H172       -1.1799  -12.9047  -40.3008 H         1 UNK         0.0600 
    173 H173       -0.5417  -11.2939  -40.6289 H         1 UNK         0.0600 
    174 H174        1.6288  -12.4050  -42.7025 H         1 UNK         0.3000 
    175 H175        3.4562  -13.2538  -40.9575 H         1 UNK         0.0600 
    176 H176        3.0484  -16.2946  -41.0080 H         1 UNK         0.0600 
    177 H177        4.5602  -15.4677  -40.6434 H         1 UNK         0.0600 
    178 H178        3.1809  -15.2909  -39.5712 H         1 UNK         0.0600 
    179 H179        4.1968  -13.4893  -43.0390 H         1 UNK         0.3000 
    180 H180        4.9045  -15.0117  -44.9893 H         1 UNK         0.0600 
    181 H181        2.2415  -15.7956  -46.2883 H         1 UNK         0.0600 
    182 H182        3.5591  -16.8948  -45.9093 H         1 UNK         0.0600 
    183 H183        3.7719  -15.6739  -47.1546 H         1 UNK         0.0600 
    184 H184        2.7201  -13.0784  -45.1358 H         1 UNK         0.3000 
    185 H185        3.8900  -10.8025  -45.5608 H         1 UNK         0.0600 
    186 H186        4.5678  -10.9342  -48.5428 H         1 UNK         0.0600 
    187 H187        4.3055   -9.4638  -47.6046 H         1 UNK         0.0600 
    188 H188        5.6825  -10.4922  -47.2539 H         1 UNK         0.0600 
    189 H189        2.2176  -10.8762  -47.8731 H         1 UNK         0.3000 
    190 H190       -2.3615  -20.9489  -45.6982 H         1 UNK         0.3000 
    191 H191       -4.4870  -21.8731  -43.7889 H         1 UNK         0.0600 
    192 H192       -2.8886  -21.1998  -41.9895 H         1 UNK         0.0600 
    193 H193       -3.3953  -19.8159  -42.9522 H         1 UNK         0.0600 
    194 H194       -1.8065  -20.5288  -43.2068 H         1 UNK         0.0600 
    195 H195       -1.0635  -22.2745  -44.8647 H         1 UNK         0.3000 
    196 H196       -0.5556  -24.5687  -43.3151 H         1 UNK         0.0600 
    197 H197        0.8866  -23.5454  -45.8184 H         1 UNK         0.0600 
    198 H198        1.1787  -22.9892  -44.1715 H         1 UNK         0.0600 
    199 H199        1.5527  -24.6467  -44.6202 H         1 UNK         0.0600 
    200 H200       -2.0410  -24.3253  -46.4858 H         1 UNK         0.3000 
    201 H201       -2.1220  -27.3080  -46.7244 H         1 UNK         0.0600 
    202 H202       -2.0594  -25.2623  -49.0039 H         1 UNK         0.0600 
    203 H203       -2.0983  -27.0134  -49.1606 H         1 UNK         0.0600 
    204 H204       -0.6751  -26.2285  -48.4980 H         1 UNK         0.0600 
    205 H205       -3.8789  -25.1380  -45.4083 H         1 UNK         0.3000 
    206 H206       -5.9928  -24.5480  -45.1279 H         1 UNK         0.0600 
    207 H207       -6.1266  -27.0005  -44.6275 H         1 UNK         0.0600 
    208 H208       -7.6553  -26.3755  -45.2203 H         1 UNK         0.0600 
    209 H209       -6.6216  -27.3142  -46.2905 H         1 UNK         0.0600 
    210 H210       -4.8547  -23.7308  -47.6738 H         1 UNK         0.3000 
    211 H211       -5.3014  -22.6164  -49.4734 H         1 UNK         0.0600 
    212 H212       -7.4450  -21.5279  -49.8803 H         1 UNK         0.0600 
    213 H213       -7.1446  -21.5055  -48.1513 H         1 UNK         0.0600 
    214 H214       -8.2910  -22.6566  -48.8336 H         1 UNK         0.0600 
    215 H215       -5.6368  -25.7385  -49.3789 H         1 UNK         0.3000 
    216 H216       -7.1439  -26.3104  -51.7875 H         1 UNK         0.0600 
    217 H217       -5.0563  -28.0116  -50.3256 H         1 UNK         0.0600 
    218 H218       -6.2087  -28.5730  -51.5279 H         1 UNK         0.0600 
    219 H219       -6.7828  -27.9943  -49.9706 H         1 UNK         0.0600 
    220 H220       -3.6897  -25.8381  -51.0067 H         1 UNK         0.3000 
    221 H221       -2.8387  -26.1430  -53.8082 H         1 UNK         0.0600 
    222 H222       -1.4686  -27.0727  -51.9379 H         1 UNK         0.0600 
    223 H223       -1.2359  -25.4495  -51.2922 H         1 UNK         0.0600 
    224 H224       -0.5774  -25.8758  -52.8628 H         1 UNK         0.0600 
    225 H225       -4.1446  -23.6038  -51.9979 H         1 UNK         0.3000 
    226 H226       -2.4741  -21.4251  -52.7046 H         1 UNK         0.0600 
    227 H227       -5.3953  -21.4708  -51.8085 H         1 UNK         0.0600 
    228 H228       -3.9634  -21.2892  -50.7824 H         1 UNK         0.0600 
    229 H229       -4.3989  -20.0283  -51.9150 H         1 UNK         0.0600 
    230 H230       -4.6241  -23.1456  -54.7161 H         1 UNK         0.3000 
    231 H231       -5.3668  -21.1399  -56.6076 H         1 UNK         0.0600 
    232 H232       -4.8747  -24.1490  -56.9530 H         1 UNK         0.0600 
    233 H233       -5.7042  -23.1139  -58.1095 H         1 UNK         0.0600 
    234 H234       -6.4105  -23.3935  -56.5260 H         1 UNK         0.0600 
    235 H235       -2.2808  -22.6841  -55.9471 H         1 UNK         0.3000 
    236 H236       -1.0565  -22.0166  -58.5158 H         1 UNK         0.0600 
    237 H237       -0.3722  -24.0276  -57.1994 H         1 UNK         0.0600 
    238 H238        0.9767  -22.9263  -57.4318 H         1 UNK         0.0600 
    239 H239        0.1583  -22.9895  -55.8762 H         1 UNK         0.0600 
    240 H240       -1.7591  -20.2272  -55.6258 H         1 UNK         0.3000 
    241 H241        0.5895  -18.5487  -55.6084 H         1 UNK         0.0600 
    242 H242       -0.3161  -15.6424  -57.4506 H         1 UNK         0.3800 
    243 H243        0.8158  -16.3360  -56.3262 H         1 UNK         0.3800 
    244 H244       -2.1021  -18.1344  -54.2135 H         1 UNK         0.0800 
    245 H245       -0.6688  -17.1926  -53.9305 H         1 UNK         0.0800 
    246 H246        1.3451  -17.8813  -52.5704 H         1 UNK         0.0800 
    247 H247        1.2096  -19.0784  -51.3077 H         1 UNK         0.0800 
@<TRIPOS>BOND
     1    1    2 1    
     2    1  127 1    
     3    1  128 1    
     4    1  129 1    
     5    2    3 2    
     6    2    4 am   BACKBONE|DICT|INTERRES
     7    4    5 1    
     8    4  130 1    
     9    5    6 1    
    10    5   65 1    
    11    5  131 1    
    12    6    7 1    
    13    6  132 1    
    14    6  133 1    
    15    7    8 1    
    16    8    9 1    
    17    8  134 1    
    18    8  135 1    
    19    9   10 ar   
    20    9   14 ar   
    21   10   11 ar   
    22   10  136 1    
    23   11   12 ar   
    24   11  126 1    
    25   12   13 ar   
    26   12  137 1    
    27   13   14 ar   
    28   13   15 1    
    29   14  138 1    
    30   15   16 1    
    31   15  139 1    
    32   15  140 1    
    33   16   17 1    
    34   17   18 1    
    35   17  141 1    
    36   17  142 1    
    37   18   19 1    
    38   18   67 1    
    39   18  143 1    
    40   19   20 am   BACKBONE|DICT|INTERRES
    41   19  144 1    
    42   20   21 2    
    43   20   22 1    
    44   22   23 1    
    45   22   24 1    
    46   22  145 1    
    47   23  146 1    
    48   23  147 1    
    49   23  148 1    
    50   24   25 am   BACKBONE|DICT|INTERRES
    51   24  149 1    
    52   25   26 2    
    53   25   27 1    
    54   27   28 1    
    55   27   29 1    
    56   27  150 1    
    57   28  151 1    
    58   28  152 1    
    59   28  153 1    
    60   29   30 am   BACKBONE|DICT|INTERRES
    61   29  154 1    
    62   30   31 2    
    63   30   32 1    
    64   32   33 1    
    65   32   34 1    
    66   32  155 1    
    67   33  156 1    
    68   33  157 1    
    69   33  158 1    
    70   34   35 am   BACKBONE|DICT|INTERRES
    71   34  159 1    
    72   35   36 2    
    73   35   37 1    
    74   37   38 1    
    75   37   39 1    
    76   37  160 1    
    77   38  161 1    
    78   38  162 1    
    79   38  163 1    
    80   39   40 am   BACKBONE|DICT|INTERRES
    81   39  164 1    
    82   40   41 2    
    83   40   42 1    
    84   42   43 1    
    85   42   44 1    
    86   42  165 1    
    87   43  166 1    
    88   43  167 1    
    89   43  168 1    
    90   44   45 am   BACKBONE|DICT|INTERRES
    91   44  169 1    
    92   45   46 2    
    93   45   47 1    
    94   47   48 1    
    95   47   49 1    
    96   47  170 1    
    97   48  171 1    
    98   48  172 1    
    99   48  173 1    
   100   49   50 am   BACKBONE|DICT|INTERRES
   101   49  174 1    
   102   50   51 2    
   103   50   52 1    
   104   52   53 1    
   105   52   54 1    
   106   52  175 1    
   107   53  176 1    
   108   53  177 1    
   109   53  178 1    
   110   54   55 am   BACKBONE|DICT|INTERRES
   111   54  179 1    
   112   55   56 2    
   113   55   57 1    
   114   57   58 1    
   115   57   59 1    
   116   57  180 1    
   117   58  181 1    
   118   58  182 1    
   119   58  183 1    
   120   59   60 am   BACKBONE|DICT|INTERRES
   121   59  184 1    
   122   60   61 2    
   123   60   62 1    
   124   62   63 1    
   125   62   64 1    
   126   62  185 1    
   127   63  186 1    
   128   63  187 1    
   129   63  188 1    
   130   64   65 am   BACKBONE|DICT|INTERRES
   131   64  189 1    
   132   65   66 2    
   133   67   68 2    
   134   67   69 am   BACKBONE|DICT|INTERRES
   135   69   70 1    
   136   69  190 1    
   137   70   71 1    
   138   70   72 1    
   139   70  191 1    
   140   71  192 1    
   141   71  193 1    
   142   71  194 1    
   143   72   73 2    
   144   72   74 am   BACKBONE|DICT|INTERRES
   145   74   75 1    
   146   74  195 1    
   147   75   76 1    
   148   75   77 1    
   149   75  196 1    
   150   76  197 1    
   151   76  198 1    
   152   76  199 1    
   153   77   78 2    
   154   77   79 am   BACKBONE|DICT|INTERRES
   155   79   80 1    
   156   79  200 1    
   157   80   81 1    
   158   80   82 1    
   159   80  201 1    
   160   81  202 1    
   161   81  203 1    
   162   81  204 1    
   163   82   83 2    
   164   82   84 am   BACKBONE|DICT|INTERRES
   165   84   85 1    
   166   84  205 1    
   167   85   86 1    
   168   85   87 1    
   169   85  206 1    
   170   86  207 1    
   171   86  208 1    
   172   86  209 1    
   173   87   88 2    
   174   87   89 am   BACKBONE|DICT|INTERRES
   175   89   90 1    
   176   89  210 1    
   177   90   91 1    
   178   90   92 1    
   179   90  211 1    
   180   91  212 1    
   181   91  213 1    
   182   91  214 1    
   183   92   93 2    
   184   92   94 am   BACKBONE|DICT|INTERRES
   185   94   95 1    
   186   94  215 1    
   187   95   96 1    
   188   95   97 1    
   189   95  216 1    
   190   96  217 1    
   191   96  218 1    
   192   96  219 1    
   193   97   98 2    
   194   97   99 am   BACKBONE|DICT|INTERRES
   195   99  100 1    
   196   99  220 1    
   197  100  101 1    
   198  100  102 1    
   199  100  221 1    
   200  101  222 1    
   201  101  223 1    
   202  101  224 1    
   203  102  103 2    
   204  102  104 am   BACKBONE|DICT|INTERRES
   205  104  105 1    
   206  104  225 1    
   207  105  106 1    
   208  105  107 1    
   209  105  226 1    
   210  106  227 1    
   211  106  228 1    
   212  106  229 1    
   213  107  108 2    
   214  107  109 am   BACKBONE|DICT|INTERRES
   215  109  110 1    
   216  109  230 1    
   217  110  111 1    
   218  110  112 1    
   219  110  231 1    
   220  111  232 1    
   221  111  233 1    
   222  111  234 1    
   223  112  113 2    
   224  112  114 am   BACKBONE|DICT|INTERRES
   225  114  115 1    
   226  114  235 1    
   227  115  116 1    
   228  115  117 1    
   229  115  236 1    
   230  116  237 1    
   231  116  238 1    
   232  116  239 1    
   233  117  118 2    
   234  117  119 am   BACKBONE|DICT|INTERRES
   235  119  120 1    
   236  119  240 1    
   237  120  121 1    
   238  120  124 1    
   239  120  241 1    
   240  121  122 am   BACKBONE|DICT|INTERRES
   241  121  123 2    
   242  122  242 1    
   243  122  243 1    
   244  124  125 1    
   245  124  244 1    
   246  124  245 1    
   247  125  126 1    
   248  126  246 1    
   249  126  247 1    
@<TRIPOS>SUBSTRUCTURE
     1 UNK         1 GROUP             0       ****    0 ROOT    
