@<TRIPOS>MOLECULE
3R540
247   249    1
SMALL
USER_CHARGES


@<TRIPOS>ATOM
      1 CA          4.0415   -8.9102  -48.3918 C.3       0 UNK        -0.1800 
      2 C           3.7435  -10.3958  -48.5394 C.2       0 UNK         0.5000 
      3 O           4.6700  -11.1984  -48.6507 O.2       0 UNK        -0.5000 
      4 N           2.4580  -10.7622  -48.5387 N.am      1 UNK        -0.5000 
      5 CA          1.9739  -12.1390  -48.6537 C.3       1 UNK         0.1400 
      6 C6          1.9140  -12.6323  -50.1290 C.3       23 UNK        -0.0398 
      7 S7          2.4527  -14.3631  -50.3313 S.3       23 UNK        -0.2404 
      8 C8          0.9326  -15.2804  -49.9317 C.3       23 UNK        -0.0205 
      9 C9          1.0016  -16.7102  -50.4474 C.ar      23 UNK        -0.0193 
     10 C10         0.2202  -17.1006  -51.5383 C.ar      23 UNK        -0.1150 
     11 C11         0.2996  -18.4023  -52.0406 C.ar      23 UNK        -0.0193 
     12 C12         1.1614  -19.3224  -51.4369 C.ar      23 UNK        -0.1150 
     13 C13         1.9490  -18.9458  -50.3441 C.ar      23 UNK        -0.0193 
     14 C14         1.8593  -17.6395  -49.8505 C.ar      23 UNK        -0.1150 
     15 C15         2.9299  -19.9370  -49.7297 C.3       23 UNK        -0.0205 
     16 S16         2.6075  -20.2478  -47.9658 S.3       23 UNK        -0.2404 
     17 C17         0.9916  -21.0905  -48.0157 C.3       23 UNK        -0.0398 
     18 CA          1.0523  -22.5384  -47.4754 C.3       11 UNK         0.1400 
     19 N           1.4978  -22.5813  -46.0822 N.am      11 UNK        -0.5000 
     20 C           1.8409  -23.6888  -45.4137 C.2       10 UNK         0.5000 
     21 O           1.8833  -24.8085  -45.9283 O.2       10 UNK        -0.5000 
     22 CA          2.1936  -23.5008  -43.9235 C.3       10 UNK         0.1400 
     23 CB          2.8532  -24.7421  -43.2870 C.3       10 UNK        -0.1800 
     24 N           2.9920  -22.2972  -43.6762 N.am      10 UNK        -0.5000 
     25 C           4.2213  -22.0133  -44.1325 C.2       9 UNK         0.5000 
     26 O           4.8924  -22.7830  -44.8213 O.2       9 UNK        -0.5000 
     27 CA          4.8119  -20.6355  -43.7609 C.3       9 UNK         0.1400 
     28 CB          4.9183  -19.7389  -45.0038 C.3       9 UNK        -0.1800 
     29 N           4.0446  -19.9227  -42.7374 N.am      9 UNK        -0.5000 
     30 C           4.0395  -20.2150  -41.4303 C.2       8 UNK         0.5000 
     31 O           4.7479  -21.0836  -40.9205 O.2       8 UNK        -0.5000 
     32 CA          3.0424  -19.4321  -40.5537 C.3       8 UNK         0.1400 
     33 CB          3.6483  -18.0959  -40.0989 C.3       8 UNK        -0.1800 
     34 N           1.7606  -19.1889  -41.2230 N.am      8 UNK        -0.5000 
     35 C           0.8996  -20.1502  -41.5891 C.2       7 UNK         0.5000 
     36 O           1.0819  -21.3479  -41.3727 O.2       7 UNK        -0.5000 
     37 CA         -0.3521  -19.7119  -42.3694 C.3       7 UNK         0.1400 
     38 CB         -1.4273  -19.1657  -41.4187 C.3       7 UNK        -0.1800 
     39 N          -0.0502  -18.7228  -43.4041 N.am      7 UNK        -0.5000 
     40 C           0.7008  -18.9659  -44.4880 C.2       6 UNK         0.5000 
     41 O           1.1670  -20.0726  -44.7547 O.2       6 UNK        -0.5000 
     42 CA          1.0186  -17.7682  -45.4038 C.3       6 UNK         0.1400 
     43 CB         -0.1400  -17.4815  -46.3709 C.3       6 UNK        -0.1800 
     44 N           1.3271  -16.5545  -44.6496 N.am      6 UNK        -0.5000 
     45 C           2.3638  -16.4152  -43.8123 C.2       5 UNK         0.5000 
     46 O           3.2107  -17.2856  -43.6180 O.2       5 UNK        -0.5000 
     47 CA          2.4283  -15.1040  -43.0122 C.3       5 UNK         0.1400 
     48 CB          3.0196  -13.9645  -43.8572 C.3       5 UNK        -0.1800 
     49 N           1.1114  -14.7177  -42.5049 N.am      5 UNK        -0.5000 
     50 C           0.4513  -15.3769  -41.5417 C.2       4 UNK         0.5000 
     51 O           0.9038  -16.3579  -40.9520 O.2       4 UNK        -0.5000 
     52 CA         -0.9676  -14.8792  -41.2104 C.3       4 UNK         0.1400 
     53 CB         -0.9124  -13.7010  -40.2267 C.3       4 UNK        -0.1800 
     54 N          -1.7159  -14.4808  -42.4036 N.am      4 UNK        -0.5000 
     55 C          -2.1232  -15.3284  -43.3592 C.2       3 UNK         0.5000 
     56 O          -1.9465  -16.5443  -43.3141 O.2       3 UNK        -0.5000 
     57 CA         -2.7915  -14.7059  -44.5993 C.3       3 UNK         0.1400 
     58 CB         -4.2989  -14.5258  -44.3682 C.3       3 UNK        -0.1800 
     59 N          -2.1994  -13.4239  -44.9947 N.am      3 UNK        -0.5000 
     60 C          -0.9220  -13.2633  -45.3637 C.2       2 UNK         0.5000 
     61 O          -0.0969  -14.1793  -45.3802 O.2       2 UNK        -0.5000 
     62 CA         -0.4803  -11.8291  -45.7068 C.3       2 UNK         0.1400 
     63 CB         -0.0941  -11.0762  -44.4237 C.3       2 UNK        -0.1800 
     64 N           0.6603  -11.8036  -46.6232 N.am      2 UNK        -0.5000 
     65 C           0.6386  -12.2386  -47.8908 C.2       1 UNK         0.5000 
     66 O          -0.3819  -12.6409  -48.4520 O.2       1 UNK        -0.5000 
     67 C          -0.3360  -23.1908  -47.6188 C.2       11 UNK         0.5000 
     68 O          -1.1972  -22.9911  -46.7582 O.2       11 UNK        -0.5000 
     69 N          -0.5565  -23.8948  -48.7382 N.am      12 UNK        -0.5000 
     70 CA         -1.8367  -24.5219  -49.0858 C.3       12 UNK         0.1400 
     71 CB         -1.6774  -25.3153  -50.3916 C.3       12 UNK        -0.1800 
     72 C          -2.9908  -23.5108  -49.2144 C.2       12 UNK         0.5000 
     73 O          -4.1183  -23.8217  -48.8341 O.2       12 UNK        -0.5000 
     74 N          -2.6730  -22.3028  -49.7007 N.am      13 UNK        -0.5000 
     75 CA         -3.6068  -21.1891  -49.8694 C.3       13 UNK         0.1400 
     76 CB         -2.8884  -20.0461  -50.6015 C.3       13 UNK        -0.1800 
     77 C          -4.2203  -20.6841  -48.5499 C.2       13 UNK         0.5000 
     78 O          -5.3639  -20.2312  -48.5500 O.2       13 UNK        -0.5000 
     79 N          -3.4736  -20.7945  -47.4413 N.am      14 UNK        -0.5000 
     80 CA         -3.9443  -20.4146  -46.1082 C.3       14 UNK         0.1400 
     81 CB         -2.7460  -20.2887  -45.1579 C.3       14 UNK        -0.1800 
     82 C          -4.9844  -21.4025  -45.5494 C.2       14 UNK         0.5000 
     83 O          -5.8843  -20.9858  -44.8198 O.2       14 UNK        -0.5000 
     84 N          -4.8514  -22.6851  -45.9122 N.am      15 UNK        -0.5000 
     85 CA         -5.7868  -23.7456  -45.5462 C.3       15 UNK         0.1400 
     86 CB         -5.0542  -25.0966  -45.5678 C.3       15 UNK        -0.1800 
     87 C          -7.0089  -23.7710  -46.4801 C.2       15 UNK         0.5000 
     88 O          -8.1373  -23.9009  -46.0044 O.2       15 UNK        -0.5000 
     89 N          -6.7610  -23.6570  -47.7916 N.am      16 UNK        -0.5000 
     90 CA         -7.7750  -23.7561  -48.8406 C.3       16 UNK         0.1400 
     91 CB         -7.0731  -24.0393  -50.1774 C.3       16 UNK        -0.1800 
     92 C          -8.6570  -22.5041  -48.9821 C.2       16 UNK         0.5000 
     93 O          -9.7648  -22.6163  -49.5065 O.2       16 UNK        -0.5000 
     94 N          -8.1311  -21.3327  -48.5946 N.am      17 UNK        -0.5000 
     95 CA         -8.6664  -19.9730  -48.7774 C.3       17 UNK         0.1400 
     96 CB        -10.0693  -19.8138  -48.1602 C.3       17 UNK        -0.1800 
     97 C          -8.6253  -19.4735  -50.2392 C.2       17 UNK         0.5000 
     98 O          -8.4538  -18.2743  -50.4639 O.2       17 UNK        -0.5000 
     99 N          -8.7481  -20.3931  -51.2040 N.am      18 UNK        -0.5000 
    100 CA        -8.4589  -20.2030  -52.6239 C.3       18 UNK         0.1400 
    101 CB        -9.0377  -21.4037  -53.3917 C.3       18 UNK        -0.1800 
    102 C         -6.9432  -20.0705  -52.8846 C.2       18 UNK         0.5000 
    103 O         -6.1355  -20.2998  -51.9831 O.2       18 UNK        -0.5000 
    104 N         -6.5804  -19.7275  -54.1287 N.am      19 UNK        -0.5000 
    105 CA        -5.1951  -19.5403  -54.5777 C.3       19 UNK         0.1400 
    106 CB        -5.2035  -19.0307  -56.0264 C.3       19 UNK        -0.1800 
    107 C         -4.3096  -20.7971  -54.4453 C.2       19 UNK         0.5000 
    108 O         -3.1199  -20.6618  -54.1592 O.2       19 UNK        -0.5000 
    109 N         -4.9154  -21.9830  -54.6164 N.am      20 UNK        -0.5000 
    110 CA        -4.3475  -23.3190  -54.4073 C.3       20 UNK         0.1400 
    111 CB        -4.1970  -23.5946  -52.8957 C.3       20 UNK        -0.1800 
    112 C         -3.0452  -23.5571  -55.1999 C.2       20 UNK         0.5000 
    113 O         -3.1091  -23.9054  -56.3794 O.2       20 UNK        -0.5000 
    114 N         -1.8965  -23.3733  -54.5353 N.am      21 UNK        -0.5000 
    115 CA        -0.5561  -23.4867  -55.1079 C.3       21 UNK         0.1400 
    116 CB         0.4662  -23.5228  -53.9603 C.3       21 UNK        -0.1800 
    117 C         -0.2158  -22.3523  -56.0946 C.2       21 UNK         0.5000 
    118 O          0.5931  -22.5654  -56.9992 O.2       21 UNK        -0.5000 
    119 N         -0.8248  -21.1762  -55.9042 N.am      22 UNK        -0.5000 
    120 CA        -0.6924  -20.0155  -56.7925 C.3       22 UNK         0.1400 
    121 C         -1.6163  -20.1427  -58.0340 C.2       22 UNK         0.5000 
    122 N         -1.1750  -19.6702  -59.1918 N.am      22 UNK        -0.7600 
    123 O         -2.7433  -20.6251  -57.9537 O.2       22 UNK        -0.5000 
    124 C124       -0.9664  -18.6915  -56.0380 C.3       23 UNK        -0.0398 
    125 S125        0.3133  -18.3230  -54.7914 S.3       23 UNK        -0.2404 
    126 C126       -0.5280  -18.8000  -53.2513 C.3       23 UNK        -0.0205 
    127 H127        3.1294   -8.3203  -48.2988 H         1 UNK         0.0600 
    128 H128        4.5919   -8.5501  -49.2610 H         1 UNK         0.0600 
    129 H129        4.6508   -8.7359  -47.5050 H         1 UNK         0.0600 
    130 H130        1.7367  -10.0611  -48.4314 H         1 UNK         0.3000 
    131 H131        2.6686  -12.7765  -48.1016 H         1 UNK         0.0600 
    132 H132        0.9371  -12.4808  -50.5906 H         1 UNK         0.0800 
    133 H133        2.5992  -12.0445  -50.7410 H         1 UNK         0.0800 
    134 H134        0.0705  -14.7650  -50.3581 H         1 UNK         0.0800 
    135 H135        0.7869  -15.2842  -48.8512 H         1 UNK         0.0800 
    136 H136       -0.4372  -16.3860  -52.0135 H         1 UNK         0.1150 
    137 H137        1.2341  -20.3250  -51.8345 H         1 UNK         0.1150 
    138 H138        2.4732  -17.3397  -49.0126 H         1 UNK         0.1150 
    139 H139        2.9186  -20.8866  -50.2668 H         1 UNK         0.0800 
    140 H140        3.9398  -19.5386  -49.8346 H         1 UNK         0.0800 
    141 H141        0.6150  -21.0794  -49.0396 H         1 UNK         0.0800 
    142 H142        0.2874  -20.4996  -47.4297 H         1 UNK         0.0800 
    143 H143        1.7686  -23.1047  -48.0744 H         1 UNK         0.0600 
    144 H144        1.4695  -21.6955  -45.5809 H         1 UNK         0.3000 
    145 H145        1.2439  -23.3392  -43.4117 H         1 UNK         0.0600 
    146 H146        3.0707  -24.5740  -42.2322 H         1 UNK         0.0600 
    147 H147        2.1934  -25.6082  -43.3475 H         1 UNK         0.0600 
    148 H148        3.7863  -25.0077  -43.7845 H         1 UNK         0.0600 
    149 H149        2.5245  -21.5817  -43.1350 H         1 UNK         0.3000 
    150 H150        5.8204  -20.8085  -43.3799 H         1 UNK         0.0600 
    151 H151        5.4740  -20.2307  -45.8031 H         1 UNK         0.0600 
    152 H152        5.4340  -18.8065  -44.7739 H         1 UNK         0.0600 
    153 H153        3.9329  -19.4858  -45.3949 H         1 UNK         0.0600 
    154 H154        3.4862  -19.1377  -43.0611 H         1 UNK         0.3000 
    155 H155        2.8434  -20.0330  -39.6640 H         1 UNK         0.0600 
    156 H156        4.5929  -18.2526  -39.5768 H         1 UNK         0.0600 
    157 H157        2.9805  -17.5737  -39.4135 H         1 UNK         0.0600 
    158 H158        3.8449  -17.4343  -40.9427 H         1 UNK         0.0600 
    159 H159        1.5162  -18.2188  -41.3965 H         1 UNK         0.3000 
    160 H160       -0.7584  -20.5970  -42.8634 H         1 UNK         0.0600 
    161 H161       -1.0980  -18.2559  -40.9167 H         1 UNK         0.0600 
    162 H162       -1.6743  -19.8961  -40.6473 H         1 UNK         0.0600 
    163 H163       -2.3480  -18.9363  -41.9548 H         1 UNK         0.0600 
    164 H164       -0.4682  -17.8043  -43.2904 H         1 UNK         0.3000 
    165 H165        1.9007  -18.0226  -45.9940 H         1 UNK         0.0600 
    166 H166        0.0915  -16.6391  -47.0215 H         1 UNK         0.0600 
    167 H167       -0.3420  -18.3374  -47.0133 H         1 UNK         0.0600 
    168 H168       -1.0606  -17.2452  -45.8379 H         1 UNK         0.0600 
    169 H169        0.7054  -15.7611  -44.7870 H         1 UNK         0.3000 
    170 H170        3.0877  -15.2662  -42.1569 H         1 UNK         0.0600 
    171 H171        4.0235  -14.2183  -44.1997 H         1 UNK         0.0600 
    172 H172        2.4182  -13.7553  -44.7417 H         1 UNK         0.0600 
    173 H173        3.0971  -13.0439  -43.2788 H         1 UNK         0.0600 
    174 H174        0.6447  -13.9621  -42.9828 H         1 UNK         0.3000 
    175 H175       -1.5048  -15.6999  -40.7301 H         1 UNK         0.0600 
    176 H176       -0.3725  -13.9757  -39.3196 H         1 UNK         0.0600 
    177 H177       -0.4086  -12.8357  -40.6596 H         1 UNK         0.0600 
    178 H178       -1.9135  -13.3914  -39.9262 H         1 UNK         0.0600 
    179 H179       -1.9052  -13.4964  -42.5193 H         1 UNK         0.3000 
    180 H180       -2.6566  -15.4024  -45.4292 H         1 UNK         0.0600 
    181 H181       -4.7666  -15.4717  -44.0911 H         1 UNK         0.0600 
    182 H182       -4.5027  -13.8122  -43.5689 H         1 UNK         0.0600 
    183 H183       -4.7969  -14.1714  -45.2708 H         1 UNK         0.0600 
    184 H184       -2.8157  -12.6238  -44.9930 H         1 UNK         0.3000 
    185 H185       -1.3145  -11.3117  -46.1851 H         1 UNK         0.0600 
    186 H186       -0.9264  -11.0431  -43.7195 H         1 UNK         0.0600 
    187 H187        0.7473  -11.5497  -43.9157 H         1 UNK         0.0600 
    188 H188        0.1841  -10.0447  -44.6409 H         1 UNK         0.0600 
    189 H189        1.5389  -11.4901  -46.2378 H         1 UNK         0.3000 
    190 H190        0.1984  -24.0244  -49.3965 H         1 UNK         0.3000 
    191 H191       -2.0967  -25.2192  -48.2866 H         1 UNK         0.0600 
    192 H192       -1.3954  -24.6710  -51.2254 H         1 UNK         0.0600 
    193 H193       -2.6103  -25.8120  -50.6620 H         1 UNK         0.0600 
    194 H194       -0.9165  -26.0897  -50.2930 H         1 UNK         0.0600 
    195 H195       -1.7190  -22.1379  -49.9815 H         1 UNK         0.3000 
    196 H196       -4.4266  -21.5430  -50.4957 H         1 UNK         0.0600 
    197 H197       -3.5735  -19.2209  -50.8008 H         1 UNK         0.0600 
    198 H198       -2.5007  -20.3804  -51.5627 H         1 UNK         0.0600 
    199 H199       -2.0537  -19.6512  -50.0206 H         1 UNK         0.0600 
    200 H200       -2.5661  -21.2356  -47.4968 H         1 UNK         0.3000 
    201 H201       -4.4207  -19.4341  -46.1784 H         1 UNK         0.0600 
    202 H202       -3.0641  -19.9407  -44.1747 H         1 UNK         0.0600 
    203 H203       -2.2321  -21.2402  -45.0193 H         1 UNK         0.0600 
    204 H204       -2.0232  -19.5690  -45.5370 H         1 UNK         0.0600 
    205 H205       -4.0947  -22.9376  -46.5327 H         1 UNK         0.3000 
    206 H206       -6.1430  -23.5741  -44.5280 H         1 UNK         0.0600 
    207 H207       -4.2204  -25.1026  -44.8656 H         1 UNK         0.0600 
    208 H208       -5.7250  -25.9082  -45.2833 H         1 UNK         0.0600 
    209 H209       -4.6587  -25.3292  -46.5572 H         1 UNK         0.0600 
    210 H210       -5.7944  -23.6031  -48.1059 H         1 UNK         0.3000 
    211 H211       -8.4291  -24.6000  -48.6115 H         1 UNK         0.0600 
    212 H212       -7.7959  -24.1722  -50.9834 H         1 UNK         0.0600 
    213 H213       -6.4713  -24.9470  -50.1262 H         1 UNK         0.0600 
    214 H214       -6.4155  -23.2155  -50.4575 H         1 UNK         0.0600 
    215 H215       -7.1742  -21.3471  -48.2607 H         1 UNK         0.3000 
    216 H216       -7.9922  -19.3244  -48.2160 H         1 UNK         0.0600 
    217 H217      -10.3752  -18.7670  -48.1654 H         1 UNK         0.0600 
    218 H218      -10.0856  -20.1526  -47.1243 H         1 UNK         0.0600 
    219 H219      -10.8266  -20.3723  -48.7104 H         1 UNK         0.0600 
    220 H220       -8.9307  -21.3424  -50.9058 H         1 UNK         0.3000 
    221 H221       -8.9501  -19.2886  -52.9624 H         1 UNK         0.0600 
    222 H222       -8.5519  -22.3368  -53.1022 H         1 UNK         0.0600 
    223 H223      -10.1063  -21.5122  -53.2049 H         1 UNK         0.0600 
    224 H224       -8.9113  -21.2872  -54.4685 H         1 UNK         0.0600 
    225 H225       -7.2994  -19.5611  -54.8178 H         1 UNK         0.3000 
    226 H226       -4.7499  -18.7667  -53.9485 H         1 UNK         0.0600 
    227 H227       -4.1916  -18.8305  -56.3777 H         1 UNK         0.0600 
    228 H228       -5.6461  -19.7592  -56.7069 H         1 UNK         0.0600 
    229 H229       -5.7645  -18.1004  -56.1161 H         1 UNK         0.0600 
    230 H230       -5.8890  -21.9656  -54.8818 H         1 UNK         0.3000 
    231 H231       -5.0777  -24.0301  -54.7966 H         1 UNK         0.0600 
    232 H232       -5.1656  -23.5503  -52.4007 H         1 UNK         0.0600 
    233 H233       -3.5474  -22.8691  -52.4070 H         1 UNK         0.0600 
    234 H234       -3.7873  -24.5886  -52.7131 H         1 UNK         0.0600 
    235 H235       -1.9533  -23.0438  -53.5836 H         1 UNK         0.3000 
    236 H236       -0.4961  -24.4308  -55.6533 H         1 UNK         0.0600 
    237 H237        0.2817  -24.3647  -53.2928 H         1 UNK         0.0600 
    238 H238        1.4810  -23.6312  -54.3452 H         1 UNK         0.0600 
    239 H239        0.4368  -22.6083  -53.3663 H         1 UNK         0.0600 
    240 H240       -1.5369  -21.1012  -55.1838 H         1 UNK         0.3000 
    241 H241        0.3379  -19.9810  -57.1533 H         1 UNK         0.0600 
    242 H242       -0.2569  -19.2627  -59.2841 H         1 UNK         0.3800 
    243 H243       -1.7703  -19.7329  -60.0033 H         1 UNK         0.3800 
    244 H244       -0.9766  -17.8525  -56.7361 H         1 UNK         0.0800 
    245 H245       -1.9508  -18.7027  -55.5700 H         1 UNK         0.0800 
    246 H246       -0.7005  -19.8769  -53.2536 H         1 UNK         0.0800 
    247 H247       -1.5099  -18.3268  -53.1999 H         1 UNK         0.0800 
@<TRIPOS>BOND
     1    1    2 1    
     2    1  127 1    
     3    1  128 1    
     4    1  129 1    
     5    2    3 2    
     6    2    4 am   BACKBONE|DICT|INTERRES
     7    4    5 1    
     8    4  130 1    
     9    5    6 1    
    10    5   65 1    
    11    5  131 1    
    12    6    7 1    
    13    6  132 1    
    14    6  133 1    
    15    7    8 1    
    16    8    9 1    
    17    8  134 1    
    18    8  135 1    
    19    9   10 ar   
    20    9   14 ar   
    21   10   11 ar   
    22   10  136 1    
    23   11   12 ar   
    24   11  126 1    
    25   12   13 ar   
    26   12  137 1    
    27   13   14 ar   
    28   13   15 1    
    29   14  138 1    
    30   15   16 1    
    31   15  139 1    
    32   15  140 1    
    33   16   17 1    
    34   17   18 1    
    35   17  141 1    
    36   17  142 1    
    37   18   19 1    
    38   18   67 1    
    39   18  143 1    
    40   19   20 am   BACKBONE|DICT|INTERRES
    41   19  144 1    
    42   20   21 2    
    43   20   22 1    
    44   22   23 1    
    45   22   24 1    
    46   22  145 1    
    47   23  146 1    
    48   23  147 1    
    49   23  148 1    
    50   24   25 am   BACKBONE|DICT|INTERRES
    51   24  149 1    
    52   25   26 2    
    53   25   27 1    
    54   27   28 1    
    55   27   29 1    
    56   27  150 1    
    57   28  151 1    
    58   28  152 1    
    59   28  153 1    
    60   29   30 am   BACKBONE|DICT|INTERRES
    61   29  154 1    
    62   30   31 2    
    63   30   32 1    
    64   32   33 1    
    65   32   34 1    
    66   32  155 1    
    67   33  156 1    
    68   33  157 1    
    69   33  158 1    
    70   34   35 am   BACKBONE|DICT|INTERRES
    71   34  159 1    
    72   35   36 2    
    73   35   37 1    
    74   37   38 1    
    75   37   39 1    
    76   37  160 1    
    77   38  161 1    
    78   38  162 1    
    79   38  163 1    
    80   39   40 am   BACKBONE|DICT|INTERRES
    81   39  164 1    
    82   40   41 2    
    83   40   42 1    
    84   42   43 1    
    85   42   44 1    
    86   42  165 1    
    87   43  166 1    
    88   43  167 1    
    89   43  168 1    
    90   44   45 am   BACKBONE|DICT|INTERRES
    91   44  169 1    
    92   45   46 2    
    93   45   47 1    
    94   47   48 1    
    95   47   49 1    
    96   47  170 1    
    97   48  171 1    
    98   48  172 1    
    99   48  173 1    
   100   49   50 am   BACKBONE|DICT|INTERRES
   101   49  174 1    
   102   50   51 2    
   103   50   52 1    
   104   52   53 1    
   105   52   54 1    
   106   52  175 1    
   107   53  176 1    
   108   53  177 1    
   109   53  178 1    
   110   54   55 am   BACKBONE|DICT|INTERRES
   111   54  179 1    
   112   55   56 2    
   113   55   57 1    
   114   57   58 1    
   115   57   59 1    
   116   57  180 1    
   117   58  181 1    
   118   58  182 1    
   119   58  183 1    
   120   59   60 am   BACKBONE|DICT|INTERRES
   121   59  184 1    
   122   60   61 2    
   123   60   62 1    
   124   62   63 1    
   125   62   64 1    
   126   62  185 1    
   127   63  186 1    
   128   63  187 1    
   129   63  188 1    
   130   64   65 am   BACKBONE|DICT|INTERRES
   131   64  189 1    
   132   65   66 2    
   133   67   68 2    
   134   67   69 am   BACKBONE|DICT|INTERRES
   135   69   70 1    
   136   69  190 1    
   137   70   71 1    
   138   70   72 1    
   139   70  191 1    
   140   71  192 1    
   141   71  193 1    
   142   71  194 1    
   143   72   73 2    
   144   72   74 am   BACKBONE|DICT|INTERRES
   145   74   75 1    
   146   74  195 1    
   147   75   76 1    
   148   75   77 1    
   149   75  196 1    
   150   76  197 1    
   151   76  198 1    
   152   76  199 1    
   153   77   78 2    
   154   77   79 am   BACKBONE|DICT|INTERRES
   155   79   80 1    
   156   79  200 1    
   157   80   81 1    
   158   80   82 1    
   159   80  201 1    
   160   81  202 1    
   161   81  203 1    
   162   81  204 1    
   163   82   83 2    
   164   82   84 am   BACKBONE|DICT|INTERRES
   165   84   85 1    
   166   84  205 1    
   167   85   86 1    
   168   85   87 1    
   169   85  206 1    
   170   86  207 1    
   171   86  208 1    
   172   86  209 1    
   173   87   88 2    
   174   87   89 am   BACKBONE|DICT|INTERRES
   175   89   90 1    
   176   89  210 1    
   177   90   91 1    
   178   90   92 1    
   179   90  211 1    
   180   91  212 1    
   181   91  213 1    
   182   91  214 1    
   183   92   93 2    
   184   92   94 am   BACKBONE|DICT|INTERRES
   185   94   95 1    
   186   94  215 1    
   187   95   96 1    
   188   95   97 1    
   189   95  216 1    
   190   96  217 1    
   191   96  218 1    
   192   96  219 1    
   193   97   98 2    
   194   97   99 am   BACKBONE|DICT|INTERRES
   195   99  100 1    
   196   99  220 1    
   197  100  101 1    
   198  100  102 1    
   199  100  221 1    
   200  101  222 1    
   201  101  223 1    
   202  101  224 1    
   203  102  103 2    
   204  102  104 am   BACKBONE|DICT|INTERRES
   205  104  105 1    
   206  104  225 1    
   207  105  106 1    
   208  105  107 1    
   209  105  226 1    
   210  106  227 1    
   211  106  228 1    
   212  106  229 1    
   213  107  108 2    
   214  107  109 am   BACKBONE|DICT|INTERRES
   215  109  110 1    
   216  109  230 1    
   217  110  111 1    
   218  110  112 1    
   219  110  231 1    
   220  111  232 1    
   221  111  233 1    
   222  111  234 1    
   223  112  113 2    
   224  112  114 am   BACKBONE|DICT|INTERRES
   225  114  115 1    
   226  114  235 1    
   227  115  116 1    
   228  115  117 1    
   229  115  236 1    
   230  116  237 1    
   231  116  238 1    
   232  116  239 1    
   233  117  118 2    
   234  117  119 am   BACKBONE|DICT|INTERRES
   235  119  120 1    
   236  119  240 1    
   237  120  121 1    
   238  120  124 1    
   239  120  241 1    
   240  121  122 am   BACKBONE|DICT|INTERRES
   241  121  123 2    
   242  122  242 1    
   243  122  243 1    
   244  124  125 1    
   245  124  244 1    
   246  124  245 1    
   247  125  126 1    
   248  126  246 1    
   249  126  247 1    
@<TRIPOS>SUBSTRUCTURE
     1 UNK         1 GROUP             0       ****    0 ROOT    
