@<TRIPOS>MOLECULE
3R540
247   249    1
SMALL
USER_CHARGES


@<TRIPOS>ATOM
      1 CA          4.5383   -8.0906  -49.8489 C.3       0 UNK        -0.1800 
      2 C           4.3694   -9.5554  -49.4712 C.2       0 UNK         0.5000 
      3 O           5.1979  -10.3858  -49.8471 O.2       0 UNK        -0.5000 
      4 N           3.3008   -9.8785  -48.7320 N.am      1 UNK        -0.5000 
      5 CA          2.9980  -11.2210  -48.2334 C.3       1 UNK         0.1400 
      6 C6          1.4833  -11.3924  -47.9556 C.3       23 UNK        -0.0398 
      7 S7          1.0038  -13.1341  -47.6797 S.3       23 UNK        -0.2404 
      8 C8          0.3863  -13.5927  -49.3261 C.3       23 UNK        -0.0205 
      9 C9         -0.2717  -14.9619  -49.2982 C.ar      23 UNK        -0.0193 
     10 C10        -1.6422  -15.0729  -49.0432 C.ar      23 UNK        -0.1150 
     11 C11        -2.2612  -16.3257  -49.0203 C.ar      23 UNK        -0.0193 
     12 C12        -1.4942  -17.4711  -49.2473 C.ar      23 UNK        -0.1150 
     13 C13        -0.1255  -17.3740  -49.5076 C.ar      23 UNK        -0.0193 
     14 C14         0.4827  -16.1158  -49.5325 C.ar      23 UNK        -0.1150 
     15 C15         0.6847  -18.6335  -49.7713 C.3       23 UNK        -0.0205 
     16 S16         1.7428  -19.1011  -48.3644 S.3       23 UNK        -0.2404 
     17 C17         0.5691  -19.2187  -46.9695 C.3       23 UNK        -0.0398 
     18 CA          0.0176  -20.6487  -46.7674 C.3       11 UNK         0.1400 
     19 N          -0.2744  -20.9210  -45.3605 N.am      11 UNK        -0.5000 
     20 C          -0.5565  -22.1327  -44.8640 C.2       10 UNK         0.5000 
     21 O          -0.5319  -23.1685  -45.5281 O.2       10 UNK        -0.5000 
     22 CA         -0.9949  -22.1788  -43.3910 C.3       10 UNK         0.1400 
     23 CB          0.2250  -22.2140  -42.4596 C.3       10 UNK        -0.1800 
     24 N          -1.8496  -21.0390  -43.0508 N.am      10 UNK        -0.5000 
     25 C          -3.1026  -20.8859  -43.5042 C.2       9 UNK         0.5000 
     26 O          -3.6781  -21.7191  -44.2031 O.2       9 UNK        -0.5000 
     27 CA         -3.8163  -19.5665  -43.1560 C.3       9 UNK         0.1400 
     28 CB         -4.4912  -19.6659  -41.7802 C.3       9 UNK        -0.1800 
     29 N          -2.9186  -18.4101  -43.1720 N.am      9 UNK        -0.5000 
     30 C          -2.3136  -17.9239  -44.2661 C.2       8 UNK         0.5000 
     31 O          -2.4715  -18.3850  -45.3943 O.2       8 UNK        -0.5000 
     32 CA         -1.3252  -16.7613  -44.0553 C.3       8 UNK         0.1400 
     33 CB         -2.0442  -15.4113  -44.1943 C.3       8 UNK        -0.1800 
     34 N          -0.6427  -16.8325  -42.7586 N.am      8 UNK        -0.5000 
     35 C           0.2152  -17.8056  -42.4247 C.2       7 UNK         0.5000 
     36 O           0.5434  -18.7149  -43.1912 O.2       7 UNK        -0.5000 
     37 CA          0.7590  -17.7893  -40.9907 C.3       7 UNK         0.1400 
     38 CB          0.4375  -19.1284  -40.2915 C.3       7 UNK        -0.1800 
     39 N           2.1934  -17.5242  -41.0530 N.am      7 UNK        -0.5000 
     40 C           3.0512  -17.4761  -40.0254 C.2       6 UNK         0.5000 
     41 O           2.7418  -17.6737  -38.8500 O.2       6 UNK        -0.5000 
     42 CA          4.4987  -17.0888  -40.3667 C.3       6 UNK         0.1400 
     43 CB          5.1254  -18.0323  -41.4087 C.3       6 UNK        -0.1800 
     44 N           4.5282  -15.7140  -40.8564 N.am      6 UNK        -0.5000 
     45 C           4.6090  -14.6311  -40.0693 C.2       5 UNK         0.5000 
     46 O           4.8067  -14.6805  -38.8547 O.2       5 UNK        -0.5000 
     47 CA          4.4236  -13.2571  -40.7435 C.3       5 UNK         0.1400 
     48 CB          5.7849  -12.6250  -41.0697 C.3       5 UNK        -0.1800 
     49 N           3.6165  -13.3329  -41.9623 N.am      5 UNK        -0.5000 
     50 C           2.2928  -13.5530  -41.9774 C.2       4 UNK         0.5000 
     51 O           1.6028  -13.6306  -40.9606 O.2       4 UNK        -0.5000 
     52 CA          1.6249  -13.7542  -43.3508 C.3       4 UNK         0.1400 
     53 CB          0.9195  -12.4685  -43.8053 C.3       4 UNK        -0.1800 
     54 N           2.5497  -14.2045  -44.3929 N.am      4 UNK        -0.5000 
     55 C           3.1577  -15.4004  -44.3993 C.2       3 UNK         0.5000 
     56 O           2.9971  -16.2461  -43.5195 O.2       3 UNK        -0.5000 
     57 CA          4.1406  -15.6928  -45.5476 C.3       3 UNK         0.1400 
     58 CB          3.4280  -16.4607  -46.6664 C.3       3 UNK        -0.1800 
     59 N           4.7636  -14.4958  -46.1120 N.am      3 UNK        -0.5000 
     60 C           5.5795  -13.6614  -45.4516 C.2       2 UNK         0.5000 
     61 O           5.9165  -13.8242  -44.2793 O.2       2 UNK        -0.5000 
     62 CA          6.0609  -12.4135  -46.2190 C.3       2 UNK         0.1400 
     63 CB          7.4283  -12.6728  -46.8680 C.3       2 UNK        -0.1800 
     64 N           5.1145  -11.9743  -47.2492 N.am      2 UNK        -0.5000 
     65 C           3.8748  -11.5316  -47.0024 C.2       1 UNK         0.5000 
     66 O           3.4280  -11.3723  -45.8657 O.2       1 UNK        -0.5000 
     67 C          -1.2054  -20.9402  -47.6646 C.2       11 UNK         0.5000 
     68 O          -1.0543  -21.5862  -48.6997 O.2       11 UNK        -0.5000 
     69 N          -2.4030  -20.5194  -47.2291 N.am      12 UNK        -0.5000 
     70 CA         -3.6803  -20.8144  -47.8829 C.3       12 UNK         0.1400 
     71 CB         -4.8209  -20.0678  -47.1764 C.3       12 UNK        -0.1800 
     72 C          -3.9839  -22.3219  -47.9405 C.2       12 UNK         0.5000 
     73 O          -4.4402  -22.8028  -48.9752 O.2       12 UNK        -0.5000 
     74 N          -3.6917  -23.0444  -46.8496 N.am      13 UNK        -0.5000 
     75 CA         -3.8168  -24.5003  -46.7657 C.3       13 UNK         0.1400 
     76 CB         -3.6335  -24.9546  -45.3101 C.3       13 UNK        -0.1800 
     77 C          -2.8427  -25.2408  -47.7018 C.2       13 UNK         0.5000 
     78 O          -3.2275  -26.2463  -48.2965 O.2       13 UNK        -0.5000 
     79 N          -1.6161  -24.7213  -47.8501 N.am      14 UNK        -0.5000 
     80 CA         -0.6226  -25.2196  -48.8051 C.3       14 UNK         0.1400 
     81 CB          0.7525  -24.6202  -48.4733 C.3       14 UNK        -0.1800 
     82 C          -1.0115  -24.9299  -50.2695 C.2       14 UNK         0.5000 
     83 O          -0.7477  -25.7534  -51.1454 O.2       14 UNK        -0.5000 
     84 N          -1.6489  -23.7754  -50.5015 N.am      15 UNK        -0.5000 
     85 CA         -2.1565  -23.3218  -51.7966 C.3       15 UNK         0.1400 
     86 CB         -2.3040  -21.7922  -51.7537 C.3       15 UNK        -0.1800 
     87 C          -3.4816  -23.9877  -52.2225 C.2       15 UNK         0.5000 
     88 O          -3.9343  -23.7508  -53.3457 O.2       15 UNK        -0.5000 
     89 N          -4.1037  -24.7860  -51.3433 N.am      16 UNK        -0.5000 
     90 CA         -5.3237  -25.5454  -51.6211 C.3       16 UNK         0.1400 
     91 CB         -5.8035  -26.2435  -50.3420 C.3       16 UNK        -0.1800 
     92 C          -5.1065  -26.5612  -52.7558 C.2       16 UNK         0.5000 
     93 O          -4.0612  -27.2134  -52.8002 O.2       16 UNK        -0.5000 
     94 N          -6.0763  -26.6319  -53.6778 N.am      17 UNK        -0.5000 
     95 CA         -6.0923  -27.3913  -54.9389 C.3       17 UNK         0.1400 
     96 CB         -5.9649  -28.9066  -54.6917 C.3       17 UNK        -0.1800 
     97 C          -5.0711  -26.9098  -55.9938 C.2       17 UNK         0.5000 
     98 O          -5.4082  -26.8719  -57.1770 O.2       17 UNK        -0.5000 
     99 N          -3.8628  -26.5308  -55.5585 N.am      18 UNK        -0.5000 
    100 CA        -2.7747  -26.0091  -56.3859 C.3       18 UNK         0.1400 
    101 CB        -1.4935  -25.9295  -55.5405 C.3       18 UNK        -0.1800 
    102 C         -3.1041  -24.6399  -57.0071 C.2       18 UNK         0.5000 
    103 O         -2.8910  -24.4478  -58.2049 O.2       18 UNK        -0.5000 
    104 N         -3.6344  -23.7285  -56.1832 N.am      19 UNK        -0.5000 
    105 CA        -4.0739  -22.3865  -56.5712 C.3       19 UNK         0.1400 
    106 CB        -3.0462  -21.3604  -56.0641 C.3       19 UNK        -0.1800 
    107 C         -5.4932  -22.0828  -56.0501 C.2       19 UNK         0.5000 
    108 O         -5.9313  -20.9349  -56.1258 O.2       19 UNK        -0.5000 
    109 N         -6.1833  -23.1148  -55.5384 N.am      20 UNK        -0.5000 
    110 CA        -7.5295  -23.0921  -54.9536 C.3       20 UNK         0.1400 
    111 CB        -8.5870  -22.6964  -56.0057 C.3       20 UNK        -0.1800 
    112 C         -7.6283  -22.2665  -53.6510 C.2       20 UNK         0.5000 
    113 O         -8.6927  -21.7220  -53.3510 O.2       20 UNK        -0.5000 
    114 N         -6.5273  -22.2271  -52.8846 N.am      21 UNK        -0.5000 
    115 CA        -6.3696  -21.5377  -51.5985 C.3       21 UNK         0.1400 
    116 CB        -7.2542  -22.1978  -50.5138 C.3       21 UNK        -0.1800 
    117 C         -6.5582  -20.0070  -51.7101 C.2       21 UNK         0.5000 
    118 O         -6.2392  -19.4277  -52.7505 O.2       21 UNK        -0.5000 
    119 N         -7.0440  -19.3811  -50.6316 N.am      22 UNK        -0.5000 
    120 CA        -7.3129  -17.9355  -50.5199 C.3       22 UNK         0.1400 
    121 C         -8.8028  -17.6264  -50.1864 C.2       22 UNK         0.5000 
    122 N         -9.7168  -18.5867  -50.2661 N.am      22 UNK        -0.7600 
    123 O         -9.1471  -16.4921  -49.8655 O.2       22 UNK        -0.5000 
    124 C124       -6.3388  -17.2442  -49.5265 C.3       23 UNK        -0.0398 
    125 S125       -4.6070  -17.3392  -50.0840 S.3       23 UNK        -0.2404 
    126 C126       -3.7533  -16.4456  -48.7465 C.3       23 UNK        -0.0205 
    127 H127        5.4810   -7.7089  -49.4568 H         1 UNK         0.0600 
    128 H128        3.7307   -7.4738  -49.4538 H         1 UNK         0.0600 
    129 H129        4.5498   -7.9819  -50.9334 H         1 UNK         0.0600 
    130 H130        2.6727   -9.1470  -48.4300 H         1 UNK         0.3000 
    131 H131        3.2599  -11.9368  -49.0162 H         1 UNK         0.0600 
    132 H132        1.1723  -10.8036  -47.0907 H         1 UNK         0.0800 
    133 H133        0.9074  -11.0015  -48.7954 H         1 UNK         0.0800 
    134 H134       -0.3319  -12.8476  -49.6717 H         1 UNK         0.0800 
    135 H135        1.2111  -13.5838  -50.0403 H         1 UNK         0.0800 
    136 H136       -2.2253  -14.1808  -48.8623 H         1 UNK         0.1150 
    137 H137       -1.9706  -18.4408  -49.2293 H         1 UNK         0.1150 
    138 H138        1.5429  -16.0367  -49.7282 H         1 UNK         0.1150 
    139 H139        0.0297  -19.4681  -50.0241 H         1 UNK         0.0800 
    140 H140        1.3171  -18.4753  -50.6459 H         1 UNK         0.0800 
    141 H141       -0.2272  -18.4789  -47.0472 H         1 UNK         0.0800 
    142 H142        1.1359  -18.9227  -46.0856 H         1 UNK         0.0800 
    143 H143        0.7993  -21.3564  -47.0532 H         1 UNK         0.0600 
    144 H144       -0.2872  -20.1269  -44.7326 H         1 UNK         0.3000 
    145 H145       -1.5671  -23.0961  -43.2364 H         1 UNK         0.0600 
    146 H146       -0.0761  -22.2399  -41.4123 H         1 UNK         0.0600 
    147 H147        0.8284  -23.1031  -42.6466 H         1 UNK         0.0600 
    148 H148        0.8702  -21.3476  -42.6056 H         1 UNK         0.0600 
    149 H149       -1.4279  -20.2952  -42.5159 H         1 UNK         0.3000 
    150 H150       -4.5925  -19.4006  -43.9059 H         1 UNK         0.0600 
    151 H151       -5.1822  -20.5093  -41.7450 H         1 UNK         0.0600 
    152 H152       -5.0666  -18.7672  -41.5574 H         1 UNK         0.0600 
    153 H153       -3.7620  -19.8053  -40.9811 H         1 UNK         0.0600 
    154 H154       -2.7376  -17.9636  -42.2856 H         1 UNK         0.3000 
    155 H155       -0.5687  -16.8247  -44.8410 H         1 UNK         0.0600 
    156 H156       -2.7928  -15.2695  -43.4140 H         1 UNK         0.0600 
    157 H157       -1.3431  -14.5792  -44.1437 H         1 UNK         0.0600 
    158 H158       -2.5545  -15.3410  -45.1562 H         1 UNK         0.0600 
    159 H159       -0.8750  -16.1199  -42.0816 H         1 UNK         0.3000 
    160 H160        0.2843  -16.9775  -40.4365 H         1 UNK         0.0600 
    161 H161        1.0610  -19.9378  -40.6708 H         1 UNK         0.0600 
    162 H162       -0.6044  -19.4143  -40.4411 H         1 UNK         0.0600 
    163 H163        0.5916  -19.0674  -39.2148 H         1 UNK         0.0600 
    164 H164        2.5362  -17.2949  -41.9843 H         1 UNK         0.3000 
    165 H165        5.0940  -17.1673  -39.4542 H         1 UNK         0.0600 
    166 H166        6.1713  -17.7798  -41.5834 H         1 UNK         0.0600 
    167 H167        5.0948  -19.0661  -41.0627 H         1 UNK         0.0600 
    168 H168        4.6120  -17.9942  -42.3691 H         1 UNK         0.0600 
    169 H169        4.3116  -15.5834  -41.8355 H         1 UNK         0.3000 
    170 H170        3.9099  -12.6053  -40.0336 H         1 UNK         0.0600 
    171 H171        6.3674  -12.4688  -40.1610 H         1 UNK         0.0600 
    172 H172        6.3767  -13.2595  -41.7297 H         1 UNK         0.0600 
    173 H173        5.6670  -11.6542  -41.5515 H         1 UNK         0.0600 
    174 H174        4.1174  -13.2981  -42.8408 H         1 UNK         0.3000 
    175 H175        0.8682  -14.5292  -43.2272 H         1 UNK         0.0600 
    176 H176        0.1774  -12.1514  -43.0717 H         1 UNK         0.0600 
    177 H177        1.6238  -11.6463  -43.9332 H         1 UNK         0.0600 
    178 H178        0.3966  -12.6156  -44.7498 H         1 UNK         0.0600 
    179 H179        2.7538  -13.5443  -45.1315 H         1 UNK         0.3000 
    180 H180        4.9347  -16.3260  -45.1467 H         1 UNK         0.0600 
    181 H181        2.6149  -15.8807  -47.1053 H         1 UNK         0.0600 
    182 H182        3.0001  -17.3844  -46.2775 H         1 UNK         0.0600 
    183 H183        4.1171  -16.7352  -47.4651 H         1 UNK         0.0600 
    184 H184        4.5401  -14.2808  -47.0722 H         1 UNK         0.3000 
    185 H185        6.1719  -11.6040  -45.4945 H         1 UNK         0.0600 
    186 H186        8.1632  -12.9775  -46.1216 H         1 UNK         0.0600 
    187 H187        7.3749  -13.4625  -47.6184 H         1 UNK         0.0600 
    188 H188        7.8116  -11.7744  -47.3523 H         1 UNK         0.0600 
    189 H189        5.4346  -11.9998  -48.2092 H         1 UNK         0.3000 
    190 H190       -2.4433  -19.9239  -46.4052 H         1 UNK         0.3000 
    191 H191       -3.6189  -20.4418  -48.9069 H         1 UNK         0.0600 
    192 H192       -4.9742  -20.4297  -46.1604 H         1 UNK         0.0600 
    193 H193       -5.7605  -20.1968  -47.7144 H         1 UNK         0.0600 
    194 H194       -4.6227  -18.9997  -47.1200 H         1 UNK         0.0600 
    195 H195       -3.3842  -22.5626  -46.0111 H         1 UNK         0.3000 
    196 H196       -4.8311  -24.7625  -47.0742 H         1 UNK         0.0600 
    197 H197       -3.7674  -26.0331  -45.2191 H         1 UNK         0.0600 
    198 H198       -4.3631  -24.4795  -44.6541 H         1 UNK         0.0600 
    199 H199       -2.6395  -24.7152  -44.9335 H         1 UNK         0.0600 
    200 H200       -1.3483  -23.9268  -47.2793 H         1 UNK         0.3000 
    201 H201       -0.5542  -26.3033  -48.6884 H         1 UNK         0.0600 
    202 H202        1.0512  -24.8604  -47.4527 H         1 UNK         0.0600 
    203 H203        0.7575  -23.5351  -48.5753 H         1 UNK         0.0600 
    204 H204        1.5204  -25.0151  -49.1395 H         1 UNK         0.0600 
    205 H205       -1.7518  -23.1241  -49.7292 H         1 UNK         0.3000 
    206 H206       -1.4196  -23.5677  -52.5636 H         1 UNK         0.0600 
    207 H207       -1.3414  -21.3103  -51.5821 H         1 UNK         0.0600 
    208 H208       -2.6999  -21.4000  -52.6897 H         1 UNK         0.0600 
    209 H209       -2.9771  -21.4769  -50.9580 H         1 UNK         0.0600 
    210 H210       -3.6822  -24.9195  -50.4350 H         1 UNK         0.3000 
    211 H211       -6.0903  -24.8345  -51.9298 H         1 UNK         0.0600 
    212 H212       -5.1024  -27.0139  -50.0196 H         1 UNK         0.0600 
    213 H213       -6.7686  -26.7259  -50.5001 H         1 UNK         0.0600 
    214 H214       -5.9231  -25.5323  -49.5241 H         1 UNK         0.0600 
    215 H215       -6.8988  -26.0662  -53.5272 H         1 UNK         0.3000 
    216 H216       -7.0804  -27.2178  -55.3683 H         1 UNK         0.0600 
    217 H217       -6.1072  -29.4631  -55.6188 H         1 UNK         0.0600 
    218 H218       -6.7175  -29.2555  -53.9847 H         1 UNK         0.0600 
    219 H219       -4.9844  -29.1781  -54.3001 H         1 UNK         0.0600 
    220 H220       -3.6758  -26.6397  -54.5656 H         1 UNK         0.3000 
    221 H221       -2.6033  -26.7146  -57.2014 H         1 UNK         0.0600 
    222 H222       -1.6176  -25.2728  -54.6784 H         1 UNK         0.0600 
    223 H223       -1.2053  -26.9134  -55.1700 H         1 UNK         0.0600 
    224 H224       -0.6591  -25.5465  -56.1293 H         1 UNK         0.0600 
    225 H225       -3.7260  -23.9462  -55.1932 H         1 UNK         0.3000 
    226 H226       -4.1292  -22.3075  -57.6586 H         1 UNK         0.0600 
    227 H227       -2.0521  -21.5707  -56.4587 H         1 UNK         0.0600 
    228 H228       -3.3105  -20.3488  -56.3742 H         1 UNK         0.0600 
    229 H229       -2.9834  -21.3662  -54.9768 H         1 UNK         0.0600 
    230 H230       -5.7221  -24.0121  -55.5436 H         1 UNK         0.3000 
    231 H231       -7.7420  -24.1211  -54.6622 H         1 UNK         0.0600 
    232 H232       -9.5965  -22.8449  -55.6207 H         1 UNK         0.0600 
    233 H233       -8.4934  -23.3025  -56.9068 H         1 UNK         0.0600 
    234 H234       -8.5008  -21.6487  -56.2946 H         1 UNK         0.0600 
    235 H235       -5.6883  -22.6703  -53.2421 H         1 UNK         0.3000 
    236 H236       -5.3308  -21.6867  -51.3066 H         1 UNK         0.0600 
    237 H237       -8.3161  -22.0225  -50.6874 H         1 UNK         0.0600 
    238 H238       -7.0979  -23.2750  -50.4814 H         1 UNK         0.0600 
    239 H239       -7.0127  -21.8240  -49.5186 H         1 UNK         0.0600 
    240 H240       -7.2871  -19.9313  -49.8212 H         1 UNK         0.3000 
    241 H241       -7.1633  -17.4670  -51.4941 H         1 UNK         0.0600 
    242 H242      -10.6785  -18.3707  -50.0540 H         1 UNK         0.3800 
    243 H243       -9.4719  -19.5103  -50.5853 H         1 UNK         0.3800 
    244 H244       -6.5861  -16.1872  -49.4134 H         1 UNK         0.0800 
    245 H245       -6.4219  -17.6901  -48.5344 H         1 UNK         0.0800 
    246 H246       -4.2044  -15.4583  -48.6361 H         1 UNK         0.0800 
    247 H247       -3.8969  -16.9621  -47.7979 H         1 UNK         0.0800 
@<TRIPOS>BOND
     1    1    2 1    
     2    1  127 1    
     3    1  128 1    
     4    1  129 1    
     5    2    3 2    
     6    2    4 am   BACKBONE|DICT|INTERRES
     7    4    5 1    
     8    4  130 1    
     9    5    6 1    
    10    5   65 1    
    11    5  131 1    
    12    6    7 1    
    13    6  132 1    
    14    6  133 1    
    15    7    8 1    
    16    8    9 1    
    17    8  134 1    
    18    8  135 1    
    19    9   10 ar   
    20    9   14 ar   
    21   10   11 ar   
    22   10  136 1    
    23   11   12 ar   
    24   11  126 1    
    25   12   13 ar   
    26   12  137 1    
    27   13   14 ar   
    28   13   15 1    
    29   14  138 1    
    30   15   16 1    
    31   15  139 1    
    32   15  140 1    
    33   16   17 1    
    34   17   18 1    
    35   17  141 1    
    36   17  142 1    
    37   18   19 1    
    38   18   67 1    
    39   18  143 1    
    40   19   20 am   BACKBONE|DICT|INTERRES
    41   19  144 1    
    42   20   21 2    
    43   20   22 1    
    44   22   23 1    
    45   22   24 1    
    46   22  145 1    
    47   23  146 1    
    48   23  147 1    
    49   23  148 1    
    50   24   25 am   BACKBONE|DICT|INTERRES
    51   24  149 1    
    52   25   26 2    
    53   25   27 1    
    54   27   28 1    
    55   27   29 1    
    56   27  150 1    
    57   28  151 1    
    58   28  152 1    
    59   28  153 1    
    60   29   30 am   BACKBONE|DICT|INTERRES
    61   29  154 1    
    62   30   31 2    
    63   30   32 1    
    64   32   33 1    
    65   32   34 1    
    66   32  155 1    
    67   33  156 1    
    68   33  157 1    
    69   33  158 1    
    70   34   35 am   BACKBONE|DICT|INTERRES
    71   34  159 1    
    72   35   36 2    
    73   35   37 1    
    74   37   38 1    
    75   37   39 1    
    76   37  160 1    
    77   38  161 1    
    78   38  162 1    
    79   38  163 1    
    80   39   40 am   BACKBONE|DICT|INTERRES
    81   39  164 1    
    82   40   41 2    
    83   40   42 1    
    84   42   43 1    
    85   42   44 1    
    86   42  165 1    
    87   43  166 1    
    88   43  167 1    
    89   43  168 1    
    90   44   45 am   BACKBONE|DICT|INTERRES
    91   44  169 1    
    92   45   46 2    
    93   45   47 1    
    94   47   48 1    
    95   47   49 1    
    96   47  170 1    
    97   48  171 1    
    98   48  172 1    
    99   48  173 1    
   100   49   50 am   BACKBONE|DICT|INTERRES
   101   49  174 1    
   102   50   51 2    
   103   50   52 1    
   104   52   53 1    
   105   52   54 1    
   106   52  175 1    
   107   53  176 1    
   108   53  177 1    
   109   53  178 1    
   110   54   55 am   BACKBONE|DICT|INTERRES
   111   54  179 1    
   112   55   56 2    
   113   55   57 1    
   114   57   58 1    
   115   57   59 1    
   116   57  180 1    
   117   58  181 1    
   118   58  182 1    
   119   58  183 1    
   120   59   60 am   BACKBONE|DICT|INTERRES
   121   59  184 1    
   122   60   61 2    
   123   60   62 1    
   124   62   63 1    
   125   62   64 1    
   126   62  185 1    
   127   63  186 1    
   128   63  187 1    
   129   63  188 1    
   130   64   65 am   BACKBONE|DICT|INTERRES
   131   64  189 1    
   132   65   66 2    
   133   67   68 2    
   134   67   69 am   BACKBONE|DICT|INTERRES
   135   69   70 1    
   136   69  190 1    
   137   70   71 1    
   138   70   72 1    
   139   70  191 1    
   140   71  192 1    
   141   71  193 1    
   142   71  194 1    
   143   72   73 2    
   144   72   74 am   BACKBONE|DICT|INTERRES
   145   74   75 1    
   146   74  195 1    
   147   75   76 1    
   148   75   77 1    
   149   75  196 1    
   150   76  197 1    
   151   76  198 1    
   152   76  199 1    
   153   77   78 2    
   154   77   79 am   BACKBONE|DICT|INTERRES
   155   79   80 1    
   156   79  200 1    
   157   80   81 1    
   158   80   82 1    
   159   80  201 1    
   160   81  202 1    
   161   81  203 1    
   162   81  204 1    
   163   82   83 2    
   164   82   84 am   BACKBONE|DICT|INTERRES
   165   84   85 1    
   166   84  205 1    
   167   85   86 1    
   168   85   87 1    
   169   85  206 1    
   170   86  207 1    
   171   86  208 1    
   172   86  209 1    
   173   87   88 2    
   174   87   89 am   BACKBONE|DICT|INTERRES
   175   89   90 1    
   176   89  210 1    
   177   90   91 1    
   178   90   92 1    
   179   90  211 1    
   180   91  212 1    
   181   91  213 1    
   182   91  214 1    
   183   92   93 2    
   184   92   94 am   BACKBONE|DICT|INTERRES
   185   94   95 1    
   186   94  215 1    
   187   95   96 1    
   188   95   97 1    
   189   95  216 1    
   190   96  217 1    
   191   96  218 1    
   192   96  219 1    
   193   97   98 2    
   194   97   99 am   BACKBONE|DICT|INTERRES
   195   99  100 1    
   196   99  220 1    
   197  100  101 1    
   198  100  102 1    
   199  100  221 1    
   200  101  222 1    
   201  101  223 1    
   202  101  224 1    
   203  102  103 2    
   204  102  104 am   BACKBONE|DICT|INTERRES
   205  104  105 1    
   206  104  225 1    
   207  105  106 1    
   208  105  107 1    
   209  105  226 1    
   210  106  227 1    
   211  106  228 1    
   212  106  229 1    
   213  107  108 2    
   214  107  109 am   BACKBONE|DICT|INTERRES
   215  109  110 1    
   216  109  230 1    
   217  110  111 1    
   218  110  112 1    
   219  110  231 1    
   220  111  232 1    
   221  111  233 1    
   222  111  234 1    
   223  112  113 2    
   224  112  114 am   BACKBONE|DICT|INTERRES
   225  114  115 1    
   226  114  235 1    
   227  115  116 1    
   228  115  117 1    
   229  115  236 1    
   230  116  237 1    
   231  116  238 1    
   232  116  239 1    
   233  117  118 2    
   234  117  119 am   BACKBONE|DICT|INTERRES
   235  119  120 1    
   236  119  240 1    
   237  120  121 1    
   238  120  124 1    
   239  120  241 1    
   240  121  122 am   BACKBONE|DICT|INTERRES
   241  121  123 2    
   242  122  242 1    
   243  122  243 1    
   244  124  125 1    
   245  124  244 1    
   246  124  245 1    
   247  125  126 1    
   248  126  246 1    
   249  126  247 1    
@<TRIPOS>SUBSTRUCTURE
     1 UNK         1 GROUP             0       ****    0 ROOT    
