@<TRIPOS>MOLECULE
3R540
247   249    1
SMALL
USER_CHARGES


@<TRIPOS>ATOM
      1 CA         -0.6691  -12.2793  -48.8638 C.3       0 UNK        -0.1800 
      2 C           0.6334  -12.6930  -48.1969 C.2       0 UNK         0.5000 
      3 O           0.6211  -13.0722  -47.0261 O.2       0 UNK        -0.5000 
      4 N           1.7497  -12.6322  -48.9357 N.am      1 UNK        -0.5000 
      5 CA          3.1072  -12.9766  -48.4919 C.3       1 UNK         0.1400 
      6 C6          3.1852  -14.4158  -47.9047 C.3       23 UNK        -0.0398 
      7 S7          4.8269  -15.2030  -48.0465 S.3       23 UNK        -0.2404 
      8 C8          4.8879  -15.6964  -49.8003 C.3       23 UNK        -0.0205 
      9 C9          3.8120  -16.7059  -50.1738 C.ar      23 UNK        -0.0193 
     10 C10         2.6578  -16.2856  -50.8390 C.ar      23 UNK        -0.1150 
     11 C11         1.6707  -17.2043  -51.2071 C.ar      23 UNK        -0.0193 
     12 C12         1.8562  -18.5611  -50.9216 C.ar      23 UNK        -0.1150 
     13 C13         3.0191  -18.9988  -50.2781 C.ar      23 UNK        -0.0193 
     14 C14         3.9862  -18.0639  -49.8945 C.ar      23 UNK        -0.1150 
     15 C15         3.2660  -20.4830  -50.0462 C.3       23 UNK        -0.0205 
     16 S16         2.5912  -21.0585  -48.4586 S.3       23 UNK        -0.2404 
     17 C17         0.8438  -21.3564  -48.8885 C.3       23 UNK        -0.0398 
     18 CA          0.1977  -22.4310  -47.9836 C.3       11 UNK         0.1400 
     19 N           0.0729  -21.9953  -46.5906 N.am      11 UNK        -0.5000 
     20 C          -0.2924  -22.7828  -45.5703 C.2       10 UNK         0.5000 
     21 O          -0.5201  -23.9876  -45.6848 O.2       10 UNK        -0.5000 
     22 CA         -0.4854  -22.1004  -44.2033 C.3       10 UNK         0.1400 
     23 CB          0.8614  -21.8628  -43.5038 C.3       10 UNK        -0.1800 
     24 N          -1.2194  -20.8381  -44.3111 N.am      10 UNK        -0.5000 
     25 C          -2.5062  -20.7463  -44.6767 C.2       9 UNK         0.5000 
     26 O          -3.2170  -21.7214  -44.9184 O.2       9 UNK        -0.5000 
     27 CA         -3.0896  -19.3305  -44.8379 C.3       9 UNK         0.1400 
     28 CB         -3.5071  -18.7554  -43.4765 C.3       9 UNK        -0.1800 
     29 N          -2.1662  -18.4066  -45.4950 N.am      9 UNK        -0.5000 
     30 C          -1.7105  -18.5463  -46.7481 C.2       8 UNK         0.5000 
     31 O          -2.0607  -19.4481  -47.5049 O.2       8 UNK        -0.5000 
     32 CA         -0.6350  -17.5482  -47.2095 C.3       8 UNK         0.1400 
     33 CB         -1.2778  -16.2230  -47.6382 C.3       8 UNK        -0.1800 
     34 N           0.3767  -17.3038  -46.1782 N.am      8 UNK        -0.5000 
     35 C           1.1751  -18.2549  -45.6698 C.2       7 UNK         0.5000 
     36 O           1.1402  -19.4312  -46.0193 O.2       7 UNK        -0.5000 
     37 CA          2.1358  -17.8432  -44.5446 C.3       7 UNK         0.1400 
     38 CB          3.4475  -17.2974  -45.1231 C.3       7 UNK        -0.1800 
     39 N           1.5306  -16.8688  -43.6351 N.am      7 UNK        -0.5000 
     40 C           0.5843  -17.1846  -42.7393 C.2       6 UNK         0.5000 
     41 O           0.1594  -18.3281  -42.5672 O.2       6 UNK        -0.5000 
     42 CA         -0.0174  -16.0167  -41.9353 C.3       6 UNK         0.1400 
     43 CB          0.9348  -15.5707  -40.8159 C.3       6 UNK        -0.1800 
     44 N          -0.3660  -14.8611  -42.7663 N.am      6 UNK        -0.5000 
     45 C          -1.2650  -14.8787  -43.7594 C.2       5 UNK         0.5000 
     46 O          -1.8619  -15.8963  -44.1092 O.2       5 UNK        -0.5000 
     47 CA         -1.5345  -13.5709  -44.5240 C.3       5 UNK         0.1400 
     48 CB         -2.8810  -12.9436  -44.1153 C.3       5 UNK        -0.1800 
     49 N          -0.4374  -12.5976  -44.4938 N.am      5 UNK        -0.5000 
     50 C          -0.0481  -11.7859  -43.5039 C.2       4 UNK         0.5000 
     51 O          -0.5357  -11.7958  -42.3729 O.2       4 UNK        -0.5000 
     52 CA          1.1095  -10.8320  -43.8548 C.3       4 UNK         0.1400 
     53 CB          1.2034   -9.6212  -42.9028 C.3       4 UNK        -0.1800 
     54 N           2.3938  -11.5326  -43.9435 N.am      4 UNK        -0.5000 
     55 C           3.0425  -12.1823  -42.9622 C.2       3 UNK         0.5000 
     56 O           2.6110  -12.3009  -41.8157 O.2       3 UNK        -0.5000 
     57 CA          4.4030  -12.8285  -43.3044 C.3       3 UNK         0.1400 
     58 CB          4.2997  -14.3576  -43.2235 C.3       3 UNK        -0.1800 
     59 N           4.9111  -12.4729  -44.6293 N.am      3 UNK        -0.5000 
     60 C           5.4526  -11.2943  -44.9661 C.2       2 UNK         0.5000 
     61 O           5.6539  -10.3801  -44.1666 O.2       2 UNK        -0.5000 
     62 CA          5.8004  -11.0970  -46.4567 C.3       2 UNK         0.1400 
     63 CB          7.2996  -11.3330  -46.6944 C.3       2 UNK        -0.1800 
     64 N           5.0339  -11.9647  -47.3595 N.am      2 UNK        -0.5000 
     65 C           3.7059  -11.9174  -47.5333 C.2       1 UNK         0.5000 
     66 O           2.9861  -11.1012  -46.9518 O.2       1 UNK        -0.5000 
     67 C          -1.1549  -22.8987  -48.5566 C.2       11 UNK         0.5000 
     68 O          -1.2022  -23.9463  -49.2005 O.2       11 UNK        -0.5000 
     69 N          -2.2335  -22.1530  -48.2776 N.am      12 UNK        -0.5000 
     70 CA         -3.6018  -22.5102  -48.6483 C.3       12 UNK         0.1400 
     71 CB         -4.5583  -21.3585  -48.3165 C.3       12 UNK        -0.1800 
     72 C          -4.0741  -23.8099  -47.9807 C.2       12 UNK         0.5000 
     73 O          -4.6709  -24.6441  -48.6572 O.2       12 UNK        -0.5000 
     74 N          -3.7712  -23.9835  -46.6861 N.am      13 UNK        -0.5000 
     75 CA         -4.0613  -25.2020  -45.9285 C.3       13 UNK         0.1400 
     76 CB         -3.7423  -24.9849  -44.4420 C.3       13 UNK        -0.1800 
     77 C          -3.3185  -26.4322  -46.4807 C.2       13 UNK         0.5000 
     78 O          -3.9329  -27.4880  -46.6359 O.2       13 UNK        -0.5000 
     79 N          -2.0333  -26.2627  -46.8244 N.am      14 UNK        -0.5000 
     80 CA         -1.2049  -27.2820  -47.4758 C.3       14 UNK         0.1400 
     81 CB          0.2515  -26.7972  -47.5336 C.3       14 UNK        -0.1800 
     82 C          -1.7132  -27.6646  -48.8812 C.2       14 UNK         0.5000 
     83 O          -1.6480  -28.8358  -49.2552 O.2       14 UNK        -0.5000 
     84 N          -2.2489  -26.6793  -49.6125 N.am      15 UNK        -0.5000 
     85 CA         -2.8946  -26.8370  -50.9170 C.3       15 UNK         0.1400 
     86 CB         -2.7947  -25.5018  -51.6727 C.3       15 UNK        -0.1800 
     87 C          -4.3641  -27.3062  -50.8300 C.2       15 UNK         0.5000 
     88 O          -5.0196  -27.4000  -51.8682 O.2       15 UNK        -0.5000 
     89 N          -4.8757  -27.5598  -49.6144 N.am      16 UNK        -0.5000 
     90 CA         -6.2464  -27.9807  -49.2934 C.3       16 UNK         0.1400 
     91 CB         -6.4961  -29.4203  -49.7882 C.3       16 UNK        -0.1800 
     92 C          -7.3256  -26.9846  -49.7765 C.2       16 UNK         0.5000 
     93 O          -8.4235  -27.3954  -50.1557 O.2       16 UNK        -0.5000 
     94 N          -6.9735  -25.6909  -49.7722 N.am      17 UNK        -0.5000 
     95 CA         -7.7398  -24.5284  -50.2309 C.3       17 UNK         0.1400 
     96 CB         -9.0122  -24.3384  -49.3805 C.3       17 UNK        -0.1800 
     97 C          -8.0343  -24.5076  -51.7474 C.2       17 UNK         0.5000 
     98 O          -8.8303  -23.6790  -52.1924 O.2       17 UNK        -0.5000 
     99 N          -7.3861  -25.3859  -52.5266 N.am      18 UNK        -0.5000 
    100 CA        -7.5435  -25.4688  -53.9807 C.3       18 UNK         0.1400 
    101 CB        -7.1687  -26.8850  -54.4441 C.3       18 UNK        -0.1800 
    102 C         -6.7058  -24.4179  -54.7344 C.2       18 UNK         0.5000 
    103 O         -6.9882  -24.1454  -55.9021 O.2       18 UNK        -0.5000 
    104 N         -5.6927  -23.8552  -54.0671 N.am      19 UNK        -0.5000 
    105 CA        -4.7520  -22.8715  -54.5887 C.3       19 UNK         0.1400 
    106 CB        -3.7277  -23.5694  -55.5078 C.3       19 UNK        -0.1800 
    107 C         -4.0597  -22.1733  -53.4068 C.2       19 UNK         0.5000 
    108 O         -4.3246  -22.5148  -52.2520 O.2       19 UNK        -0.5000 
    109 N         -3.1756  -21.2175  -53.7261 N.am      20 UNK        -0.5000 
    110 CA        -2.2272  -20.5325  -52.8344 C.3       20 UNK         0.1400 
    111 CB        -1.2536  -21.5448  -52.2009 C.3       20 UNK        -0.1800 
    112 C         -2.8470  -19.5947  -51.7762 C.2       20 UNK         0.5000 
    113 O         -2.1122  -19.0454  -50.9549 O.2       20 UNK        -0.5000 
    114 N         -4.1655  -19.3748  -51.8336 N.am      21 UNK        -0.5000 
    115 CA        -4.9175  -18.4772  -50.9575 C.3       21 UNK         0.1400 
    116 CB        -6.3750  -18.9679  -50.8882 C.3       21 UNK        -0.1800 
    117 C         -4.7954  -17.0101  -51.4155 C.2       21 UNK         0.5000 
    118 O         -5.7922  -16.3900  -51.7903 O.2       21 UNK        -0.5000 
    119 N         -3.5635  -16.4887  -51.3983 N.am      22 UNK        -0.5000 
    120 CA        -3.2247  -15.1065  -51.7751 C.3       22 UNK         0.1400 
    121 C         -3.5937  -14.0182  -50.7219 C.2       22 UNK         0.5000 
    122 N         -4.0321  -14.3709  -49.5192 N.am      22 UNK        -0.7600 
    123 O         -3.4997  -12.8285  -51.0109 O.2       22 UNK        -0.5000 
    124 C124       -1.7564  -14.9840  -52.2584 C.3       23 UNK        -0.0398 
    125 S125       -0.5124  -15.4949  -51.0210 S.3       23 UNK        -0.2404 
    126 C126        0.4364  -16.7310  -51.9622 C.3       23 UNK        -0.0205 
    127 H127       -0.5434  -12.1104  -49.9335 H         1 UNK         0.0600 
    128 H128       -1.4165  -13.0613  -48.7322 H         1 UNK         0.0600 
    129 H129       -1.0491  -11.3635  -48.4117 H         1 UNK         0.0600 
    130 H130        1.6849  -12.2834  -49.8814 H         1 UNK         0.3000 
    131 H131        3.7064  -12.9421  -49.4023 H         1 UNK         0.0600 
    132 H132        2.8969  -14.4123  -46.8529 H         1 UNK         0.0800 
    133 H133        2.4569  -15.0663  -48.3890 H         1 UNK         0.0800 
    134 H134        4.8157  -14.8105  -50.4323 H         1 UNK         0.0800 
    135 H135        5.8691  -16.1272  -50.0046 H         1 UNK         0.0800 
    136 H136        2.5231  -15.2385  -51.0717 H         1 UNK         0.1150 
    137 H137        1.1071  -19.2793  -51.2215 H         1 UNK         0.1150 
    138 H138        4.8863  -18.3949  -49.3955 H         1 UNK         0.1150 
    139 H139        2.8563  -21.0702  -50.8692 H         1 UNK         0.0800 
    140 H140        4.3394  -20.6780  -50.0516 H         1 UNK         0.0800 
    141 H141        0.8106  -21.6845  -49.9271 H         1 UNK         0.0800 
    142 H142        0.2943  -20.4146  -48.8374 H         1 UNK         0.0800 
    143 H143        0.8531  -23.3047  -47.9862 H         1 UNK         0.0600 
    144 H144        0.3061  -21.0221  -46.4014 H         1 UNK         0.3000 
    145 H145       -1.0731  -22.7748  -43.5769 H         1 UNK         0.0600 
    146 H146        0.7212  -21.4127  -42.5208 H         1 UNK         0.0600 
    147 H147        1.3944  -22.8033  -43.3594 H         1 UNK         0.0600 
    148 H148        1.5105  -21.2057  -44.0821 H         1 UNK         0.0600 
    149 H149       -0.7004  -19.9884  -44.1332 H         1 UNK         0.3000 
    150 H150       -3.9817  -19.4085  -45.4624 H         1 UNK         0.0600 
    151 H151       -4.2044  -19.4216  -42.9670 H         1 UNK         0.0600 
    152 H152       -4.0030  -17.7914  -43.5924 H         1 UNK         0.0600 
    153 H153       -2.6482  -18.6111  -42.8201 H         1 UNK         0.0600 
    154 H154       -1.8658  -17.6020  -44.9507 H         1 UNK         0.3000 
    155 H155       -0.1271  -17.9753  -48.0774 H         1 UNK         0.0600 
    156 H156       -0.5243  -15.5030  -47.9549 H         1 UNK         0.0600 
    157 H157       -1.8616  -15.7748  -46.8360 H         1 UNK         0.0600 
    158 H158       -1.9527  -16.3802  -48.4800 H         1 UNK         0.0600 
    159 H159        0.4389  -16.3665  -45.8134 H         1 UNK         0.3000 
    160 H160        2.3775  -18.7428  -43.9740 H         1 UNK         0.0600 
    161 H161        3.2909  -16.3660  -45.6629 H         1 UNK         0.0600 
    162 H162        3.8906  -18.0074  -45.8233 H         1 UNK         0.0600 
    163 H163        4.1817  -17.1191  -44.3378 H         1 UNK         0.0600 
    164 H164        1.8136  -15.9055  -43.7239 H         1 UNK         0.3000 
    165 H165       -0.9377  -16.3791  -41.4724 H         1 UNK         0.0600 
    166 H166        1.8542  -15.1413  -41.2141 H         1 UNK         0.0600 
    167 H167        0.4672  -14.8202  -40.1782 H         1 UNK         0.0600 
    168 H168        1.2120  -16.4115  -40.1788 H         1 UNK         0.0600 
    169 H169        0.0401  -13.9695  -42.5130 H         1 UNK         0.3000 
    170 H170       -1.6249  -13.8497  -45.5738 H         1 UNK         0.0600 
    171 H171       -2.9084  -12.6841  -43.0569 H         1 UNK         0.0600 
    172 H172       -3.7014  -13.6390  -44.2970 H         1 UNK         0.0600 
    173 H173       -3.0874  -12.0411  -44.6905 H         1 UNK         0.0600 
    174 H174        0.0848  -12.5671  -45.3693 H         1 UNK         0.3000 
    175 H175        0.9063  -10.4406  -44.8532 H         1 UNK         0.0600 
    176 H176        1.9979   -8.9411  -43.2101 H         1 UNK         0.0600 
    177 H177        0.2714   -9.0551  -42.9044 H         1 UNK         0.0600 
    178 H178        1.3992   -9.9201  -41.8728 H         1 UNK         0.0600 
    179 H179        2.8209  -11.5100  -44.8625 H         1 UNK         0.3000 
    180 H180        5.1238  -12.4927  -42.5560 H         1 UNK         0.0600 
    181 H181        3.5433  -14.7326  -43.9108 H         1 UNK         0.0600 
    182 H182        4.0255  -14.6812  -42.2190 H         1 UNK         0.0600 
    183 H183        5.2487  -14.8352  -43.4682 H         1 UNK         0.0600 
    184 H184        4.8083  -13.1678  -45.3533 H         1 UNK         0.3000 
    185 H185        5.5708  -10.0601  -46.7110 H         1 UNK         0.0600 
    186 H186        7.5744  -11.1181  -47.7272 H         1 UNK         0.0600 
    187 H187        7.9035  -10.6851  -46.0577 H         1 UNK         0.0600 
    188 H188        7.5837  -12.3637  -46.4778 H         1 UNK         0.0600 
    189 H189        5.5623  -12.6719  -47.8522 H         1 UNK         0.3000 
    190 H190       -2.1130  -21.2614  -47.8010 H         1 UNK         0.3000 
    191 H191       -3.6195  -22.6637  -49.7279 H         1 UNK         0.0600 
    192 H192       -4.2498  -20.4460  -48.8210 H         1 UNK         0.0600 
    193 H193       -5.5736  -21.5871  -48.6423 H         1 UNK         0.0600 
    194 H194       -4.5909  -21.1533  -47.2465 H         1 UNK         0.0600 
    195 H195       -3.3260  -23.2250  -46.1777 H         1 UNK         0.3000 
    196 H196       -5.1320  -25.3971  -46.0172 H         1 UNK         0.0600 
    197 H197       -3.9699  -25.8783  -43.8593 H         1 UNK         0.0600 
    198 H198       -4.3336  -24.1678  -44.0284 H         1 UNK         0.0600 
    199 H199       -2.6903  -24.7486  -44.2834 H         1 UNK         0.0600 
    200 H200       -1.5887  -25.3708  -46.6260 H         1 UNK         0.3000 
    201 H201       -1.2383  -28.1811  -46.8572 H         1 UNK         0.0600 
    202 H202        0.6367  -26.5870  -46.5356 H         1 UNK         0.0600 
    203 H203        0.3511  -25.8887  -48.1275 H         1 UNK         0.0600 
    204 H204        0.8977  -27.5541  -47.9799 H         1 UNK         0.0600 
    205 H205       -2.2022  -25.7319  -49.2511 H         1 UNK         0.3000 
    206 H206       -2.3515  -27.5906  -51.4904 H         1 UNK         0.0600 
    207 H207       -1.7570  -25.1889  -51.7897 H         1 UNK         0.0600 
    208 H208       -3.2261  -25.5739  -52.6716 H         1 UNK         0.0600 
    209 H209       -3.3219  -24.7090  -51.1427 H         1 UNK         0.0600 
    210 H210       -4.2753  -27.4128  -48.8125 H         1 UNK         0.3000 
    211 H211       -6.3123  -27.9897  -48.2047 H         1 UNK         0.0600 
    212 H212       -6.5033  -29.4782  -50.8771 H         1 UNK         0.0600 
    213 H213       -7.4568  -29.7957  -49.4341 H         1 UNK         0.0600 
    214 H214       -5.7283  -30.1012  -49.4209 H         1 UNK         0.0600 
    215 H215       -6.0432  -25.4612  -49.4209 H         1 UNK         0.3000 
    216 H216       -7.0955  -23.6671  -50.0479 H         1 UNK         0.0600 
    217 H217       -8.7774  -24.3339  -48.3161 H         1 UNK         0.0600 
    218 H218       -9.7423  -25.1277  -49.5608 H         1 UNK         0.0600 
    219 H219       -9.4975  -23.3885  -49.6072 H         1 UNK         0.0600 
    220 H220       -6.7386  -26.0406  -52.1029 H         1 UNK         0.3000 
    221 H221       -8.5925  -25.2999  -54.2331 H         1 UNK         0.0600 
    222 H222       -6.1106  -27.0944  -54.2841 H         1 UNK         0.0600 
    223 H223       -7.7454  -27.6419  -53.9120 H         1 UNK         0.0600 
    224 H224       -7.3684  -27.0117  -55.5088 H         1 UNK         0.0600 
    225 H225       -5.5562  -24.0773  -53.0890 H         1 UNK         0.3000 
    226 H226       -5.3016  -22.1156  -55.1531 H         1 UNK         0.0600 
    227 H227       -4.2170  -24.0762  -56.3395 H         1 UNK         0.0600 
    228 H228       -3.0269  -22.8560  -55.9419 H         1 UNK         0.0600 
    229 H229       -3.1446  -24.3129  -54.9629 H         1 UNK         0.0600 
    230 H230       -3.0697  -20.9880  -54.7047 H         1 UNK         0.3000 
    231 H231       -1.6369  -19.8830  -53.4822 H         1 UNK         0.0600 
    232 H232       -0.4437  -21.0275  -51.6902 H         1 UNK         0.0600 
    233 H233       -0.8004  -22.1869  -52.9559 H         1 UNK         0.0600 
    234 H234       -1.7505  -22.1840  -51.4709 H         1 UNK         0.0600 
    235 H235       -4.6916  -19.8505  -52.5509 H         1 UNK         0.3000 
    236 H236       -4.5018  -18.5233  -49.9498 H         1 UNK         0.0600 
    237 H237       -6.9653  -18.3470  -50.2132 H         1 UNK         0.0600 
    238 H238       -6.8567  -18.9429  -51.8664 H         1 UNK         0.0600 
    239 H239       -6.4283  -19.9914  -50.5166 H         1 UNK         0.0600 
    240 H240       -2.7945  -17.0764  -51.0936 H         1 UNK         0.3000 
    241 H241       -3.8429  -14.8618  -52.6411 H         1 UNK         0.0600 
    242 H242       -4.1301  -15.3414  -49.2742 H         1 UNK         0.3800 
    243 H243       -4.2826  -13.6554  -48.8561 H         1 UNK         0.3800 
    244 H244       -1.6321  -15.5844  -53.1603 H         1 UNK         0.0800 
    245 H245       -1.5355  -13.9597  -52.5631 H         1 UNK         0.0800 
    246 H246        0.7551  -16.2963  -52.9106 H         1 UNK         0.0800 
    247 H247       -0.2151  -17.5709  -52.2061 H         1 UNK         0.0800 
@<TRIPOS>BOND
     1    1    2 1    
     2    1  127 1    
     3    1  128 1    
     4    1  129 1    
     5    2    3 2    
     6    2    4 am   BACKBONE|DICT|INTERRES
     7    4    5 1    
     8    4  130 1    
     9    5    6 1    
    10    5   65 1    
    11    5  131 1    
    12    6    7 1    
    13    6  132 1    
    14    6  133 1    
    15    7    8 1    
    16    8    9 1    
    17    8  134 1    
    18    8  135 1    
    19    9   10 ar   
    20    9   14 ar   
    21   10   11 ar   
    22   10  136 1    
    23   11   12 ar   
    24   11  126 1    
    25   12   13 ar   
    26   12  137 1    
    27   13   14 ar   
    28   13   15 1    
    29   14  138 1    
    30   15   16 1    
    31   15  139 1    
    32   15  140 1    
    33   16   17 1    
    34   17   18 1    
    35   17  141 1    
    36   17  142 1    
    37   18   19 1    
    38   18   67 1    
    39   18  143 1    
    40   19   20 am   BACKBONE|DICT|INTERRES
    41   19  144 1    
    42   20   21 2    
    43   20   22 1    
    44   22   23 1    
    45   22   24 1    
    46   22  145 1    
    47   23  146 1    
    48   23  147 1    
    49   23  148 1    
    50   24   25 am   BACKBONE|DICT|INTERRES
    51   24  149 1    
    52   25   26 2    
    53   25   27 1    
    54   27   28 1    
    55   27   29 1    
    56   27  150 1    
    57   28  151 1    
    58   28  152 1    
    59   28  153 1    
    60   29   30 am   BACKBONE|DICT|INTERRES
    61   29  154 1    
    62   30   31 2    
    63   30   32 1    
    64   32   33 1    
    65   32   34 1    
    66   32  155 1    
    67   33  156 1    
    68   33  157 1    
    69   33  158 1    
    70   34   35 am   BACKBONE|DICT|INTERRES
    71   34  159 1    
    72   35   36 2    
    73   35   37 1    
    74   37   38 1    
    75   37   39 1    
    76   37  160 1    
    77   38  161 1    
    78   38  162 1    
    79   38  163 1    
    80   39   40 am   BACKBONE|DICT|INTERRES
    81   39  164 1    
    82   40   41 2    
    83   40   42 1    
    84   42   43 1    
    85   42   44 1    
    86   42  165 1    
    87   43  166 1    
    88   43  167 1    
    89   43  168 1    
    90   44   45 am   BACKBONE|DICT|INTERRES
    91   44  169 1    
    92   45   46 2    
    93   45   47 1    
    94   47   48 1    
    95   47   49 1    
    96   47  170 1    
    97   48  171 1    
    98   48  172 1    
    99   48  173 1    
   100   49   50 am   BACKBONE|DICT|INTERRES
   101   49  174 1    
   102   50   51 2    
   103   50   52 1    
   104   52   53 1    
   105   52   54 1    
   106   52  175 1    
   107   53  176 1    
   108   53  177 1    
   109   53  178 1    
   110   54   55 am   BACKBONE|DICT|INTERRES
   111   54  179 1    
   112   55   56 2    
   113   55   57 1    
   114   57   58 1    
   115   57   59 1    
   116   57  180 1    
   117   58  181 1    
   118   58  182 1    
   119   58  183 1    
   120   59   60 am   BACKBONE|DICT|INTERRES
   121   59  184 1    
   122   60   61 2    
   123   60   62 1    
   124   62   63 1    
   125   62   64 1    
   126   62  185 1    
   127   63  186 1    
   128   63  187 1    
   129   63  188 1    
   130   64   65 am   BACKBONE|DICT|INTERRES
   131   64  189 1    
   132   65   66 2    
   133   67   68 2    
   134   67   69 am   BACKBONE|DICT|INTERRES
   135   69   70 1    
   136   69  190 1    
   137   70   71 1    
   138   70   72 1    
   139   70  191 1    
   140   71  192 1    
   141   71  193 1    
   142   71  194 1    
   143   72   73 2    
   144   72   74 am   BACKBONE|DICT|INTERRES
   145   74   75 1    
   146   74  195 1    
   147   75   76 1    
   148   75   77 1    
   149   75  196 1    
   150   76  197 1    
   151   76  198 1    
   152   76  199 1    
   153   77   78 2    
   154   77   79 am   BACKBONE|DICT|INTERRES
   155   79   80 1    
   156   79  200 1    
   157   80   81 1    
   158   80   82 1    
   159   80  201 1    
   160   81  202 1    
   161   81  203 1    
   162   81  204 1    
   163   82   83 2    
   164   82   84 am   BACKBONE|DICT|INTERRES
   165   84   85 1    
   166   84  205 1    
   167   85   86 1    
   168   85   87 1    
   169   85  206 1    
   170   86  207 1    
   171   86  208 1    
   172   86  209 1    
   173   87   88 2    
   174   87   89 am   BACKBONE|DICT|INTERRES
   175   89   90 1    
   176   89  210 1    
   177   90   91 1    
   178   90   92 1    
   179   90  211 1    
   180   91  212 1    
   181   91  213 1    
   182   91  214 1    
   183   92   93 2    
   184   92   94 am   BACKBONE|DICT|INTERRES
   185   94   95 1    
   186   94  215 1    
   187   95   96 1    
   188   95   97 1    
   189   95  216 1    
   190   96  217 1    
   191   96  218 1    
   192   96  219 1    
   193   97   98 2    
   194   97   99 am   BACKBONE|DICT|INTERRES
   195   99  100 1    
   196   99  220 1    
   197  100  101 1    
   198  100  102 1    
   199  100  221 1    
   200  101  222 1    
   201  101  223 1    
   202  101  224 1    
   203  102  103 2    
   204  102  104 am   BACKBONE|DICT|INTERRES
   205  104  105 1    
   206  104  225 1    
   207  105  106 1    
   208  105  107 1    
   209  105  226 1    
   210  106  227 1    
   211  106  228 1    
   212  106  229 1    
   213  107  108 2    
   214  107  109 am   BACKBONE|DICT|INTERRES
   215  109  110 1    
   216  109  230 1    
   217  110  111 1    
   218  110  112 1    
   219  110  231 1    
   220  111  232 1    
   221  111  233 1    
   222  111  234 1    
   223  112  113 2    
   224  112  114 am   BACKBONE|DICT|INTERRES
   225  114  115 1    
   226  114  235 1    
   227  115  116 1    
   228  115  117 1    
   229  115  236 1    
   230  116  237 1    
   231  116  238 1    
   232  116  239 1    
   233  117  118 2    
   234  117  119 am   BACKBONE|DICT|INTERRES
   235  119  120 1    
   236  119  240 1    
   237  120  121 1    
   238  120  124 1    
   239  120  241 1    
   240  121  122 am   BACKBONE|DICT|INTERRES
   241  121  123 2    
   242  122  242 1    
   243  122  243 1    
   244  124  125 1    
   245  124  244 1    
   246  124  245 1    
   247  125  126 1    
   248  126  246 1    
   249  126  247 1    
@<TRIPOS>SUBSTRUCTURE
     1 UNK         1 GROUP             0       ****    0 ROOT    
