@<TRIPOS>MOLECULE
3R540
247   249    1
SMALL
USER_CHARGES


@<TRIPOS>ATOM
      1 CA          3.2427  -16.1388  -46.6074 C.3       0 UNK        -0.1800 
      2 C           2.6275  -14.9669  -47.3556 C.2       0 UNK         0.5000 
      3 O           3.2989  -14.3577  -48.1882 O.2       0 UNK        -0.5000 
      4 N           1.3561  -14.6549  -47.0685 N.am      1 UNK        -0.5000 
      5 CA          0.5091  -13.6398  -47.7170 C.3       1 UNK         0.1400 
      6 C6          0.3249  -13.8270  -49.2480 C.3       23 UNK        -0.0398 
      7 S7         -0.2918  -15.4848  -49.7093 S.3       23 UNK        -0.2404 
      8 C8          1.1628  -16.1496  -50.5773 C.3       23 UNK        -0.0205 
      9 C9          0.8964  -17.5154  -51.1893 C.ar      23 UNK        -0.0193 
     10 C10         0.4538  -17.6145  -52.5109 C.ar      23 UNK        -0.1150 
     11 C11         0.2682  -18.8651  -53.1050 C.ar      23 UNK        -0.0193 
     12 C12         0.5174  -20.0207  -52.3611 C.ar      23 UNK        -0.1150 
     13 C13         0.9514  -19.9426  -51.0340 C.ar      23 UNK        -0.0193 
     14 C14         1.1335  -18.6801  -50.4523 C.ar      23 UNK        -0.1150 
     15 C15         1.1930  -21.2471  -50.2760 C.3       23 UNK        -0.0205 
     16 S16         2.4285  -21.1613  -48.9311 S.3       23 UNK        -0.2404 
     17 C17         1.3805  -20.7729  -47.4878 C.3       23 UNK        -0.0398 
     18 CA          0.9941  -22.0375  -46.6789 C.3       11 UNK         0.1400 
     19 N           0.5999  -21.7237  -45.3043 N.am      11 UNK        -0.5000 
     20 C           0.3435  -22.6350  -44.3538 C.2       10 UNK         0.5000 
     21 O           0.4912  -23.8480  -44.5093 O.2       10 UNK        -0.5000 
     22 CA         -0.2291  -22.1053  -43.0258 C.3       10 UNK         0.1400 
     23 CB          0.8869  -21.5558  -42.1253 C.3       10 UNK        -0.1800 
     24 N          -1.2534  -21.0785  -43.2297 N.am      10 UNK        -0.5000 
     25 C          -2.4257  -21.2935  -43.8446 C.2       9 UNK         0.5000 
     26 O          -2.7924  -22.3980  -44.2454 O.2       9 UNK        -0.5000 
     27 CA         -3.3166  -20.0641  -44.1011 C.3       9 UNK         0.1400 
     28 CB         -4.1187  -19.6930  -42.8452 C.3       9 UNK        -0.1800 
     29 N          -2.5584  -18.9013  -44.5638 N.am      9 UNK        -0.5000 
     30 C          -1.8709  -18.8457  -45.7134 C.2       8 UNK         0.5000 
     31 O          -1.8280  -19.7621  -46.5304 O.2       8 UNK        -0.5000 
     32 CA         -1.0510  -17.5699  -45.9694 C.3       8 UNK         0.1400 
     33 CB         -1.9695  -16.4351  -46.4457 C.3       8 UNK        -0.1800 
     34 N          -0.3012  -17.1525  -44.7806 N.am      8 UNK        -0.5000 
     35 C           0.6567  -17.8896  -44.1956 C.2       7 UNK         0.5000 
     36 O           1.0703  -18.9539  -44.6518 O.2       7 UNK        -0.5000 
     37 CA          1.2116  -17.3816  -42.8536 C.3       7 UNK         0.1400 
     38 CB          2.3547  -16.3776  -43.0651 C.3       7 UNK        -0.1800 
     39 N           0.1644  -16.7792  -42.0306 N.am      7 UNK        -0.5000 
     40 C          -0.8213  -17.4735  -41.4433 C.2       6 UNK         0.5000 
     41 O          -0.9122  -18.7001  -41.4874 O.2       6 UNK        -0.5000 
     42 CA         -1.9149  -16.6515  -40.7361 C.3       6 UNK         0.1400 
     43 CB         -1.4888  -16.3049  -39.3020 C.3       6 UNK        -0.1800 
     44 N          -2.2350  -15.4185  -41.4587 N.am      6 UNK        -0.5000 
     45 C          -2.7991  -15.3765  -42.6750 C.2       5 UNK         0.5000 
     46 O          -3.1850  -16.3773  -43.2763 O.2       5 UNK        -0.5000 
     47 CA         -2.8891  -13.9957  -43.3550 C.3       5 UNK         0.1400 
     48 CB         -4.2271  -13.3180  -43.0269 C.3       5 UNK        -0.1800 
     49 N          -1.7859  -13.1129  -42.9649 N.am      5 UNK        -0.5000 
     50 C          -0.5072  -13.3058  -43.3124 C.2       4 UNK         0.5000 
     51 O          -0.1314  -14.1895  -44.0900 O.2       4 UNK        -0.5000 
     52 CA          0.5241  -12.4285  -42.5903 C.3       4 UNK         0.1400 
     53 CB          0.7638  -12.9877  -41.1702 C.3       4 UNK        -0.1800 
     54 N           1.7642  -12.4176  -43.3601 N.am      4 UNK        -0.5000 
     55 C           2.8626  -11.7022  -43.0844 C.2       3 UNK         0.5000 
     56 O           2.9631  -10.9261  -42.1336 O.2       3 UNK        -0.5000 
     57 CA          4.0455  -11.8671  -44.0542 C.3       3 UNK         0.1400 
     58 CB          4.7042  -13.2464  -43.8912 C.3       3 UNK        -0.1800 
     59 N           3.6373  -11.6835  -45.4451 N.am      3 UNK        -0.5000 
     60 C           3.2815  -10.5100  -45.9888 C.2       2 UNK         0.5000 
     61 O           3.3208   -9.4344  -45.3907 O.2       2 UNK        -0.5000 
     62 CA          2.7917  -10.5487  -47.4478 C.3       2 UNK         0.1400 
     63 CB          3.9575  -10.3026  -48.4174 C.3       2 UNK        -0.1800 
     64 N           2.1561  -11.8235  -47.7789 N.am      2 UNK        -0.5000 
     65 C           0.9416  -12.2035  -47.3654 C.2       1 UNK         0.5000 
     66 O           0.1882  -11.4832  -46.7097 O.2       1 UNK        -0.5000 
     67 C          -0.0944  -22.8572  -47.3988 C.2       11 UNK         0.5000 
     68 O           0.2200  -23.8853  -47.9946 O.2       11 UNK        -0.5000 
     69 N          -1.3534  -22.4078  -47.3078 N.am      12 UNK        -0.5000 
     70 CA         -2.5149  -23.0548  -47.9149 C.3       12 UNK         0.1400 
     71 CB         -3.7622  -22.1828  -47.7085 C.3       12 UNK        -0.1800 
     72 C          -2.7586  -24.4799  -47.3910 C.2       12 UNK         0.5000 
     73 O          -3.0645  -25.3736  -48.1802 O.2       12 UNK        -0.5000 
     74 N          -2.5782  -24.6755  -46.0777 N.am      13 UNK        -0.5000 
     75 CA         -2.6522  -25.9769  -45.4150 C.3       13 UNK         0.1400 
     76 CB         -2.5942  -25.7800  -43.8927 C.3       13 UNK        -0.1800 
     77 C          -1.5538  -26.9498  -45.8843 C.2       13 UNK         0.5000 
     78 O          -1.8353  -28.1347  -46.0658 O.2       13 UNK        -0.5000 
     79 N          -0.3350  -26.4329  -46.0942 N.am      14 UNK        -0.5000 
     80 CA          0.8020  -27.1893  -46.6197 C.3       14 UNK         0.1400 
     81 CB          2.1006  -26.4114  -46.3550 C.3       14 UNK        -0.1800 
     82 C           0.6505  -27.5177  -48.1175 C.2       14 UNK         0.5000 
     83 O           0.9421  -28.6425  -48.5258 O.2       14 UNK        -0.5000 
     84 N           0.1929  -26.5350  -48.9049 N.am      15 UNK        -0.5000 
     85 CA         -0.0313  -26.6449  -50.3478 C.3       15 UNK         0.1400 
     86 CB         -0.1980  -25.2337  -50.9353 C.3       15 UNK        -0.1800 
     87 C          -1.2459  -27.5162  -50.7190 C.2       15 UNK         0.5000 
     88 O          -1.2689  -28.0757  -51.8158 O.2       15 UNK        -0.5000 
     89 N          -2.2308  -27.5924  -49.8119 N.am      16 UNK        -0.5000 
     90 CA         -3.5423  -28.2305  -49.9653 C.3       16 UNK         0.1400 
     91 CB         -3.4073  -29.7542  -50.1682 C.3       16 UNK        -0.1800 
     92 C          -4.4088  -27.5391  -51.0410 C.2       16 UNK         0.5000 
     93 O          -5.1658  -28.2009  -51.7539 O.2       16 UNK        -0.5000 
     94 N          -4.2823  -26.2110  -51.1304 N.am      17 UNK        -0.5000 
     95 CA         -4.9978  -25.3284  -52.0443 C.3       17 UNK         0.1400 
     96 CB         -4.3426  -25.3619  -53.4360 C.3       17 UNK        -0.1800 
     97 C          -4.9561  -23.9157  -51.4502 C.2       17 UNK         0.5000 
     98 O          -3.9780  -23.5749  -50.7843 O.2       17 UNK        -0.5000 
     99 N          -6.0088  -23.1235  -51.6835 N.am      18 UNK        -0.5000 
    100 CA        -6.1603  -21.7726  -51.1419 C.3       18 UNK         0.1400 
    101 CB        -7.5761  -21.2592  -51.4497 C.3       18 UNK        -0.1800 
    102 C         -5.1004  -20.7960  -51.6842 C.2       18 UNK         0.5000 
    103 O         -5.0283  -20.5898  -52.8960 O.2       18 UNK        -0.5000 
    104 N         -4.3403  -20.1717  -50.7746 N.am      19 UNK        -0.5000 
    105 CA        -3.3107  -19.1721  -51.0821 C.3       19 UNK         0.1400 
    106 CB        -2.5132  -18.8724  -49.8034 C.3       19 UNK        -0.1800 
    107 C         -3.8807  -17.8729  -51.6911 C.2       19 UNK         0.5000 
    108 O         -3.1760  -17.1697  -52.4120 O.2       19 UNK        -0.5000 
    109 N         -5.1607  -17.5903  -51.4121 N.am      20 UNK        -0.5000 
    110 CA        -5.9141  -16.4703  -51.9760 C.3       20 UNK         0.1400 
    111 CB        -7.1456  -16.2170  -51.0923 C.3       20 UNK        -0.1800 
    112 C         -6.3419  -16.6912  -53.4426 C.2       20 UNK         0.5000 
    113 O         -6.7105  -15.7228  -54.1078 O.2       20 UNK        -0.5000 
    114 N         -6.3031  -17.9429  -53.9230 N.am      21 UNK        -0.5000 
    115 CA        -6.7079  -18.3348  -55.2762 C.3       21 UNK         0.1400 
    116 CB        -7.4235  -19.6950  -55.2040 C.3       21 UNK        -0.1800 
    117 C         -5.5265  -18.3723  -56.2683 C.2       21 UNK         0.5000 
    118 O         -5.6971  -18.8508  -57.3910 O.2       21 UNK        -0.5000 
    119 N         -4.3560  -17.8784  -55.8548 N.am      22 UNK        -0.5000 
    120 CA        -3.1128  -17.8471  -56.6335 C.3       22 UNK         0.1400 
    121 C         -2.3116  -16.5373  -56.3917 C.2       22 UNK         0.5000 
    122 N         -1.2351  -16.3147  -57.1348 N.am      22 UNK        -0.7600 
    123 O         -2.6575  -15.7064  -55.5545 O.2       22 UNK        -0.5000 
    124 C124       -2.2718  -19.1401  -56.4353 C.3       23 UNK        -0.0398 
    125 S125       -1.8993  -19.5267  -54.6886 S.3       23 UNK        -0.2404 
    126 C126       -0.1745  -18.9687  -54.5563 C.3       23 UNK        -0.0205 
    127 H127        3.7569  -16.7987  -47.3061 H         1 UNK         0.0600 
    128 H128        2.4859  -16.7273  -46.0926 H         1 UNK         0.0600 
    129 H129        3.9684  -15.7847  -45.8762 H         1 UNK         0.0600 
    130 H130        0.8889  -15.1665  -46.3331 H         1 UNK         0.3000 
    131 H131       -0.4777  -13.7522  -47.2710 H         1 UNK         0.0600 
    132 H132        1.2551  -13.6234  -49.7802 H         1 UNK         0.0800 
    133 H133       -0.3950  -13.0992  -49.6261 H         1 UNK         0.0800 
    134 H134        1.4667  -15.4515  -51.3589 H         1 UNK         0.0800 
    135 H135        2.0029  -16.2171  -49.8864 H         1 UNK         0.0800 
    136 H136        0.2651  -16.7156  -53.0811 H         1 UNK         0.1150 
    137 H137        0.3693  -20.9872  -52.8227 H         1 UNK         0.1150 
    138 H138        1.4686  -18.5915  -49.4296 H         1 UNK         0.1150 
    139 H139        0.2373  -21.6077  -49.8971 H         1 UNK         0.0800 
    140 H140        1.5417  -22.0069  -50.9771 H         1 UNK         0.0800 
    141 H141        0.5027  -20.2022  -47.7954 H         1 UNK         0.0800 
    142 H142        1.9654  -20.1005  -46.8597 H         1 UNK         0.0800 
    143 H143        1.8799  -22.6720  -46.6014 H         1 UNK         0.0600 
    144 H144        0.5041  -20.7384  -45.0748 H         1 UNK         0.3000 
    145 H145       -0.6987  -22.9448  -42.5088 H         1 UNK         0.0600 
    146 H146        0.4919  -21.2273  -41.1638 H         1 UNK         0.0600 
    147 H147        1.6377  -22.3212  -41.9251 H         1 UNK         0.0600 
    148 H148        1.3966  -20.7090  -42.5842 H         1 UNK         0.0600 
    149 H149       -1.0504  -20.1504  -42.8727 H         1 UNK         0.3000 
    150 H150       -4.0262  -20.3278  -44.8876 H         1 UNK         0.0600 
    151 H151       -4.7256  -20.5341  -42.5079 H         1 UNK         0.0600 
    152 H152       -4.7952  -18.8609  -43.0417 H         1 UNK         0.0600 
    153 H153       -3.4681  -19.4058  -42.0195 H         1 UNK         0.0600 
    154 H154       -2.5919  -18.0721  -43.9777 H         1 UNK         0.3000 
    155 H155       -0.3264  -17.7779  -46.7599 H         1 UNK         0.0600 
    156 H156       -1.4674  -15.4736  -46.4062 H         1 UNK         0.0600 
    157 H157       -2.2836  -16.6021  -47.4764 H         1 UNK         0.0600 
    158 H158       -2.8744  -16.3529  -45.8446 H         1 UNK         0.0600 
    159 H159       -0.5644  -16.2728  -44.3540 H         1 UNK         0.3000 
    160 H160        1.6162  -18.2396  -42.3127 H         1 UNK         0.0600 
    161 H161        2.0404  -15.5167  -43.6531 H         1 UNK         0.0600 
    162 H162        3.1869  -16.8464  -43.5911 H         1 UNK         0.0600 
    163 H163        2.7409  -16.0109  -42.1141 H         1 UNK         0.0600 
    164 H164        0.1495  -15.7731  -41.9768 H         1 UNK         0.3000 
    165 H165       -2.8174  -17.2646  -40.6889 H         1 UNK         0.0600 
    166 H166       -2.2840  -15.7822  -38.7701 H         1 UNK         0.0600 
    167 H167       -1.2594  -17.2081  -38.7348 H         1 UNK         0.0600 
    168 H168       -0.6006  -15.6720  -39.2851 H         1 UNK         0.0600 
    169 H169       -1.9697  -14.5504  -41.0195 H         1 UNK         0.3000 
    170 H170       -2.8392  -14.1516  -44.4347 H         1 UNK         0.0600 
    171 H171       -5.0663  -13.9466  -43.3282 H         1 UNK         0.0600 
    172 H172       -4.3303  -13.1220  -41.9590 H         1 UNK         0.0600 
    173 H173       -4.3278  -12.3692  -43.5544 H         1 UNK         0.0600 
    174 H174       -2.0149  -12.3619  -42.3294 H         1 UNK         0.3000 
    175 H175        0.1382  -11.4090  -42.5313 H         1 UNK         0.0600 
    176 H176       -0.1700  -13.0860  -40.6160 H         1 UNK         0.0600 
    177 H177        1.2353  -13.9705  -41.1996 H         1 UNK         0.0600 
    178 H178        1.4040  -12.3326  -40.5804 H         1 UNK         0.0600 
    179 H179        1.7416  -13.0131  -44.1769 H         1 UNK         0.3000 
    180 H180        4.7901  -11.1060  -43.8109 H         1 UNK         0.0600 
    181 H181        4.0210  -14.0557  -44.1471 H         1 UNK         0.0600 
    182 H182        5.0273  -13.4045  -42.8615 H         1 UNK         0.0600 
    183 H183        5.5858  -13.3395  -44.5257 H         1 UNK         0.0600 
    184 H184        3.5885  -12.5087  -46.0229 H         1 UNK         0.3000 
    185 H185        2.0607   -9.7479  -47.5783 H         1 UNK         0.0600 
    186 H186        4.4450   -9.3495  -48.2083 H         1 UNK         0.0600 
    187 H187        4.7154  -11.0836  -48.3426 H         1 UNK         0.0600 
    188 H188        3.6103  -10.2700  -49.4502 H         1 UNK         0.0600 
    189 H189        2.7301  -12.5203  -48.2459 H         1 UNK         0.3000 
    190 H190       -1.5260  -21.5210  -46.8380 H         1 UNK         0.3000 
    191 H191       -2.3078  -23.1217  -48.9827 H         1 UNK         0.0600 
    192 H192       -4.0070  -22.0741  -46.6524 H         1 UNK         0.0600 
    193 H193       -4.6291  -22.6241  -48.2007 H         1 UNK         0.0600 
    194 H194       -3.6196  -21.1856  -48.1213 H         1 UNK         0.0600 
    195 H195       -2.3870  -23.8710  -45.4874 H         1 UNK         0.3000 
    196 H196       -3.6177  -26.4223  -45.6635 H         1 UNK         0.0600 
    197 H197       -2.6686  -26.7351  -43.3716 H         1 UNK         0.0600 
    198 H198       -3.4166  -25.1543  -43.5453 H         1 UNK         0.0600 
    199 H199       -1.6619  -25.3072  -43.5827 H         1 UNK         0.0600 
    200 H200       -0.1797  -25.4507  -45.8986 H         1 UNK         0.3000 
    201 H201        0.8624  -28.1348  -46.0765 H         1 UNK         0.0600 
    202 H202        2.2410  -26.2320  -45.2889 H         1 UNK         0.0600 
    203 H203        2.1043  -25.4441  -46.8579 H         1 UNK         0.0600 
    204 H204        2.9684  -26.9690  -46.7092 H         1 UNK         0.0600 
    205 H205        0.0453  -25.6140  -48.4951 H         1 UNK         0.3000 
    206 H206        0.8536  -27.1006  -50.7966 H         1 UNK         0.0600 
    207 H207        0.6810  -24.6187  -50.7417 H         1 UNK         0.0600 
    208 H208       -0.3373  -25.2720  -52.0164 H         1 UNK         0.0600 
    209 H209       -1.0636  -24.7225  -50.5115 H         1 UNK         0.0600 
    210 H210       -2.1365  -27.0203  -48.9797 H         1 UNK         0.3000 
    211 H211       -4.0601  -28.0735  -49.0180 H         1 UNK         0.0600 
    212 H212       -2.9695  -30.0001  -51.1358 H         1 UNK         0.0600 
    213 H213       -4.3820  -30.2408  -50.1196 H         1 UNK         0.0600 
    214 H214       -2.7836  -30.2003  -49.3935 H         1 UNK         0.0600 
    215 H215       -3.6831  -25.7258  -50.4703 H         1 UNK         0.3000 
    216 H216       -6.0384  -25.6515  -52.1169 H         1 UNK         0.0600 
    217 H217       -3.2943  -25.0634  -53.3909 H         1 UNK         0.0600 
    218 H218       -4.8494  -24.6835  -54.1234 H         1 UNK         0.0600 
    219 H219       -4.3873  -26.3599  -53.8721 H         1 UNK         0.0600 
    220 H220       -6.7578  -23.4584  -52.2716 H         1 UNK         0.3000 
    221 H221       -6.0579  -21.8361  -50.0568 H         1 UNK         0.0600 
    222 H222       -8.3342  -21.8930  -50.9894 H         1 UNK         0.0600 
    223 H223       -7.7699  -21.2312  -52.5225 H         1 UNK         0.0600 
    224 H224       -7.7206  -20.2491  -51.0640 H         1 UNK         0.0600 
    225 H225       -4.4576  -20.4028  -49.7999 H         1 UNK         0.3000 
    226 H226       -2.6263  -19.6055  -51.8133 H         1 UNK         0.0600 
    227 H227       -1.9939  -19.7609  -49.4433 H         1 UNK         0.0600 
    228 H228       -1.7546  -18.1123  -49.9881 H         1 UNK         0.0600 
    229 H229       -3.1544  -18.5069  -49.0009 H         1 UNK         0.0600 
    230 H230       -5.6656  -18.2141  -50.8010 H         1 UNK         0.3000 
    231 H231       -5.2843  -15.5785  -51.9488 H         1 UNK         0.0600 
    232 H232       -7.8136  -17.0792  -51.0759 H         1 UNK         0.0600 
    233 H233       -7.7200  -15.3640  -51.4563 H         1 UNK         0.0600 
    234 H234       -6.8558  -15.9957  -50.0649 H         1 UNK         0.0600 
    235 H235       -5.9264  -18.6855  -53.3453 H         1 UNK         0.3000 
    236 H236       -7.4244  -17.6097  -55.6671 H         1 UNK         0.0600 
    237 H237       -8.2516  -19.6685  -54.4957 H         1 UNK         0.0600 
    238 H238       -7.8388  -19.9716  -56.1738 H         1 UNK         0.0600 
    239 H239       -6.7454  -20.4929  -54.9013 H         1 UNK         0.0600 
    240 H240       -4.2871  -17.4690  -54.9325 H         1 UNK         0.3000 
    241 H241       -3.3886  -17.7969  -57.6885 H         1 UNK         0.0600 
    242 H242       -0.7152  -15.4627  -56.9924 H         1 UNK         0.3800 
    243 H243       -0.9389  -16.9567  -57.8533 H         1 UNK         0.3800 
    244 H244       -1.3476  -19.1047  -57.0135 H         1 UNK         0.0800 
    245 H245       -2.8283  -19.9868  -56.8390 H         1 UNK         0.0800 
    246 H246        0.4734  -19.6657  -55.0897 H         1 UNK         0.0800 
    247 H247       -0.0631  -18.0029  -55.0504 H         1 UNK         0.0800 
@<TRIPOS>BOND
     1    1    2 1    
     2    1  127 1    
     3    1  128 1    
     4    1  129 1    
     5    2    3 2    
     6    2    4 am   BACKBONE|DICT|INTERRES
     7    4    5 1    
     8    4  130 1    
     9    5    6 1    
    10    5   65 1    
    11    5  131 1    
    12    6    7 1    
    13    6  132 1    
    14    6  133 1    
    15    7    8 1    
    16    8    9 1    
    17    8  134 1    
    18    8  135 1    
    19    9   10 ar   
    20    9   14 ar   
    21   10   11 ar   
    22   10  136 1    
    23   11   12 ar   
    24   11  126 1    
    25   12   13 ar   
    26   12  137 1    
    27   13   14 ar   
    28   13   15 1    
    29   14  138 1    
    30   15   16 1    
    31   15  139 1    
    32   15  140 1    
    33   16   17 1    
    34   17   18 1    
    35   17  141 1    
    36   17  142 1    
    37   18   19 1    
    38   18   67 1    
    39   18  143 1    
    40   19   20 am   BACKBONE|DICT|INTERRES
    41   19  144 1    
    42   20   21 2    
    43   20   22 1    
    44   22   23 1    
    45   22   24 1    
    46   22  145 1    
    47   23  146 1    
    48   23  147 1    
    49   23  148 1    
    50   24   25 am   BACKBONE|DICT|INTERRES
    51   24  149 1    
    52   25   26 2    
    53   25   27 1    
    54   27   28 1    
    55   27   29 1    
    56   27  150 1    
    57   28  151 1    
    58   28  152 1    
    59   28  153 1    
    60   29   30 am   BACKBONE|DICT|INTERRES
    61   29  154 1    
    62   30   31 2    
    63   30   32 1    
    64   32   33 1    
    65   32   34 1    
    66   32  155 1    
    67   33  156 1    
    68   33  157 1    
    69   33  158 1    
    70   34   35 am   BACKBONE|DICT|INTERRES
    71   34  159 1    
    72   35   36 2    
    73   35   37 1    
    74   37   38 1    
    75   37   39 1    
    76   37  160 1    
    77   38  161 1    
    78   38  162 1    
    79   38  163 1    
    80   39   40 am   BACKBONE|DICT|INTERRES
    81   39  164 1    
    82   40   41 2    
    83   40   42 1    
    84   42   43 1    
    85   42   44 1    
    86   42  165 1    
    87   43  166 1    
    88   43  167 1    
    89   43  168 1    
    90   44   45 am   BACKBONE|DICT|INTERRES
    91   44  169 1    
    92   45   46 2    
    93   45   47 1    
    94   47   48 1    
    95   47   49 1    
    96   47  170 1    
    97   48  171 1    
    98   48  172 1    
    99   48  173 1    
   100   49   50 am   BACKBONE|DICT|INTERRES
   101   49  174 1    
   102   50   51 2    
   103   50   52 1    
   104   52   53 1    
   105   52   54 1    
   106   52  175 1    
   107   53  176 1    
   108   53  177 1    
   109   53  178 1    
   110   54   55 am   BACKBONE|DICT|INTERRES
   111   54  179 1    
   112   55   56 2    
   113   55   57 1    
   114   57   58 1    
   115   57   59 1    
   116   57  180 1    
   117   58  181 1    
   118   58  182 1    
   119   58  183 1    
   120   59   60 am   BACKBONE|DICT|INTERRES
   121   59  184 1    
   122   60   61 2    
   123   60   62 1    
   124   62   63 1    
   125   62   64 1    
   126   62  185 1    
   127   63  186 1    
   128   63  187 1    
   129   63  188 1    
   130   64   65 am   BACKBONE|DICT|INTERRES
   131   64  189 1    
   132   65   66 2    
   133   67   68 2    
   134   67   69 am   BACKBONE|DICT|INTERRES
   135   69   70 1    
   136   69  190 1    
   137   70   71 1    
   138   70   72 1    
   139   70  191 1    
   140   71  192 1    
   141   71  193 1    
   142   71  194 1    
   143   72   73 2    
   144   72   74 am   BACKBONE|DICT|INTERRES
   145   74   75 1    
   146   74  195 1    
   147   75   76 1    
   148   75   77 1    
   149   75  196 1    
   150   76  197 1    
   151   76  198 1    
   152   76  199 1    
   153   77   78 2    
   154   77   79 am   BACKBONE|DICT|INTERRES
   155   79   80 1    
   156   79  200 1    
   157   80   81 1    
   158   80   82 1    
   159   80  201 1    
   160   81  202 1    
   161   81  203 1    
   162   81  204 1    
   163   82   83 2    
   164   82   84 am   BACKBONE|DICT|INTERRES
   165   84   85 1    
   166   84  205 1    
   167   85   86 1    
   168   85   87 1    
   169   85  206 1    
   170   86  207 1    
   171   86  208 1    
   172   86  209 1    
   173   87   88 2    
   174   87   89 am   BACKBONE|DICT|INTERRES
   175   89   90 1    
   176   89  210 1    
   177   90   91 1    
   178   90   92 1    
   179   90  211 1    
   180   91  212 1    
   181   91  213 1    
   182   91  214 1    
   183   92   93 2    
   184   92   94 am   BACKBONE|DICT|INTERRES
   185   94   95 1    
   186   94  215 1    
   187   95   96 1    
   188   95   97 1    
   189   95  216 1    
   190   96  217 1    
   191   96  218 1    
   192   96  219 1    
   193   97   98 2    
   194   97   99 am   BACKBONE|DICT|INTERRES
   195   99  100 1    
   196   99  220 1    
   197  100  101 1    
   198  100  102 1    
   199  100  221 1    
   200  101  222 1    
   201  101  223 1    
   202  101  224 1    
   203  102  103 2    
   204  102  104 am   BACKBONE|DICT|INTERRES
   205  104  105 1    
   206  104  225 1    
   207  105  106 1    
   208  105  107 1    
   209  105  226 1    
   210  106  227 1    
   211  106  228 1    
   212  106  229 1    
   213  107  108 2    
   214  107  109 am   BACKBONE|DICT|INTERRES
   215  109  110 1    
   216  109  230 1    
   217  110  111 1    
   218  110  112 1    
   219  110  231 1    
   220  111  232 1    
   221  111  233 1    
   222  111  234 1    
   223  112  113 2    
   224  112  114 am   BACKBONE|DICT|INTERRES
   225  114  115 1    
   226  114  235 1    
   227  115  116 1    
   228  115  117 1    
   229  115  236 1    
   230  116  237 1    
   231  116  238 1    
   232  116  239 1    
   233  117  118 2    
   234  117  119 am   BACKBONE|DICT|INTERRES
   235  119  120 1    
   236  119  240 1    
   237  120  121 1    
   238  120  124 1    
   239  120  241 1    
   240  121  122 am   BACKBONE|DICT|INTERRES
   241  121  123 2    
   242  122  242 1    
   243  122  243 1    
   244  124  125 1    
   245  124  244 1    
   246  124  245 1    
   247  125  126 1    
   248  126  246 1    
   249  126  247 1    
@<TRIPOS>SUBSTRUCTURE
     1 UNK         1 GROUP             0       ****    0 ROOT    
