@<TRIPOS>MOLECULE
3R540
247   249    1
SMALL
USER_CHARGES


@<TRIPOS>ATOM
      1 CA         -3.6701  -15.4327  -46.9740 C.3       0 UNK        -0.1800 
      2 C          -2.9877  -14.4335  -47.8954 C.2       0 UNK         0.5000 
      3 O          -3.6399  -13.5261  -48.4134 O.2       0 UNK        -0.5000 
      4 N          -1.6740  -14.5914  -48.1012 N.am      1 UNK        -0.5000 
      5 CA         -0.8486  -13.7519  -48.9794 C.3       1 UNK         0.1400 
      6 C6          0.3946  -14.5031  -49.5250 C.3       23 UNK        -0.0398 
      7 S7         -0.0446  -16.0282  -50.4298 S.3       23 UNK        -0.2404 
      8 C8          0.7826  -17.2982  -49.4152 C.3       23 UNK        -0.0205 
      9 C9          0.0501  -18.6331  -49.4182 C.ar      23 UNK        -0.0193 
     10 C10        -1.2955  -18.6949  -49.0462 C.ar      23 UNK        -0.1150 
     11 C11        -1.9537  -19.9207  -48.9223 C.ar      23 UNK        -0.0193 
     12 C12        -1.2463  -21.0982  -49.1813 C.ar      23 UNK        -0.1150 
     13 C13         0.0925  -21.0537  -49.5790 C.ar      23 UNK        -0.0193 
     14 C14         0.7335  -19.8177  -49.7074 C.ar      23 UNK        -0.1150 
     15 C15         0.8538  -22.3513  -49.8066 C.3       23 UNK        -0.0205 
     16 S16         2.2039  -22.6174  -48.6060 S.3       23 UNK        -0.2404 
     17 C17         1.4411  -22.2020  -46.9964 C.3       23 UNK        -0.0398 
     18 CA          0.9249  -23.4151  -46.1910 C.3       11 UNK         0.1400 
     19 N           0.7946  -23.0719  -44.7715 N.am      11 UNK        -0.5000 
     20 C           0.4747  -23.9137  -43.7794 C.2       10 UNK         0.5000 
     21 O           0.2173  -25.1056  -43.9475 O.2       10 UNK        -0.5000 
     22 CA          0.4072  -23.3078  -42.3672 C.3       10 UNK         0.1400 
     23 CB          1.8157  -23.0987  -41.7894 C.3       10 UNK        -0.1800 
     24 N          -0.3116  -22.0344  -42.3731 N.am      10 UNK        -0.5000 
     25 C          -1.6470  -21.9265  -42.3473 C.2       9 UNK         0.5000 
     26 O          -2.4078  -22.8871  -42.2255 O.2       9 UNK        -0.5000 
     27 CA         -2.2392  -20.5109  -42.5013 C.3       9 UNK         0.1400 
     28 CB         -2.3814  -19.8348  -41.1294 C.3       9 UNK        -0.1800 
     29 N          -1.4671  -19.6368  -43.3862 N.am      9 UNK        -0.5000 
     30 C          -1.2200  -19.8798  -44.6811 C.2       8 UNK         0.5000 
     31 O          -1.6217  -20.8726  -45.2822 O.2       8 UNK        -0.5000 
     32 CA         -0.3295  -18.8662  -45.4167 C.3       8 UNK         0.1400 
     33 CB         -1.1646  -17.6537  -45.8417 C.3       8 UNK        -0.1800 
     34 N           0.8141  -18.4163  -44.6224 N.am      8 UNK        -0.5000 
     35 C           1.7414  -19.2092  -44.0654 C.2       7 UNK         0.5000 
     36 O           1.7456  -20.4366  -44.1603 O.2       7 UNK        -0.5000 
     37 CA          2.8135  -18.5125  -43.2143 C.3       7 UNK         0.1400 
     38 CB          3.9072  -17.8985  -44.1013 C.3       7 UNK        -0.1800 
     39 N           2.2190  -17.4776  -42.3695 N.am      7 UNK        -0.5000 
     40 C           1.5345  -17.7281  -41.2444 C.2       6 UNK         0.5000 
     41 O           1.4012  -18.8526  -40.7608 O.2       6 UNK        -0.5000 
     42 CA          0.8657  -16.5223  -40.5565 C.3       6 UNK         0.1400 
     43 CB          1.8464  -15.8376  -39.5928 C.3       6 UNK        -0.1800 
     44 N           0.3536  -15.5327  -41.5068 N.am      6 UNK        -0.5000 
     45 C          -0.6706  -15.7467  -42.3446 C.2       5 UNK         0.5000 
     46 O          -1.3091  -16.7986  -42.3850 O.2       5 UNK        -0.5000 
     47 CA         -1.0117  -14.6098  -43.3300 C.3       5 UNK         0.1400 
     48 CB         -2.0074  -13.6305  -42.6925 C.3       5 UNK        -0.1800 
     49 N           0.1533  -13.8659  -43.8192 N.am      5 UNK        -0.5000 
     50 C           1.2153  -14.3929  -44.4464 C.2       4 UNK         0.5000 
     51 O           1.3279  -15.5986  -44.6700 O.2       4 UNK        -0.5000 
     52 CA          2.3415  -13.4300  -44.8801 C.3       4 UNK         0.1400 
     53 CB          3.0792  -13.9268  -46.1347 C.3       4 UNK        -0.1800 
     54 N           1.8640  -12.0651  -45.1142 N.am      4 UNK        -0.5000 
     55 C           1.7698  -11.1123  -44.1757 C.2       3 UNK         0.5000 
     56 O           2.0720  -11.2949  -42.9962 O.2       3 UNK        -0.5000 
     57 CA          1.2279   -9.7340  -44.6054 C.3       3 UNK         0.1400 
     58 CB          2.3830   -8.7373  -44.7862 C.3       3 UNK        -0.1800 
     59 N           0.4323   -9.7612  -45.8339 N.am      3 UNK        -0.5000 
     60 C          -0.7615  -10.3532  -45.9722 C.2       2 UNK         0.5000 
     61 O          -1.3334  -10.9527  -45.0610 O.2       2 UNK        -0.5000 
     62 CA         -1.4270  -10.2834  -47.3628 C.3       2 UNK         0.1400 
     63 CB         -0.7841   -9.2549  -48.3208 C.3       2 UNK        -0.1800 
     64 N          -1.4908  -11.5992  -48.0037 N.am      2 UNK        -0.5000 
     65 C          -0.4735  -12.4297  -48.2721 C.2       1 UNK         0.5000 
     66 O           0.6986  -12.1961  -47.9685 O.2       1 UNK        -0.5000 
     67 C          -0.3748  -23.9962  -46.7903 C.2       11 UNK         0.5000 
     68 O          -0.3004  -24.9244  -47.5946 O.2       11 UNK        -0.5000 
     69 N          -1.5360  -23.4976  -46.3404 N.am      12 UNK        -0.5000 
     70 CA         -2.8820  -23.9459  -46.7148 C.3       12 UNK         0.1400 
     71 CB         -3.9159  -23.1148  -45.9382 C.3       12 UNK        -0.1800 
     72 C          -3.1562  -25.4473  -46.4909 C.2       12 UNK         0.5000 
     73 O          -4.0256  -26.0086  -47.1585 O.2       12 UNK        -0.5000 
     74 N          -2.4250  -26.0748  -45.5592 N.am      13 UNK        -0.5000 
     75 CA         -2.5022  -27.5095  -45.2876 C.3       13 UNK         0.1400 
     76 CB         -2.0039  -27.7719  -43.8580 C.3       13 UNK        -0.1800 
     77 C          -1.7052  -28.3575  -46.2997 C.2       13 UNK         0.5000 
     78 O          -1.9445  -29.5632  -46.3818 O.2       13 UNK        -0.5000 
     79 N          -0.7677  -27.7363  -47.0284 N.am      14 UNK        -0.5000 
     80 CA          0.1454  -28.4001  -47.9569 C.3       14 UNK         0.1400 
     81 CB          1.5857  -27.9858  -47.6132 C.3       14 UNK        -0.1800 
     82 C          -0.1652  -28.0648  -49.4244 C.2       14 UNK         0.5000 
     83 O          -0.0533  -28.9487  -50.2755 O.2       14 UNK        -0.5000 
     84 N          -0.5258  -26.8078  -49.7084 N.am      15 UNK        -0.5000 
     85 CA         -0.7188  -26.2777  -51.0564 C.3       15 UNK         0.1400 
     86 CB          0.6585  -25.9643  -51.6850 C.3       15 UNK        -0.1800 
     87 C          -1.6566  -25.0556  -51.0292 C.2       15 UNK         0.5000 
     88 O          -2.3976  -24.8631  -50.0652 O.2       15 UNK        -0.5000 
     89 N          -1.6036  -24.2520  -52.0941 N.am      16 UNK        -0.5000 
     90 CA         -2.2998  -22.9816  -52.2661 C.3       16 UNK         0.1400 
     91 CB         -3.5823  -23.2159  -53.0821 C.3       16 UNK        -0.1800 
     92 C          -1.3423  -22.0153  -52.9832 C.2       16 UNK         0.5000 
     93 O          -0.3290  -22.4568  -53.5360 O.2       16 UNK        -0.5000 
     94 N          -1.6692  -20.7200  -52.9672 N.am      17 UNK        -0.5000 
     95 CA         -0.9053  -19.6732  -53.6455 C.3       17 UNK         0.1400 
     96 CB         -1.2625  -18.3188  -53.0141 C.3       17 UNK        -0.1800 
     97 C          -1.1965  -19.6434  -55.1575 C.2       17 UNK         0.5000 
     98 O          -2.1583  -20.2601  -55.6227 O.2       17 UNK        -0.5000 
     99 N          -0.4053  -18.8548  -55.8980 N.am      18 UNK        -0.5000 
    100 CA        -0.6150  -18.5716  -57.3241 C.3       18 UNK         0.1400 
    101 CB         0.5896  -17.7863  -57.8643 C.3       18 UNK        -0.1800 
    102 C         -1.9286  -17.8102  -57.6072 C.2       18 UNK         0.5000 
    103 O         -2.5146  -17.9805  -58.6762 O.2       18 UNK        -0.5000 
    104 N         -2.3804  -17.0199  -56.6242 N.am      19 UNK        -0.5000 
    105 CA        -3.6664  -16.3190  -56.6039 C.3       19 UNK         0.1400 
    106 CB        -3.4322  -14.8952  -56.0684 C.3       19 UNK        -0.1800 
    107 C         -4.7165  -17.0764  -55.7596 C.2       19 UNK         0.5000 
    108 O         -5.6843  -16.4652  -55.3031 O.2       19 UNK        -0.5000 
    109 N         -4.4947  -18.3811  -55.5370 N.am      20 UNK        -0.5000 
    110 CA        -5.2219  -19.3048  -54.6625 C.3       20 UNK         0.1400 
    111 CB        -6.7122  -19.4308  -55.0377 C.3       20 UNK        -0.1800 
    112 C         -5.0125  -18.9774  -53.1755 C.2       20 UNK         0.5000 
    113 O         -4.3563  -19.7503  -52.4794 O.2       20 UNK        -0.5000 
    114 N         -5.5609  -17.8409  -52.7226 N.am      21 UNK        -0.5000 
    115 CA        -5.5075  -17.2582  -51.3706 C.3       21 UNK         0.1400 
    116 CB        -4.0539  -16.9185  -50.9855 C.3       21 UNK        -0.1800 
    117 C         -6.1980  -18.0766  -50.2539 C.2       21 UNK         0.5000 
    118 O         -6.4505  -17.5322  -49.1786 O.2       21 UNK        -0.5000 
    119 N         -6.4989  -19.3486  -50.5148 N.am      22 UNK        -0.5000 
    120 CA        -7.0704  -20.3383  -49.6001 C.3       22 UNK         0.1400 
    121 C         -7.6655  -21.5358  -50.3915 C.2       22 UNK         0.5000 
    122 N         -8.4481  -22.3875  -49.7423 N.am      22 UNK        -0.7600 
    123 O         -7.4363  -21.7026  -51.5887 O.2       22 UNK        -0.5000 
    124 C124       -6.0686  -20.7859  -48.4963 C.3       23 UNK        -0.0398 
    125 S125       -4.4230  -21.2755  -49.1311 S.3       23 UNK        -0.2404 
    126 C126       -3.3975  -19.9386  -48.4318 C.3       23 UNK        -0.0205 
    127 H127       -4.7043  -15.1416  -46.7894 H         1 UNK         0.0600 
    128 H128       -3.1591  -15.4835  -46.0134 H         1 UNK         0.0600 
    129 H129       -3.6758  -16.4249  -47.4252 H         1 UNK         0.0600 
    130 H130       -1.1852  -15.3396  -47.6349 H         1 UNK         0.3000 
    131 H131       -1.4497  -13.4768  -49.8492 H         1 UNK         0.0600 
    132 H132        0.9470  -13.8616  -50.2138 H         1 UNK         0.0800 
    133 H133        1.0874  -14.7392  -48.7182 H         1 UNK         0.0800 
    134 H134        1.8070  -17.4145  -49.7717 H         1 UNK         0.0800 
    135 H135        0.8541  -16.9677  -48.3789 H         1 UNK         0.0800 
    136 H136       -1.8232  -17.7792  -48.8222 H         1 UNK         0.1150 
    137 H137       -1.7306  -22.0553  -49.0512 H         1 UNK         0.1150 
    138 H138        1.7780  -19.7863  -49.9838 H         1 UNK         0.1150 
    139 H139        0.1772  -23.2036  -49.7530 H         1 UNK         0.0800 
    140 H140        1.2664  -22.3530  -50.8163 H         1 UNK         0.0800 
    141 H141        2.2326  -21.7094  -46.4309 H         1 UNK         0.0800 
    142 H142        0.6616  -21.4496  -47.0982 H         1 UNK         0.0800 
    143 H143        1.6801  -24.2021  -46.2448 H         1 UNK         0.0600 
    144 H144        1.0114  -22.1083  -44.5284 H         1 UNK         0.3000 
    145 H145       -0.1176  -24.0152  -41.7213 H         1 UNK         0.0600 
    146 H146        1.7687  -22.7142  -40.7704 H         1 UNK         0.0600 
    147 H147        2.3665  -24.0395  -41.7573 H         1 UNK         0.0600 
    148 H148        2.4006  -22.3962  -42.3838 H         1 UNK         0.0600 
    149 H149        0.2406  -21.1986  -42.5110 H         1 UNK         0.3000 
    150 H150       -3.2353  -20.6191  -42.9352 H         1 UNK         0.0600 
    151 H151       -2.9618  -20.4544  -40.4445 H         1 UNK         0.0600 
    152 H152       -2.8939  -18.8763  -41.2139 H         1 UNK         0.0600 
    153 H153       -1.4093  -19.6543  -40.6687 H         1 UNK         0.0600 
    154 H154       -1.1411  -18.7622  -42.9882 H         1 UNK         0.3000 
    155 H155        0.0609  -19.3446  -46.3157 H         1 UNK         0.0600 
    156 H156       -0.5697  -16.9341  -46.4022 H         1 UNK         0.0600 
    157 H157       -1.5912  -17.1467  -44.9800 H         1 UNK         0.0600 
    158 H158       -2.0014  -17.9613  -46.4669 H         1 UNK         0.0600 
    159 H159        0.9227  -17.4102  -44.5211 H         1 UNK         0.3000 
    160 H160        3.2803  -19.2658  -42.5758 H         1 UNK         0.0600 
    161 H161        3.5070  -17.1466  -44.7814 H         1 UNK         0.0600 
    162 H162        4.3882  -18.6653  -44.7097 H         1 UNK         0.0600 
    163 H163        4.6837  -17.4266  -43.4993 H         1 UNK         0.0600 
    164 H164        2.2258  -16.5362  -42.7354 H         1 UNK         0.3000 
    165 H165        0.0225  -16.9003  -39.9741 H         1 UNK         0.0600 
    166 H166        2.7024  -15.4153  -40.1205 H         1 UNK         0.0600 
    167 H167        1.3603  -15.0324  -39.0416 H         1 UNK         0.0600 
    168 H168        2.2306  -16.5468  -38.8582 H         1 UNK         0.0600 
    169 H169        0.8234  -14.6397  -41.5381 H         1 UNK         0.3000 
    170 H170       -1.4953  -15.0545  -44.1989 H         1 UNK         0.0600 
    171 H171       -2.8882  -14.1549  -42.3192 H         1 UNK         0.0600 
    172 H172       -1.5635  -13.0932  -41.8536 H         1 UNK         0.0600 
    173 H173       -2.3547  -12.8942  -43.4172 H         1 UNK         0.0600 
    174 H174        0.1317  -12.8644  -43.6897 H         1 UNK         0.3000 
    175 H175        3.0676  -13.4190  -44.0649 H         1 UNK         0.0600 
    176 H176        3.8771  -13.2413  -46.4204 H         1 UNK         0.0600 
    177 H177        3.5380  -14.9014  -45.9647 H         1 UNK         0.0600 
    178 H178        2.4045  -14.0258  -46.9827 H         1 UNK         0.0600 
    179 H179        1.5458  -11.8597  -46.0557 H         1 UNK         0.3000 
    180 H180        0.5872   -9.3715  -43.7990 H         1 UNK         0.0600 
    181 H181        3.0492   -9.0369  -45.5963 H         1 UNK         0.0600 
    182 H182        2.9829   -8.6641  -43.8780 H         1 UNK         0.0600 
    183 H183        2.0108   -7.7370  -45.0086 H         1 UNK         0.0600 
    184 H184        0.8400   -9.3170  -46.6438 H         1 UNK         0.3000 
    185 H185       -2.4582   -9.9723  -47.1899 H         1 UNK         0.0600 
    186 H186       -1.3538   -9.1819  -49.2473 H         1 UNK         0.0600 
    187 H187       -0.7694   -8.2583  -47.8776 H         1 UNK         0.0600 
    188 H188        0.2399   -9.5186  -48.5877 H         1 UNK         0.0600 
    189 H189       -2.4230  -11.9409  -48.2179 H         1 UNK         0.3000 
    190 H190       -1.5010  -22.6824  -45.7324 H         1 UNK         0.3000 
    191 H191       -3.0104  -23.7441  -47.7784 H         1 UNK         0.0600 
    192 H192       -4.9332  -23.4149  -46.1926 H         1 UNK         0.0600 
    193 H193       -3.8291  -22.0551  -46.1716 H         1 UNK         0.0600 
    194 H194       -3.7951  -23.2304  -44.8603 H         1 UNK         0.0600 
    195 H195       -1.7180  -25.5537  -45.0546 H         1 UNK         0.3000 
    196 H196       -3.5464  -27.8247  -45.3420 H         1 UNK         0.0600 
    197 H197       -2.1227  -28.8226  -43.5905 H         1 UNK         0.0600 
    198 H198       -2.5640  -27.1858  -43.1291 H         1 UNK         0.0600 
    199 H199       -0.9475  -27.5249  -43.7480 H         1 UNK         0.0600 
    200 H200       -0.6711  -26.7290  -46.9511 H         1 UNK         0.3000 
    201 H201        0.0790  -29.4846  -47.8486 H         1 UNK         0.0600 
    202 H202        1.8451  -28.2742  -46.5945 H         1 UNK         0.0600 
    203 H203        1.7286  -26.9079  -47.7019 H         1 UNK         0.0600 
    204 H204        2.3013  -28.4681  -48.2803 H         1 UNK         0.0600 
    205 H205       -0.6198  -26.1249  -48.9583 H         1 UNK         0.3000 
    206 H206       -1.2190  -27.0347  -51.6637 H         1 UNK         0.0600 
    207 H207        1.3114  -26.8370  -51.6681 H         1 UNK         0.0600 
    208 H208        0.5698  -25.6651  -52.7295 H         1 UNK         0.0600 
    209 H209        1.1678  -25.1620  -51.1497 H         1 UNK         0.0600 
    210 H210       -0.9122  -24.4295  -52.8117 H         1 UNK         0.3000 
    211 H211       -2.5576  -22.5551  -51.2954 H         1 UNK         0.0600 
    212 H212       -3.3616  -23.6169  -54.0720 H         1 UNK         0.0600 
    213 H213       -4.1372  -22.2884  -53.2196 H         1 UNK         0.0600 
    214 H214       -4.2471  -23.9155  -52.5753 H         1 UNK         0.0600 
    215 H215       -2.5604  -20.4358  -52.5679 H         1 UNK         0.3000 
    216 H216        0.1600  -19.8596  -53.4942 H         1 UNK         0.0600 
    217 H217       -0.5721  -17.5380  -53.3337 H         1 UNK         0.0600 
    218 H218       -1.2108  -18.3685  -51.9282 H         1 UNK         0.0600 
    219 H219       -2.2681  -17.9954  -53.2812 H         1 UNK         0.0600 
    220 H220        0.3671  -18.3781  -55.4548 H         1 UNK         0.3000 
    221 H221       -0.6673  -19.5257  -57.8528 H         1 UNK         0.0600 
    222 H222        0.7068  -16.8281  -57.3566 H         1 UNK         0.0600 
    223 H223        1.5153  -18.3485  -57.7403 H         1 UNK         0.0600 
    224 H224        0.4761  -17.5814  -58.9297 H         1 UNK         0.0600 
    225 H225       -1.8241  -16.9476  -55.7851 H         1 UNK         0.3000 
    226 H226       -4.0666  -16.2384  -57.6164 H         1 UNK         0.0600 
    227 H227       -2.6859  -14.3686  -56.6635 H         1 UNK         0.0600 
    228 H228       -4.3478  -14.3036  -56.1057 H         1 UNK         0.0600 
    229 H229       -3.0891  -14.9064  -55.0330 H         1 UNK         0.0600 
    230 H230       -3.6557  -18.7838  -55.9378 H         1 UNK         0.3000 
    231 H231       -4.7715  -20.2843  -54.8305 H         1 UNK         0.0600 
    232 H232       -7.1992  -20.1898  -54.4238 H         1 UNK         0.0600 
    233 H233       -6.8290  -19.7319  -56.0786 H         1 UNK         0.0600 
    234 H234       -7.2624  -18.5009  -54.8962 H         1 UNK         0.0600 
    235 H235       -6.0326  -17.2705  -53.4165 H         1 UNK         0.3000 
    236 H236       -6.0566  -16.3179  -51.4354 H         1 UNK         0.0600 
    237 H237       -3.5849  -16.2768  -51.7311 H         1 UNK         0.0600 
    238 H238       -4.0144  -16.3899  -50.0332 H         1 UNK         0.0600 
    239 H239       -3.4431  -17.8151  -50.8836 H         1 UNK         0.0600 
    240 H240       -6.2102  -19.7368  -51.4043 H         1 UNK         0.3000 
    241 H241       -7.9208  -19.8588  -49.1120 H         1 UNK         0.0600 
    242 H242       -8.6689  -22.2717  -48.7655 H         1 UNK         0.3800 
    243 H243       -8.8406  -23.1673  -50.2467 H         1 UNK         0.3800 
    244 H244       -5.9473  -19.9743  -47.7780 H         1 UNK         0.0800 
    245 H245       -6.4709  -21.6165  -47.9149 H         1 UNK         0.0800 
    246 H246       -3.3900  -20.0267  -47.3453 H         1 UNK         0.0800 
    247 H247       -3.8719  -18.9846  -48.6622 H         1 UNK         0.0800 
@<TRIPOS>BOND
     1    1    2 1    
     2    1  127 1    
     3    1  128 1    
     4    1  129 1    
     5    2    3 2    
     6    2    4 am   BACKBONE|DICT|INTERRES
     7    4    5 1    
     8    4  130 1    
     9    5    6 1    
    10    5   65 1    
    11    5  131 1    
    12    6    7 1    
    13    6  132 1    
    14    6  133 1    
    15    7    8 1    
    16    8    9 1    
    17    8  134 1    
    18    8  135 1    
    19    9   10 ar   
    20    9   14 ar   
    21   10   11 ar   
    22   10  136 1    
    23   11   12 ar   
    24   11  126 1    
    25   12   13 ar   
    26   12  137 1    
    27   13   14 ar   
    28   13   15 1    
    29   14  138 1    
    30   15   16 1    
    31   15  139 1    
    32   15  140 1    
    33   16   17 1    
    34   17   18 1    
    35   17  141 1    
    36   17  142 1    
    37   18   19 1    
    38   18   67 1    
    39   18  143 1    
    40   19   20 am   BACKBONE|DICT|INTERRES
    41   19  144 1    
    42   20   21 2    
    43   20   22 1    
    44   22   23 1    
    45   22   24 1    
    46   22  145 1    
    47   23  146 1    
    48   23  147 1    
    49   23  148 1    
    50   24   25 am   BACKBONE|DICT|INTERRES
    51   24  149 1    
    52   25   26 2    
    53   25   27 1    
    54   27   28 1    
    55   27   29 1    
    56   27  150 1    
    57   28  151 1    
    58   28  152 1    
    59   28  153 1    
    60   29   30 am   BACKBONE|DICT|INTERRES
    61   29  154 1    
    62   30   31 2    
    63   30   32 1    
    64   32   33 1    
    65   32   34 1    
    66   32  155 1    
    67   33  156 1    
    68   33  157 1    
    69   33  158 1    
    70   34   35 am   BACKBONE|DICT|INTERRES
    71   34  159 1    
    72   35   36 2    
    73   35   37 1    
    74   37   38 1    
    75   37   39 1    
    76   37  160 1    
    77   38  161 1    
    78   38  162 1    
    79   38  163 1    
    80   39   40 am   BACKBONE|DICT|INTERRES
    81   39  164 1    
    82   40   41 2    
    83   40   42 1    
    84   42   43 1    
    85   42   44 1    
    86   42  165 1    
    87   43  166 1    
    88   43  167 1    
    89   43  168 1    
    90   44   45 am   BACKBONE|DICT|INTERRES
    91   44  169 1    
    92   45   46 2    
    93   45   47 1    
    94   47   48 1    
    95   47   49 1    
    96   47  170 1    
    97   48  171 1    
    98   48  172 1    
    99   48  173 1    
   100   49   50 am   BACKBONE|DICT|INTERRES
   101   49  174 1    
   102   50   51 2    
   103   50   52 1    
   104   52   53 1    
   105   52   54 1    
   106   52  175 1    
   107   53  176 1    
   108   53  177 1    
   109   53  178 1    
   110   54   55 am   BACKBONE|DICT|INTERRES
   111   54  179 1    
   112   55   56 2    
   113   55   57 1    
   114   57   58 1    
   115   57   59 1    
   116   57  180 1    
   117   58  181 1    
   118   58  182 1    
   119   58  183 1    
   120   59   60 am   BACKBONE|DICT|INTERRES
   121   59  184 1    
   122   60   61 2    
   123   60   62 1    
   124   62   63 1    
   125   62   64 1    
   126   62  185 1    
   127   63  186 1    
   128   63  187 1    
   129   63  188 1    
   130   64   65 am   BACKBONE|DICT|INTERRES
   131   64  189 1    
   132   65   66 2    
   133   67   68 2    
   134   67   69 am   BACKBONE|DICT|INTERRES
   135   69   70 1    
   136   69  190 1    
   137   70   71 1    
   138   70   72 1    
   139   70  191 1    
   140   71  192 1    
   141   71  193 1    
   142   71  194 1    
   143   72   73 2    
   144   72   74 am   BACKBONE|DICT|INTERRES
   145   74   75 1    
   146   74  195 1    
   147   75   76 1    
   148   75   77 1    
   149   75  196 1    
   150   76  197 1    
   151   76  198 1    
   152   76  199 1    
   153   77   78 2    
   154   77   79 am   BACKBONE|DICT|INTERRES
   155   79   80 1    
   156   79  200 1    
   157   80   81 1    
   158   80   82 1    
   159   80  201 1    
   160   81  202 1    
   161   81  203 1    
   162   81  204 1    
   163   82   83 2    
   164   82   84 am   BACKBONE|DICT|INTERRES
   165   84   85 1    
   166   84  205 1    
   167   85   86 1    
   168   85   87 1    
   169   85  206 1    
   170   86  207 1    
   171   86  208 1    
   172   86  209 1    
   173   87   88 2    
   174   87   89 am   BACKBONE|DICT|INTERRES
   175   89   90 1    
   176   89  210 1    
   177   90   91 1    
   178   90   92 1    
   179   90  211 1    
   180   91  212 1    
   181   91  213 1    
   182   91  214 1    
   183   92   93 2    
   184   92   94 am   BACKBONE|DICT|INTERRES
   185   94   95 1    
   186   94  215 1    
   187   95   96 1    
   188   95   97 1    
   189   95  216 1    
   190   96  217 1    
   191   96  218 1    
   192   96  219 1    
   193   97   98 2    
   194   97   99 am   BACKBONE|DICT|INTERRES
   195   99  100 1    
   196   99  220 1    
   197  100  101 1    
   198  100  102 1    
   199  100  221 1    
   200  101  222 1    
   201  101  223 1    
   202  101  224 1    
   203  102  103 2    
   204  102  104 am   BACKBONE|DICT|INTERRES
   205  104  105 1    
   206  104  225 1    
   207  105  106 1    
   208  105  107 1    
   209  105  226 1    
   210  106  227 1    
   211  106  228 1    
   212  106  229 1    
   213  107  108 2    
   214  107  109 am   BACKBONE|DICT|INTERRES
   215  109  110 1    
   216  109  230 1    
   217  110  111 1    
   218  110  112 1    
   219  110  231 1    
   220  111  232 1    
   221  111  233 1    
   222  111  234 1    
   223  112  113 2    
   224  112  114 am   BACKBONE|DICT|INTERRES
   225  114  115 1    
   226  114  235 1    
   227  115  116 1    
   228  115  117 1    
   229  115  236 1    
   230  116  237 1    
   231  116  238 1    
   232  116  239 1    
   233  117  118 2    
   234  117  119 am   BACKBONE|DICT|INTERRES
   235  119  120 1    
   236  119  240 1    
   237  120  121 1    
   238  120  124 1    
   239  120  241 1    
   240  121  122 am   BACKBONE|DICT|INTERRES
   241  121  123 2    
   242  122  242 1    
   243  122  243 1    
   244  124  125 1    
   245  124  244 1    
   246  124  245 1    
   247  125  126 1    
   248  126  246 1    
   249  126  247 1    
@<TRIPOS>SUBSTRUCTURE
     1 UNK         1 GROUP             0       ****    0 ROOT    
