@<TRIPOS>MOLECULE
3R540
247   249    1
SMALL
USER_CHARGES


@<TRIPOS>ATOM
      1 CA          2.3498  -10.7325  -48.4855 C.3       0 UNK        -0.1800 
      2 C           2.2791  -11.7779  -47.3833 C.2       0 UNK         0.5000 
      3 O           2.4795  -11.4473  -46.2153 O.2       0 UNK        -0.5000 
      4 N           1.9666  -13.0300  -47.7409 N.am      1 UNK        -0.5000 
      5 CA          1.9181  -14.2029  -46.8530 C.3       1 UNK         0.1400 
      6 C6          1.6721  -15.5040  -47.6574 C.3       23 UNK        -0.0398 
      7 S7          3.1710  -16.0701  -48.5244 S.3       23 UNK        -0.2404 
      8 C8          2.7482  -15.7799  -50.2701 C.3       23 UNK        -0.0205 
      9 C9          1.5626  -16.6047  -50.7597 C.ar      23 UNK        -0.0193 
     10 C10         0.5089  -15.9685  -51.4215 C.ar      23 UNK        -0.1150 
     11 C11        -0.5428  -16.7114  -51.9617 C.ar      23 UNK        -0.0193 
     12 C12        -0.5488  -18.1015  -51.8190 C.ar      23 UNK        -0.1150 
     13 C13         0.4862  -18.7532  -51.1399 C.ar      23 UNK        -0.0193 
     14 C14         1.5412  -17.9977  -50.6155 C.ar      23 UNK        -0.1150 
     15 C15         0.5046  -20.2753  -51.0469 C.3       23 UNK        -0.0205 
     16 S16        -1.0301  -20.9709  -50.3491 S.3       23 UNK        -0.2404 
     17 C17        -0.7786  -20.7840  -48.5485 C.3       23 UNK        -0.0398 
     18 CA         -0.7768  -22.1493  -47.8134 C.3       11 UNK         0.1400 
     19 N          -0.1898  -22.0608  -46.4720 N.am      11 UNK        -0.5000 
     20 C           0.0550  -23.1081  -45.6691 C.2       10 UNK         0.5000 
     21 O          -0.1137  -24.2792  -46.0025 O.2       10 UNK        -0.5000 
     22 CA          0.4874  -22.7972  -44.2257 C.3       10 UNK         0.1400 
     23 CB          1.9928  -22.5042  -44.1372 C.3       10 UNK        -0.1800 
     24 N          -0.2819  -21.6868  -43.6639 N.am      10 UNK        -0.5000 
     25 C          -1.5882  -21.7568  -43.3679 C.2       9 UNK         0.5000 
     26 O          -2.2520  -22.7894  -43.4599 O.2       9 UNK        -0.5000 
     27 CA         -2.2770  -20.4459  -42.9472 C.3       9 UNK         0.1400 
     28 CB         -2.1534  -20.2283  -41.4321 C.3       9 UNK        -0.1800 
     29 N          -1.7365  -19.2882  -43.6634 N.am      9 UNK        -0.5000 
     30 C          -1.9657  -19.0411  -44.9629 C.2       8 UNK         0.5000 
     31 O          -2.6953  -19.7384  -45.6659 O.2       8 UNK        -0.5000 
     32 CA         -1.2136  -17.8606  -45.6089 C.3       8 UNK         0.1400 
     33 CB         -2.0338  -16.5687  -45.5053 C.3       8 UNK        -0.1800 
     34 N           0.1141  -17.6429  -45.0357 N.am      8 UNK        -0.5000 
     35 C           1.1068  -18.5411  -45.0604 C.2       7 UNK         0.5000 
     36 O           1.0326  -19.6046  -45.6739 O.2       7 UNK        -0.5000 
     37 CA          2.3655  -18.2386  -44.2246 C.3       7 UNK         0.1400 
     38 CB          3.5147  -17.7537  -45.1195 C.3       7 UNK        -0.1800 
     39 N           2.1674  -17.2687  -43.1442 N.am      7 UNK        -0.5000 
     40 C           1.3162  -17.3766  -42.1126 C.2       6 UNK         0.5000 
     41 O           0.5362  -18.3202  -41.9818 O.2       6 UNK        -0.5000 
     42 CA          1.3433  -16.2501  -41.0561 C.3       6 UNK         0.1400 
     43 CB          1.3085  -16.8223  -39.6286 C.3       6 UNK        -0.1800 
     44 N           2.5412  -15.4179  -41.2020 N.am      6 UNK        -0.5000 
     45 C           2.5723  -14.1962  -41.7456 C.2       5 UNK         0.5000 
     46 O           1.5685  -13.5417  -42.0385 O.2       5 UNK        -0.5000 
     47 CA          3.9723  -13.6342  -42.0393 C.3       5 UNK         0.1400 
     48 CB          4.7698  -14.5596  -42.9830 C.3       5 UNK        -0.1800 
     49 N           3.8334  -12.3252  -42.6606 N.am      5 UNK        -0.5000 
     50 C           4.7518  -11.3549  -42.6771 C.2       4 UNK         0.5000 
     51 O           5.8477  -11.4448  -42.1214 O.2       4 UNK        -0.5000 
     52 CA          4.4023  -10.0746  -43.4586 C.3       4 UNK         0.1400 
     53 CB          5.2776   -9.9599  -44.7173 C.3       4 UNK        -0.1800 
     54 N           2.9979  -10.0316  -43.8692 N.am      4 UNK        -0.5000 
     55 C           1.9993   -9.5337  -43.1307 C.2       3 UNK         0.5000 
     56 O           2.1513   -9.0678  -42.0009 O.2       3 UNK        -0.5000 
     57 CA          0.5987   -9.5590  -43.7585 C.3       3 UNK         0.1400 
     58 CB          0.4834   -8.4955  -44.8635 C.3       3 UNK        -0.1800 
     59 N           0.2788  -10.8709  -44.3256 N.am      3 UNK        -0.5000 
     60 C          -0.7392  -11.6447  -43.9210 C.2       2 UNK         0.5000 
     61 O          -1.4576  -11.3714  -42.9579 O.2       2 UNK        -0.5000 
     62 CA         -1.0594  -12.9105  -44.7432 C.3       2 UNK         0.1400 
     63 CB         -2.4338  -12.7639  -45.4195 C.3       2 UNK        -0.1800 
     64 N          -0.0649  -13.1808  -45.7830 N.am      2 UNK        -0.5000 
     65 C           0.9046  -14.0991  -45.6906 C.2       1 UNK         0.5000 
     66 O           1.0201  -14.8727  -44.7404 O.2       1 UNK        -0.5000 
     67 C          -2.1849  -22.7848  -47.7743 C.2       11 UNK         0.5000 
     68 O          -2.4649  -23.6842  -48.5671 O.2       11 UNK        -0.5000 
     69 N          -3.0266  -22.3490  -46.8244 N.am      12 UNK        -0.5000 
     70 CA         -4.3618  -22.8983  -46.5843 C.3       12 UNK         0.1400 
     71 CB         -5.0930  -22.0754  -45.5147 C.3       12 UNK        -0.1800 
     72 C          -4.3496  -24.3938  -46.2253 C.2       12 UNK         0.5000 
     73 O          -5.1857  -25.1388  -46.7321 O.2       12 UNK        -0.5000 
     74 N          -3.3880  -24.8108  -45.3924 N.am      13 UNK        -0.5000 
     75 CA         -3.1696  -26.2103  -45.0339 C.3       13 UNK         0.1400 
     76 CB         -2.2216  -26.2869  -43.8269 C.3       13 UNK        -0.1800 
     77 C          -2.6337  -27.0476  -46.2114 C.2       13 UNK         0.5000 
     78 O          -3.1504  -28.1362  -46.4666 O.2       13 UNK        -0.5000 
     79 N          -1.6045  -26.5332  -46.8979 N.am      14 UNK        -0.5000 
     80 CA         -0.8926  -27.2268  -47.9712 C.3       14 UNK         0.1400 
     81 CB          0.4322  -26.5025  -48.2561 C.3       14 UNK        -0.1800 
     82 C          -1.7080  -27.3694  -49.2668 C.2       14 UNK         0.5000 
     83 O          -1.6756  -28.4351  -49.8833 O.2       14 UNK        -0.5000 
     84 N          -2.4094  -26.3005  -49.6625 N.am      15 UNK        -0.5000 
     85 CA         -3.1280  -26.1954  -50.9318 C.3       15 UNK         0.1400 
     86 CB         -2.5743  -24.9984  -51.7250 C.3       15 UNK        -0.1800 
     87 C          -4.6485  -26.1167  -50.7135 C.2       15 UNK         0.5000 
     88 O          -5.3265  -25.3618  -51.4147 O.2       15 UNK        -0.5000 
     89 N          -5.1492  -26.9001  -49.7462 N.am      16 UNK        -0.5000 
     90 CA         -6.5487  -27.2031  -49.3999 C.3       16 UNK         0.1400 
     91 CB         -7.2476  -27.9279  -50.5657 C.3       16 UNK        -0.1800 
     92 C          -7.4077  -26.0195  -48.9084 C.2       16 UNK         0.5000 
     93 O          -8.1339  -26.1634  -47.9237 O.2       16 UNK        -0.5000 
     94 N          -7.3224  -24.8860  -49.6045 N.am      17 UNK        -0.5000 
     95 CA         -8.0042  -23.6278  -49.3152 C.3       17 UNK         0.1400 
     96 CB         -9.4432  -23.6721  -49.8657 C.3       17 UNK        -0.1800 
     97 C          -7.1840  -22.4483  -49.8710 C.2       17 UNK         0.5000 
     98 O          -7.7603  -21.4374  -50.2740 O.2       17 UNK        -0.5000 
     99 N          -5.8517  -22.6170  -49.9032 N.am      18 UNK        -0.5000 
    100 CA        -4.8508  -21.7162  -50.4845 C.3       18 UNK         0.1400 
    101 CB        -4.7857  -20.3756  -49.7219 C.3       18 UNK        -0.1800 
    102 C         -5.0516  -21.5549  -52.0041 C.2       18 UNK         0.5000 
    103 O         -5.0604  -20.4368  -52.5183 O.2       18 UNK        -0.5000 
    104 N         -5.2424  -22.6899  -52.6912 N.am      19 UNK        -0.5000 
    105 CA        -5.5389  -22.7627  -54.1231 C.3       19 UNK         0.1400 
    106 CB        -6.2455  -24.0995  -54.4001 C.3       19 UNK        -0.1800 
    107 C         -4.3012  -22.6089  -55.0312 C.2       19 UNK         0.5000 
    108 O         -4.4632  -22.4802  -56.2454 O.2       19 UNK        -0.5000 
    109 N         -3.0941  -22.6554  -54.4511 N.am      20 UNK        -0.5000 
    110 CA        -1.8199  -22.5131  -55.1532 C.3       20 UNK         0.1400 
    111 CB        -0.6785  -22.9307  -54.2126 C.3       20 UNK        -0.1800 
    112 C         -1.6249  -21.0726  -55.6570 C.2       20 UNK         0.5000 
    113 O         -1.5306  -20.1577  -54.8362 O.2       20 UNK        -0.5000 
    114 N         -1.5828  -20.9023  -56.9869 N.am      21 UNK        -0.5000 
    115 CA        -1.4823  -19.6314  -57.7139 C.3       21 UNK         0.1400 
    116 CB        -0.0841  -19.0009  -57.5173 C.3       21 UNK        -0.1800 
    117 C         -2.6536  -18.6895  -57.3613 C.2       21 UNK         0.5000 
    118 O         -3.7748  -18.9248  -57.8144 O.2       21 UNK        -0.5000 
    119 N         -2.3796  -17.6658  -56.5466 N.am      22 UNK        -0.5000 
    120 CA        -3.3691  -16.7906  -55.8988 C.3       22 UNK         0.1400 
    121 C         -4.2546  -17.4923  -54.8264 C.2       22 UNK         0.5000 
    122 N         -3.8639  -18.6442  -54.2987 N.am      22 UNK        -0.7600 
    123 O         -5.3144  -16.9798  -54.4767 O.2       22 UNK        -0.5000 
    124 C124       -2.7103  -15.5002  -55.3326 C.3       23 UNK        -0.0398 
    125 S125       -1.1204  -15.7859  -54.4731 S.3       23 UNK        -0.2404 
    126 C126       -1.6429  -16.0182  -52.7469 C.3       23 UNK        -0.0205 
    127 H127        3.3441  -10.2869  -48.5131 H         1 UNK         0.0600 
    128 H128        1.6255   -9.9402  -48.2967 H         1 UNK         0.0600 
    129 H129        2.1405  -11.1610  -49.4659 H         1 UNK         0.0600 
    130 H130        1.8014  -13.2247  -48.7174 H         1 UNK         0.3000 
    131 H131        2.8962  -14.2747  -46.3722 H         1 UNK         0.0600 
    132 H132        0.8418  -15.3793  -48.3539 H         1 UNK         0.0800 
    133 H133        1.3826  -16.3285  -47.0083 H         1 UNK         0.0800 
    134 H134        3.6160  -16.0286  -50.8821 H         1 UNK         0.0800 
    135 H135        2.5701  -14.7136  -50.4151 H         1 UNK         0.0800 
    136 H136        0.5234  -14.8959  -51.5555 H         1 UNK         0.1150 
    137 H137       -1.3485  -18.6820  -52.2591 H         1 UNK         0.1150 
    138 H138        2.3624  -18.4937  -50.1173 H         1 UNK         0.1150 
    139 H139        0.6341  -20.6713  -52.0548 H         1 UNK         0.0800 
    140 H140        1.3605  -20.6278  -50.4694 H         1 UNK         0.0800 
    141 H141       -1.5520  -20.1236  -48.1537 H         1 UNK         0.0800 
    142 H142        0.1674  -20.2681  -48.3776 H         1 UNK         0.0800 
    143 H143       -0.1348  -22.8292  -48.3778 H         1 UNK         0.0600 
    144 H144        0.0469  -21.1315  -46.1343 H         1 UNK         0.3000 
    145 H145        0.2864  -23.6843  -43.6210 H         1 UNK         0.0600 
    146 H146        2.2939  -22.2909  -43.1115 H         1 UNK         0.0600 
    147 H147        2.2860  -21.6575  -44.7563 H         1 UNK         0.0600 
    148 H148        2.5721  -23.3652  -44.4730 H         1 UNK         0.0600 
    149 H149        0.1845  -20.7950  -43.5888 H         1 UNK         0.3000 
    150 H150       -3.3385  -20.5307  -43.1877 H         1 UNK         0.0600 
    151 H151       -2.6358  -21.0388  -40.8844 H         1 UNK         0.0600 
    152 H152       -2.6317  -19.2980  -41.1254 H         1 UNK         0.0600 
    153 H153       -1.1124  -20.1933  -41.1103 H         1 UNK         0.0600 
    154 H154       -1.0749  -18.7109  -43.1544 H         1 UNK         0.3000 
    155 H155       -1.0844  -18.0953  -46.6674 H         1 UNK         0.0600 
    156 H156       -3.0455  -16.7130  -45.8868 H         1 UNK         0.0600 
    157 H157       -1.5782  -15.7747  -46.0950 H         1 UNK         0.0600 
    158 H158       -2.1147  -16.2223  -44.4744 H         1 UNK         0.0600 
    159 H159        0.2797  -16.7586  -44.5663 H         1 UNK         0.3000 
    160 H160        2.6685  -19.1811  -43.7645 H         1 UNK         0.0600 
    161 H161        3.3253  -16.7537  -45.5082 H         1 UNK         0.0600 
    162 H162        3.6610  -18.4179  -45.9726 H         1 UNK         0.0600 
    163 H163        4.4549  -17.7226  -44.5686 H         1 UNK         0.0600 
    164 H164        2.7104  -16.4217  -43.2062 H         1 UNK         0.3000 
    165 H165        0.4418  -15.6528  -41.2060 H         1 UNK         0.0600 
    166 H166        1.3218  -16.0248  -38.8855 H         1 UNK         0.0600 
    167 H167        0.4019  -17.4049  -39.4596 H         1 UNK         0.0600 
    168 H168        2.1603  -17.4754  -39.4355 H         1 UNK         0.0600 
    169 H169        3.4154  -15.8687  -40.9699 H         1 UNK         0.3000 
    170 H170        4.4989  -13.5309  -41.0883 H         1 UNK         0.0600 
    171 H171        4.2481  -14.7101  -43.9293 H         1 UNK         0.0600 
    172 H172        5.7509  -14.1423  -43.2103 H         1 UNK         0.0600 
    173 H173        4.9413  -15.5401  -42.5382 H         1 UNK         0.0600 
    174 H174        2.9249  -12.1518  -43.0718 H         1 UNK         0.3000 
    175 H175        4.6213   -9.2221  -42.8123 H         1 UNK         0.0600 
    176 H176        5.1198  -10.8006  -45.3942 H         1 UNK         0.0600 
    177 H177        5.0610   -9.0431  -45.2659 H         1 UNK         0.0600 
    178 H178        6.3370   -9.9406  -44.4585 H         1 UNK         0.0600 
    179 H179        2.7930  -10.4369  -44.7809 H         1 UNK         0.3000 
    180 H180       -0.1095   -9.2935  -42.9709 H         1 UNK         0.0600 
    181 H181       -0.5326   -8.4470  -45.2554 H         1 UNK         0.0600 
    182 H182        1.1532   -8.7040  -45.6989 H         1 UNK         0.0600 
    183 H183        0.7318   -7.5047  -44.4811 H         1 UNK         0.0600 
    184 H184        0.8725  -11.1946  -45.0809 H         1 UNK         0.3000 
    185 H185       -1.1134  -13.7454  -44.0414 H         1 UNK         0.0600 
    186 H186       -2.4581  -11.9113  -46.0993 H         1 UNK         0.0600 
    187 H187       -2.6944  -13.6534  -45.9920 H         1 UNK         0.0600 
    188 H188       -3.2217  -12.6161  -44.6798 H         1 UNK         0.0600 
    189 H189       -0.0975  -12.5968  -46.6058 H         1 UNK         0.3000 
    190 H190       -2.7536  -21.5584  -46.2475 H         1 UNK         0.3000 
    191 H191       -4.9232  -22.7959  -47.5092 H         1 UNK         0.0600 
    192 H192       -5.1648  -21.0268  -45.8040 H         1 UNK         0.0600 
    193 H193       -4.5889  -22.1253  -44.5508 H         1 UNK         0.0600 
    194 H194       -6.1099  -22.4424  -45.3706 H         1 UNK         0.0600 
    195 H195       -2.7674  -24.1251  -44.9764 H         1 UNK         0.3000 
    196 H196       -4.1292  -26.6362  -44.7328 H         1 UNK         0.0600 
    197 H197       -2.6343  -25.7559  -42.9689 H         1 UNK         0.0600 
    198 H198       -1.2466  -25.8523  -44.0489 H         1 UNK         0.0600 
    199 H199       -2.0590  -27.3216  -43.5230 H         1 UNK         0.0600 
    200 H200       -1.2158  -25.6391  -46.6054 H         1 UNK         0.3000 
    201 H201       -0.6542  -28.2328  -47.6192 H         1 UNK         0.0600 
    202 H202        1.0658  -26.4771  -47.3694 H         1 UNK         0.0600 
    203 H203        0.2659  -25.4734  -48.5777 H         1 UNK         0.0600 
    204 H204        0.9944  -27.0068  -49.0430 H         1 UNK         0.0600 
    205 H205       -2.3972  -25.4557  -49.0930 H         1 UNK         0.3000 
    206 H206       -2.9610  -27.0863  -51.5399 H         1 UNK         0.0600 
    207 H207       -2.7581  -24.0534  -51.2166 H         1 UNK         0.0600 
    208 H208       -1.4980  -25.0917  -51.8687 H         1 UNK         0.0600 
    209 H209       -3.0285  -24.9425  -52.7145 H         1 UNK         0.0600 
    210 H210       -4.4696  -27.4049  -49.1939 H         1 UNK         0.3000 
    211 H211       -6.4926  -27.9052  -48.5665 H         1 UNK         0.0600 
    212 H212       -7.3268  -27.2941  -51.4496 H         1 UNK         0.0600 
    213 H213       -8.2590  -28.2280  -50.2884 H         1 UNK         0.0600 
    214 H214       -6.7073  -28.8313  -50.8485 H         1 UNK         0.0600 
    215 H215       -6.7056  -24.8934  -50.4155 H         1 UNK         0.3000 
    216 H216       -8.0478  -23.4912  -48.2328 H         1 UNK         0.0600 
    217 H217       -9.9863  -22.7577  -49.6242 H         1 UNK         0.0600 
    218 H218      -10.0066  -24.5016  -49.4384 H         1 UNK         0.0600 
    219 H219       -9.4509  -23.7855  -50.9504 H         1 UNK         0.0600 
    220 H220       -5.4905  -23.4929  -49.5534 H         1 UNK         0.3000 
    221 H221       -3.8855  -22.2037  -50.3567 H         1 UNK         0.0600 
    222 H222       -5.7032  -19.7974  -49.8315 H         1 UNK         0.0600 
    223 H223       -4.6120  -20.5327  -48.6577 H         1 UNK         0.0600 
    224 H224       -3.9671  -19.7583  -50.0938 H         1 UNK         0.0600 
    225 H225       -5.2454  -23.5757  -52.1941 H         1 UNK         0.3000 
    226 H226       -6.2291  -21.9554  -54.3770 H         1 UNK         0.0600 
    227 H227       -7.1456  -24.2036  -53.7938 H         1 UNK         0.0600 
    228 H228       -6.5478  -24.1756  -55.4453 H         1 UNK         0.0600 
    229 H229       -5.5963  -24.9488  -54.1831 H         1 UNK         0.0600 
    230 H230       -3.0524  -22.7223  -53.4462 H         1 UNK         0.3000 
    231 H231       -1.8179  -23.1931  -56.0077 H         1 UNK         0.0600 
    232 H232       -0.6923  -22.3597  -53.2837 H         1 UNK         0.0600 
    233 H233        0.2934  -22.7726  -54.6818 H         1 UNK         0.0600 
    234 H234       -0.7462  -23.9880  -53.9583 H         1 UNK         0.0600 
    235 H235       -1.7247  -21.7152  -57.5701 H         1 UNK         0.3000 
    236 H236       -1.5883  -19.8679  -58.7737 H         1 UNK         0.0600 
    237 H237        0.1369  -18.7888  -56.4706 H         1 UNK         0.0600 
    238 H238        0.6956  -19.6670  -57.8866 H         1 UNK         0.0600 
    239 H239        0.0051  -18.0655  -58.0713 H         1 UNK         0.0600 
    240 H240       -1.4373  -17.5732  -56.1943 H         1 UNK         0.3000 
    241 H241       -4.0648  -16.4752  -56.6787 H         1 UNK         0.0600 
    242 H242       -4.4423  -19.1231  -53.6120 H         1 UNK         0.3800 
    243 H243       -2.9783  -19.0670  -54.5657 H         1 UNK         0.3800 
    244 H244       -3.3909  -14.9467  -54.6828 H         1 UNK         0.0800 
    245 H245       -2.4985  -14.8262  -56.1635 H         1 UNK         0.0800 
    246 H246       -2.5566  -16.6106  -52.7007 H         1 UNK         0.0800 
    247 H247       -1.8776  -15.0503  -52.3017 H         1 UNK         0.0800 
@<TRIPOS>BOND
     1    1    2 1    
     2    1  127 1    
     3    1  128 1    
     4    1  129 1    
     5    2    3 2    
     6    2    4 am   BACKBONE|DICT|INTERRES
     7    4    5 1    
     8    4  130 1    
     9    5    6 1    
    10    5   65 1    
    11    5  131 1    
    12    6    7 1    
    13    6  132 1    
    14    6  133 1    
    15    7    8 1    
    16    8    9 1    
    17    8  134 1    
    18    8  135 1    
    19    9   10 ar   
    20    9   14 ar   
    21   10   11 ar   
    22   10  136 1    
    23   11   12 ar   
    24   11  126 1    
    25   12   13 ar   
    26   12  137 1    
    27   13   14 ar   
    28   13   15 1    
    29   14  138 1    
    30   15   16 1    
    31   15  139 1    
    32   15  140 1    
    33   16   17 1    
    34   17   18 1    
    35   17  141 1    
    36   17  142 1    
    37   18   19 1    
    38   18   67 1    
    39   18  143 1    
    40   19   20 am   BACKBONE|DICT|INTERRES
    41   19  144 1    
    42   20   21 2    
    43   20   22 1    
    44   22   23 1    
    45   22   24 1    
    46   22  145 1    
    47   23  146 1    
    48   23  147 1    
    49   23  148 1    
    50   24   25 am   BACKBONE|DICT|INTERRES
    51   24  149 1    
    52   25   26 2    
    53   25   27 1    
    54   27   28 1    
    55   27   29 1    
    56   27  150 1    
    57   28  151 1    
    58   28  152 1    
    59   28  153 1    
    60   29   30 am   BACKBONE|DICT|INTERRES
    61   29  154 1    
    62   30   31 2    
    63   30   32 1    
    64   32   33 1    
    65   32   34 1    
    66   32  155 1    
    67   33  156 1    
    68   33  157 1    
    69   33  158 1    
    70   34   35 am   BACKBONE|DICT|INTERRES
    71   34  159 1    
    72   35   36 2    
    73   35   37 1    
    74   37   38 1    
    75   37   39 1    
    76   37  160 1    
    77   38  161 1    
    78   38  162 1    
    79   38  163 1    
    80   39   40 am   BACKBONE|DICT|INTERRES
    81   39  164 1    
    82   40   41 2    
    83   40   42 1    
    84   42   43 1    
    85   42   44 1    
    86   42  165 1    
    87   43  166 1    
    88   43  167 1    
    89   43  168 1    
    90   44   45 am   BACKBONE|DICT|INTERRES
    91   44  169 1    
    92   45   46 2    
    93   45   47 1    
    94   47   48 1    
    95   47   49 1    
    96   47  170 1    
    97   48  171 1    
    98   48  172 1    
    99   48  173 1    
   100   49   50 am   BACKBONE|DICT|INTERRES
   101   49  174 1    
   102   50   51 2    
   103   50   52 1    
   104   52   53 1    
   105   52   54 1    
   106   52  175 1    
   107   53  176 1    
   108   53  177 1    
   109   53  178 1    
   110   54   55 am   BACKBONE|DICT|INTERRES
   111   54  179 1    
   112   55   56 2    
   113   55   57 1    
   114   57   58 1    
   115   57   59 1    
   116   57  180 1    
   117   58  181 1    
   118   58  182 1    
   119   58  183 1    
   120   59   60 am   BACKBONE|DICT|INTERRES
   121   59  184 1    
   122   60   61 2    
   123   60   62 1    
   124   62   63 1    
   125   62   64 1    
   126   62  185 1    
   127   63  186 1    
   128   63  187 1    
   129   63  188 1    
   130   64   65 am   BACKBONE|DICT|INTERRES
   131   64  189 1    
   132   65   66 2    
   133   67   68 2    
   134   67   69 am   BACKBONE|DICT|INTERRES
   135   69   70 1    
   136   69  190 1    
   137   70   71 1    
   138   70   72 1    
   139   70  191 1    
   140   71  192 1    
   141   71  193 1    
   142   71  194 1    
   143   72   73 2    
   144   72   74 am   BACKBONE|DICT|INTERRES
   145   74   75 1    
   146   74  195 1    
   147   75   76 1    
   148   75   77 1    
   149   75  196 1    
   150   76  197 1    
   151   76  198 1    
   152   76  199 1    
   153   77   78 2    
   154   77   79 am   BACKBONE|DICT|INTERRES
   155   79   80 1    
   156   79  200 1    
   157   80   81 1    
   158   80   82 1    
   159   80  201 1    
   160   81  202 1    
   161   81  203 1    
   162   81  204 1    
   163   82   83 2    
   164   82   84 am   BACKBONE|DICT|INTERRES
   165   84   85 1    
   166   84  205 1    
   167   85   86 1    
   168   85   87 1    
   169   85  206 1    
   170   86  207 1    
   171   86  208 1    
   172   86  209 1    
   173   87   88 2    
   174   87   89 am   BACKBONE|DICT|INTERRES
   175   89   90 1    
   176   89  210 1    
   177   90   91 1    
   178   90   92 1    
   179   90  211 1    
   180   91  212 1    
   181   91  213 1    
   182   91  214 1    
   183   92   93 2    
   184   92   94 am   BACKBONE|DICT|INTERRES
   185   94   95 1    
   186   94  215 1    
   187   95   96 1    
   188   95   97 1    
   189   95  216 1    
   190   96  217 1    
   191   96  218 1    
   192   96  219 1    
   193   97   98 2    
   194   97   99 am   BACKBONE|DICT|INTERRES
   195   99  100 1    
   196   99  220 1    
   197  100  101 1    
   198  100  102 1    
   199  100  221 1    
   200  101  222 1    
   201  101  223 1    
   202  101  224 1    
   203  102  103 2    
   204  102  104 am   BACKBONE|DICT|INTERRES
   205  104  105 1    
   206  104  225 1    
   207  105  106 1    
   208  105  107 1    
   209  105  226 1    
   210  106  227 1    
   211  106  228 1    
   212  106  229 1    
   213  107  108 2    
   214  107  109 am   BACKBONE|DICT|INTERRES
   215  109  110 1    
   216  109  230 1    
   217  110  111 1    
   218  110  112 1    
   219  110  231 1    
   220  111  232 1    
   221  111  233 1    
   222  111  234 1    
   223  112  113 2    
   224  112  114 am   BACKBONE|DICT|INTERRES
   225  114  115 1    
   226  114  235 1    
   227  115  116 1    
   228  115  117 1    
   229  115  236 1    
   230  116  237 1    
   231  116  238 1    
   232  116  239 1    
   233  117  118 2    
   234  117  119 am   BACKBONE|DICT|INTERRES
   235  119  120 1    
   236  119  240 1    
   237  120  121 1    
   238  120  124 1    
   239  120  241 1    
   240  121  122 am   BACKBONE|DICT|INTERRES
   241  121  123 2    
   242  122  242 1    
   243  122  243 1    
   244  124  125 1    
   245  124  244 1    
   246  124  245 1    
   247  125  126 1    
   248  126  246 1    
   249  126  247 1    
@<TRIPOS>SUBSTRUCTURE
     1 UNK         1 GROUP             0       ****    0 ROOT    
