@<TRIPOS>MOLECULE
3R540
247   249    1
SMALL
USER_CHARGES


@<TRIPOS>ATOM
      1 CA         -0.7101  -10.1433  -47.6084 C.3       0 UNK        -0.1800 
      2 C          -1.8185  -10.9039  -48.3328 C.2       0 UNK         0.5000 
      3 O          -2.8976  -10.3514  -48.5358 O.2       0 UNK        -0.5000 
      4 N          -1.6071  -12.1604  -48.7481 N.am      1 UNK        -0.5000 
      5 CA         -0.3999  -12.9728  -48.5395 C.3       1 UNK         0.1400 
      6 C6         -0.2554  -14.0690  -49.6242 C.3       23 UNK        -0.0398 
      7 S7         -1.6761  -15.2163  -49.7158 S.3       23 UNK        -0.2404 
      8 C8         -1.4007  -15.9732  -51.3533 C.3       23 UNK        -0.0205 
      9 C9         -0.2448  -16.9722  -51.4550 C.ar      23 UNK        -0.0193 
     10 C10         0.1022  -17.4395  -52.7250 C.ar      23 UNK        -0.1150 
     11 C11         1.0965  -18.4076  -52.8931 C.ar      23 UNK        -0.0193 
     12 C12         1.7662  -18.9008  -51.7703 C.ar      23 UNK        -0.1150 
     13 C13         1.4525  -18.4294  -50.4932 C.ar      23 UNK        -0.0193 
     14 C14         0.4512  -17.4648  -50.3426 C.ar      23 UNK        -0.1150 
     15 C15         2.1936  -18.9668  -49.2763 C.3       23 UNK        -0.0205 
     16 S16         1.3995  -20.4591  -48.6009 S.3       23 UNK        -0.2404 
     17 C17        -0.1226  -19.7344  -47.9149 C.3       23 UNK        -0.0398 
     18 CA         -0.9860  -20.7587  -47.1496 C.3       11 UNK         0.1400 
     19 N          -0.3892  -21.1654  -45.8722 N.am      11 UNK        -0.5000 
     20 C          -0.8857  -22.1243  -45.0769 C.2       10 UNK         0.5000 
     21 O          -1.8771  -22.7967  -45.3564 O.2       10 UNK        -0.5000 
     22 CA         -0.2041  -22.3319  -43.7141 C.3       10 UNK         0.1400 
     23 CB          1.0916  -23.1424  -43.8640 C.3       10 UNK        -0.1800 
     24 N           0.0619  -21.0700  -43.0222 N.am      10 UNK        -0.5000 
     25 C          -0.8897  -20.2172  -42.6128 C.2       9 UNK         0.5000 
     26 O          -2.0950  -20.4319  -42.7359 O.2       9 UNK        -0.5000 
     27 CA         -0.4243  -18.8794  -42.0110 C.3       9 UNK         0.1400 
     28 CB         -0.0196  -19.0480  -40.5393 C.3       9 UNK        -0.1800 
     29 N           0.6832  -18.2872  -42.7561 N.am      9 UNK        -0.5000 
     30 C           0.6240  -17.8845  -44.0322 C.2       8 UNK         0.5000 
     31 O          -0.3978  -17.9164  -44.7180 O.2       8 UNK        -0.5000 
     32 CA          1.9480  -17.4183  -44.6602 C.3       8 UNK         0.1400 
     33 CB          2.2843  -15.9841  -44.2338 C.3       8 UNK        -0.1800 
     34 N           3.0616  -18.2981  -44.3083 N.am      8 UNK        -0.5000 
     35 C           3.1727  -19.5739  -44.7006 C.2       7 UNK         0.5000 
     36 O           2.3464  -20.1452  -45.4100 O.2       7 UNK        -0.5000 
     37 CA          4.3927  -20.3491  -44.1731 C.3       7 UNK         0.1400 
     38 CB          5.6489  -20.0078  -44.9886 C.3       7 UNK        -0.1800 
     39 N           4.6453  -20.0931  -42.7538 N.am      7 UNK        -0.5000 
     40 C           3.8305  -20.4870  -41.7653 C.2       6 UNK         0.5000 
     41 O           2.7911  -21.1193  -41.9468 O.2       6 UNK        -0.5000 
     42 CA          4.2197  -20.0708  -40.3355 C.3       6 UNK         0.1400 
     43 CB          5.2597  -21.0405  -39.7542 C.3       6 UNK        -0.1800 
     44 N           4.7168  -18.6958  -40.2201 N.am      6 UNK        -0.5000 
     45 C           4.0338  -17.6025  -40.5835 C.2       5 UNK         0.5000 
     46 O           2.9605  -17.6333  -41.1873 O.2       5 UNK        -0.5000 
     47 CA          4.6647  -16.2425  -40.2352 C.3       5 UNK         0.1400 
     48 CB          5.4244  -15.6807  -41.4467 C.3       5 UNK        -0.1800 
     49 N           3.6505  -15.2729  -39.8187 N.am      5 UNK        -0.5000 
     50 C           2.8765  -15.3845  -38.7286 C.2       4 UNK         0.5000 
     51 O           3.0139  -16.2713  -37.8843 O.2       4 UNK        -0.5000 
     52 CA          1.7706  -14.3257  -38.5309 C.3       4 UNK         0.1400 
     53 CB          2.1546  -13.3509  -37.4062 C.3       4 UNK        -0.1800 
     54 N           1.4626  -13.5520  -39.7378 N.am      4 UNK        -0.5000 
     55 C           0.8062  -14.0260  -40.8040 C.2       3 UNK         0.5000 
     56 O           0.3649  -15.1755  -40.8855 O.2       3 UNK        -0.5000 
     57 CA          0.6296  -13.0520  -41.9792 C.3       3 UNK         0.1400 
     58 CB          1.9928  -12.6142  -42.5572 C.3       3 UNK        -0.1800 
     59 N          -0.1718  -13.7106  -43.0049 N.am      3 UNK        -0.5000 
     60 C          -0.7673  -13.1162  -44.0410 C.2       2 UNK         0.5000 
     61 O          -0.7458  -11.8991  -44.2410 O.2       2 UNK        -0.5000 
     62 CA         -1.5429  -14.0378  -45.0011 C.3       2 UNK         0.1400 
     63 CB         -3.0273  -14.0922  -44.6083 C.3       2 UNK        -0.1800 
     64 N          -1.4405  -13.5834  -46.3871 N.am      2 UNK        -0.5000 
     65 C          -0.3163  -13.5747  -47.1182 C.2       1 UNK         0.5000 
     66 O           0.7618  -14.0134  -46.7181 O.2       1 UNK        -0.5000 
     67 C          -2.4128  -20.2013  -46.9812 C.2       11 UNK         0.5000 
     68 O          -3.2771  -20.5099  -47.8032 O.2       11 UNK        -0.5000 
     69 N          -2.6373  -19.4053  -45.9268 N.am      12 UNK        -0.5000 
     70 CA         -3.9434  -18.8492  -45.5778 C.3       12 UNK         0.1400 
     71 CB         -3.7711  -17.7830  -44.4860 C.3       12 UNK        -0.1800 
     72 C          -4.9437  -19.9340  -45.1391 C.2       12 UNK         0.5000 
     73 O          -6.0964  -19.9026  -45.5701 O.2       12 UNK        -0.5000 
     74 N          -4.4793  -20.8836  -44.3147 N.am      13 UNK        -0.5000 
     75 CA         -5.2585  -22.0232  -43.8301 C.3       13 UNK         0.1400 
     76 CB         -4.4915  -22.7251  -42.6989 C.3       13 UNK        -0.1800 
     77 C          -5.6162  -23.0209  -44.9463 C.2       13 UNK         0.5000 
     78 O          -6.7561  -23.4841  -45.0023 O.2       13 UNK        -0.5000 
     79 N          -4.6447  -23.3252  -45.8179 N.am      14 UNK        -0.5000 
     80 CA         -4.8153  -24.2128  -46.9694 C.3       14 UNK         0.1400 
     81 CB         -3.4332  -24.6224  -47.5023 C.3       14 UNK        -0.1800 
     82 C          -5.6448  -23.5840  -48.1028 C.2       14 UNK         0.5000 
     83 O          -6.2763  -24.3224  -48.8571 O.2       14 UNK        -0.5000 
     84 N          -5.6079  -22.2469  -48.2018 N.am      15 UNK        -0.5000 
     85 CA         -6.1225  -21.4119  -49.2874 C.3       15 UNK         0.1400 
     86 CB         -7.6458  -21.5746  -49.4744 C.3       15 UNK        -0.1800 
     87 C          -5.3170  -21.6627  -50.5742 C.2       15 UNK         0.5000 
     88 O          -5.8362  -22.2307  -51.5369 O.2       15 UNK        -0.5000 
     89 N          -4.0412  -21.2474  -50.5505 N.am      16 UNK        -0.5000 
     90 CA         -3.0345  -21.4292  -51.6078 C.3       16 UNK         0.1400 
     91 CB         -1.7401  -20.7094  -51.2045 C.3       16 UNK        -0.1800 
     92 C          -3.4669  -20.9939  -53.0228 C.2       16 UNK         0.5000 
     93 O          -3.0263  -21.5982  -54.0006 O.2       16 UNK        -0.5000 
     94 N          -4.3673  -20.0062  -53.1136 N.am      17 UNK        -0.5000 
     95 CA         -5.0099  -19.5686  -54.3558 C.3       17 UNK         0.1400 
     96 CB         -5.9065  -18.3593  -54.0536 C.3       17 UNK        -0.1800 
     97 C          -5.8139  -20.6756  -55.0718 C.2       17 UNK         0.5000 
     98 O          -5.9393  -20.6333  -56.2954 O.2       17 UNK        -0.5000 
     99 N          -6.3207  -21.6506  -54.3065 N.am      18 UNK        -0.5000 
    100 CA        -7.0023  -22.8399  -54.8073 C.3       18 UNK         0.1400 
    101 CB        -8.3167  -23.0314  -54.0334 C.3       18 UNK        -0.1800 
    102 C         -6.1057  -24.0804  -54.6662 C.2       18 UNK         0.5000 
    103 O         -5.9818  -24.8458  -55.6218 O.2       18 UNK        -0.5000 
    104 N         -5.4962  -24.2604  -53.4850 N.am      19 UNK        -0.5000 
    105 CA        -4.7451  -25.4619  -53.1104 C.3       19 UNK         0.1400 
    106 CB        -4.4981  -25.4581  -51.5952 C.3       19 UNK        -0.1800 
    107 C         -3.4226  -25.6465  -53.8739 C.2       19 UNK         0.5000 
    108 O         -3.0810  -26.7784  -54.2188 O.2       19 UNK        -0.5000 
    109 N         -2.7128  -24.5416  -54.1306 N.am      20 UNK        -0.5000 
    110 CA        -1.4718  -24.5085  -54.9095 C.3       20 UNK         0.1400 
    111 CB        -0.3940  -23.7759  -54.0923 C.3       20 UNK        -0.1800 
    112 C         -1.6848  -23.8480  -56.2863 C.2       20 UNK         0.5000 
    113 O         -0.7377  -23.7688  -57.0695 O.2       20 UNK        -0.5000 
    114 N         -2.9202  -23.3957  -56.5552 N.am      21 UNK        -0.5000 
    115 CA        -3.3862  -22.7009  -57.7583 C.3       21 UNK         0.1400 
    116 CB        -3.3571  -23.6466  -58.9772 C.3       21 UNK        -0.1800 
    117 C         -2.6593  -21.3619  -58.0118 C.2       21 UNK         0.5000 
    118 O         -2.4576  -20.9836  -59.1679 O.2       21 UNK        -0.5000 
    119 N         -2.2643  -20.6760  -56.9304 N.am      22 UNK        -0.5000 
    120 CA        -1.5737  -19.3784  -56.9680 C.3       22 UNK         0.1400 
    121 C         -2.4358  -18.2414  -57.5880 C.2       22 UNK         0.5000 
    122 N         -1.8322  -17.3517  -58.3646 N.am      22 UNK        -0.7600 
    123 O         -3.6320  -18.1279  -57.3343 O.2       22 UNK        -0.5000 
    124 C124       -1.0697  -18.9638  -55.5653 C.3       23 UNK        -0.0398 
    125 S125        0.2126  -20.0910  -54.9188 S.3       23 UNK        -0.2404 
    126 C126        1.4537  -18.9179  -54.2829 C.3       23 UNK        -0.0205 
    127 H127       -0.3814  -10.6764  -46.7171 H         1 UNK         0.0600 
    128 H128        0.1465   -9.9922  -48.2650 H         1 UNK         0.0600 
    129 H129       -1.0641   -9.1617  -47.2927 H         1 UNK         0.0600 
    130 H130       -2.3517  -12.6385  -49.2363 H         1 UNK         0.3000 
    131 H131        0.4699  -12.3219  -48.6439 H         1 UNK         0.0600 
    132 H132       -0.1358  -13.5901  -50.5969 H         1 UNK         0.0800 
    133 H133        0.6581  -14.6455  -49.4683 H         1 UNK         0.0800 
    134 H134       -1.2623  -15.1794  -52.0889 H         1 UNK         0.0800 
    135 H135       -2.3170  -16.4934  -51.6359 H         1 UNK         0.0800 
    136 H136       -0.4213  -17.0525  -53.5858 H         1 UNK         0.1150 
    137 H137        2.5332  -19.6533  -51.8881 H         1 UNK         0.1150 
    138 H138        0.2088  -17.1226  -49.3479 H         1 UNK         0.1150 
    139 H139        2.2595  -18.2032  -48.4996 H         1 UNK         0.0800 
    140 H140        3.2216  -19.2098  -49.5488 H         1 UNK         0.0800 
    141 H141       -0.6867  -19.3221  -48.7520 H         1 UNK         0.0800 
    142 H142        0.1375  -18.8920  -47.2718 H         1 UNK         0.0800 
    143 H143       -1.0741  -21.6571  -47.7643 H         1 UNK         0.0600 
    144 H144        0.4664  -20.6898  -45.5985 H         1 UNK         0.3000 
    145 H145       -0.8885  -22.9105  -43.0901 H         1 UNK         0.0600 
    146 H146        1.5198  -23.3826  -42.8909 H         1 UNK         0.0600 
    147 H147        0.9042  -24.0862  -44.3775 H         1 UNK         0.0600 
    148 H148        1.8446  -22.6014  -44.4366 H         1 UNK         0.0600 
    149 H149        1.0358  -20.8493  -42.8393 H         1 UNK         0.3000 
    150 H150       -1.2634  -18.1823  -42.0554 H         1 UNK         0.0600 
    151 H151        0.8353  -19.7161  -40.4308 H         1 UNK         0.0600 
    152 H152       -0.8403  -19.4627  -39.9528 H         1 UNK         0.0600 
    153 H153        0.2488  -18.0891  -40.0945 H         1 UNK         0.0600 
    154 H154        1.5584  -18.1700  -42.2487 H         1 UNK         0.3000 
    155 H155        1.8308  -17.4350  -45.7459 H         1 UNK         0.0600 
    156 H156        2.3848  -15.8959  -43.1519 H         1 UNK         0.0600 
    157 H157        1.4998  -15.2974  -44.5463 H         1 UNK         0.0600 
    158 H158        3.2129  -15.6407  -44.6896 H         1 UNK         0.0600 
    159 H159        3.7480  -17.9276  -43.6687 H         1 UNK         0.3000 
    160 H160        4.1877  -21.4148  -44.2957 H         1 UNK         0.0600 
    161 H161        5.9275  -18.9585  -44.8839 H         1 UNK         0.0600 
    162 H162        5.4879  -20.2006  -46.0502 H         1 UNK         0.0600 
    163 H163        6.4989  -20.6139  -44.6746 H         1 UNK         0.0600 
    164 H164        5.4761  -19.5706  -42.5180 H         1 UNK         0.3000 
    165 H165        3.3176  -20.1389  -39.7239 H         1 UNK         0.0600 
    166 H166        5.4562  -20.8255  -38.7037 H         1 UNK         0.0600 
    167 H167        6.2072  -20.9860  -40.2918 H         1 UNK         0.0600 
    168 H168        4.9079  -22.0715  -39.8124 H         1 UNK         0.0600 
    169 H169        5.6012  -18.5813  -39.7465 H         1 UNK         0.3000 
    170 H170        5.3664  -16.3760  -39.4093 H         1 UNK         0.0600 
    171 H171        6.2027  -16.3705  -41.7753 H         1 UNK         0.0600 
    172 H172        4.7606  -15.5066  -42.2945 H         1 UNK         0.0600 
    173 H173        5.9112  -14.7361  -41.2034 H         1 UNK         0.0600 
    174 H174        3.4509  -14.5245  -40.4634 H         1 UNK         0.3000 
    175 H175        0.8665  -14.8574  -38.2263 H         1 UNK         0.0600 
    176 H176        3.0496  -12.7800  -37.6569 H         1 UNK         0.0600 
    177 H177        1.3496  -12.6441  -37.2040 H         1 UNK         0.0600 
    178 H178        2.3559  -13.8849  -36.4765 H         1 UNK         0.0600 
    179 H179        1.7866  -12.5955  -39.7475 H         1 UNK         0.3000 
    180 H180        0.0864  -12.1777  -41.6150 H         1 UNK         0.0600 
    181 H181        2.5855  -13.4670  -42.8867 H         1 UNK         0.0600 
    182 H182        2.5827  -12.0725  -41.8174 H         1 UNK         0.0600 
    183 H183        1.8714  -11.9472  -43.4105 H         1 UNK         0.0600 
    184 H184       -0.2876  -14.7039  -42.8422 H         1 UNK         0.3000 
    185 H185       -1.1270  -15.0464  -44.9448 H         1 UNK         0.0600 
    186 H186       -3.5975  -14.7184  -45.2945 H         1 UNK         0.0600 
    187 H187       -3.1510  -14.5083  -43.6076 H         1 UNK         0.0600 
    188 H188       -3.4800  -13.0997  -44.6099 H         1 UNK         0.0600 
    189 H189       -2.2714  -13.1787  -46.7923 H         1 UNK         0.3000 
    190 H190       -1.8575  -19.1450  -45.3308 H         1 UNK         0.3000 
    191 H191       -4.3466  -18.3602  -46.4672 H         1 UNK         0.0600 
    192 H192       -4.7179  -17.2862  -44.2718 H         1 UNK         0.0600 
    193 H193       -3.0612  -17.0178  -44.7973 H         1 UNK         0.0600 
    194 H194       -3.4061  -18.2121  -43.5530 H         1 UNK         0.0600 
    195 H195       -3.5289  -20.8030  -43.9627 H         1 UNK         0.3000 
    196 H196       -6.1930  -21.6385  -43.4164 H         1 UNK         0.0600 
    197 H197       -3.5252  -23.0989  -43.0391 H         1 UNK         0.0600 
    198 H198       -4.3113  -22.0458  -41.8656 H         1 UNK         0.0600 
    199 H199       -5.0557  -23.5740  -42.3110 H         1 UNK         0.0600 
    200 H200       -3.7094  -22.9530  -45.6665 H         1 UNK         0.3000 
    201 H201       -5.3340  -25.1142  -46.6363 H         1 UNK         0.0600 
    202 H202       -2.8630  -23.7574  -47.8441 H         1 UNK         0.0600 
    203 H203       -3.5256  -25.3087  -48.3452 H         1 UNK         0.0600 
    204 H204       -2.8477  -25.1274  -46.7339 H         1 UNK         0.0600 
    205 H205       -5.0108  -21.7569  -47.5467 H         1 UNK         0.3000 
    206 H206       -5.9405  -20.3774  -48.9919 H         1 UNK         0.0600 
    207 H207       -8.1771  -21.3967  -48.5394 H         1 UNK         0.0600 
    208 H208       -8.0217  -20.8579  -50.2052 H         1 UNK         0.0600 
    209 H209       -7.9177  -22.5681  -49.8312 H         1 UNK         0.0600 
    210 H210       -3.7058  -20.8394  -49.6822 H         1 UNK         0.3000 
    211 H211       -2.8180  -22.4970  -51.6613 H         1 UNK         0.0600 
    212 H212       -0.9769  -20.8015  -51.9790 H         1 UNK         0.0600 
    213 H213       -1.3232  -21.1376  -50.2939 H         1 UNK         0.0600 
    214 H214       -1.9054  -19.6448  -51.0350 H         1 UNK         0.0600 
    215 H215       -4.6844  -19.5706  -52.2605 H         1 UNK         0.3000 
    216 H216       -4.2232  -19.2489  -55.0382 H         1 UNK         0.0600 
    217 H217       -6.7024  -18.6139  -53.3526 H         1 UNK         0.0600 
    218 H218       -6.3764  -17.9861  -54.9646 H         1 UNK         0.0600 
    219 H219       -5.3306  -17.5376  -53.6275 H         1 UNK         0.0600 
    220 H220       -6.1467  -21.6277  -53.3058 H         1 UNK         0.3000 
    221 H221       -7.2501  -22.7263  -55.8647 H         1 UNK         0.0600 
    222 H222       -8.9833  -22.1812  -54.1785 H         1 UNK         0.0600 
    223 H223       -8.1457  -23.1409  -52.9616 H         1 UNK         0.0600 
    224 H224       -8.8457  -23.9218  -54.3755 H         1 UNK         0.0600 
    225 H225       -5.6548  -23.5793  -52.7454 H         1 UNK         0.3000 
    226 H226       -5.3717  -26.3263  -53.3407 H         1 UNK         0.0600 
    227 H227       -3.9502  -24.5732  -51.2724 H         1 UNK         0.0600 
    228 H228       -5.4420  -25.4843  -51.0523 H         1 UNK         0.0600 
    229 H229       -3.9243  -26.3327  -51.2862 H         1 UNK         0.0600 
    230 H230       -3.0662  -23.6383  -53.8369 H         1 UNK         0.3000 
    231 H231       -1.1105  -25.5203  -55.1029 H         1 UNK         0.0600 
    232 H232       -0.6847  -22.7519  -53.8622 H         1 UNK         0.0600 
    233 H233        0.5509  -23.7326  -54.6351 H         1 UNK         0.0600 
    234 H234       -0.2028  -24.2867  -53.1486 H         1 UNK         0.0600 
    235 H235       -3.6158  -23.5238  -55.8355 H         1 UNK         0.3000 
    236 H236       -4.4298  -22.4462  -57.5729 H         1 UNK         0.0600 
    237 H237       -3.8890  -24.5747  -58.7676 H         1 UNK         0.0600 
    238 H238       -3.8389  -23.1869  -59.8409 H         1 UNK         0.0600 
    239 H239       -2.3379  -23.9015  -59.2686 H         1 UNK         0.0600 
    240 H240       -2.4530  -21.0592  -56.0114 H         1 UNK         0.3000 
    241 H241       -0.6997  -19.5097  -57.6094 H         1 UNK         0.0600 
    242 H242       -2.3765  -16.6006  -58.7601 H         1 UNK         0.3800 
    243 H243       -0.8505  -17.4182  -58.5861 H         1 UNK         0.3800 
    244 H244       -1.8898  -18.9199  -54.8482 H         1 UNK         0.0800 
    245 H245       -0.6544  -17.9570  -55.6171 H         1 UNK         0.0800 
    246 H246        2.4192  -19.4250  -54.2563 H         1 UNK         0.0800 
    247 H247        1.5771  -18.0808  -54.9713 H         1 UNK         0.0800 
@<TRIPOS>BOND
     1    1    2 1    
     2    1  127 1    
     3    1  128 1    
     4    1  129 1    
     5    2    3 2    
     6    2    4 am   BACKBONE|DICT|INTERRES
     7    4    5 1    
     8    4  130 1    
     9    5    6 1    
    10    5   65 1    
    11    5  131 1    
    12    6    7 1    
    13    6  132 1    
    14    6  133 1    
    15    7    8 1    
    16    8    9 1    
    17    8  134 1    
    18    8  135 1    
    19    9   10 ar   
    20    9   14 ar   
    21   10   11 ar   
    22   10  136 1    
    23   11   12 ar   
    24   11  126 1    
    25   12   13 ar   
    26   12  137 1    
    27   13   14 ar   
    28   13   15 1    
    29   14  138 1    
    30   15   16 1    
    31   15  139 1    
    32   15  140 1    
    33   16   17 1    
    34   17   18 1    
    35   17  141 1    
    36   17  142 1    
    37   18   19 1    
    38   18   67 1    
    39   18  143 1    
    40   19   20 am   BACKBONE|DICT|INTERRES
    41   19  144 1    
    42   20   21 2    
    43   20   22 1    
    44   22   23 1    
    45   22   24 1    
    46   22  145 1    
    47   23  146 1    
    48   23  147 1    
    49   23  148 1    
    50   24   25 am   BACKBONE|DICT|INTERRES
    51   24  149 1    
    52   25   26 2    
    53   25   27 1    
    54   27   28 1    
    55   27   29 1    
    56   27  150 1    
    57   28  151 1    
    58   28  152 1    
    59   28  153 1    
    60   29   30 am   BACKBONE|DICT|INTERRES
    61   29  154 1    
    62   30   31 2    
    63   30   32 1    
    64   32   33 1    
    65   32   34 1    
    66   32  155 1    
    67   33  156 1    
    68   33  157 1    
    69   33  158 1    
    70   34   35 am   BACKBONE|DICT|INTERRES
    71   34  159 1    
    72   35   36 2    
    73   35   37 1    
    74   37   38 1    
    75   37   39 1    
    76   37  160 1    
    77   38  161 1    
    78   38  162 1    
    79   38  163 1    
    80   39   40 am   BACKBONE|DICT|INTERRES
    81   39  164 1    
    82   40   41 2    
    83   40   42 1    
    84   42   43 1    
    85   42   44 1    
    86   42  165 1    
    87   43  166 1    
    88   43  167 1    
    89   43  168 1    
    90   44   45 am   BACKBONE|DICT|INTERRES
    91   44  169 1    
    92   45   46 2    
    93   45   47 1    
    94   47   48 1    
    95   47   49 1    
    96   47  170 1    
    97   48  171 1    
    98   48  172 1    
    99   48  173 1    
   100   49   50 am   BACKBONE|DICT|INTERRES
   101   49  174 1    
   102   50   51 2    
   103   50   52 1    
   104   52   53 1    
   105   52   54 1    
   106   52  175 1    
   107   53  176 1    
   108   53  177 1    
   109   53  178 1    
   110   54   55 am   BACKBONE|DICT|INTERRES
   111   54  179 1    
   112   55   56 2    
   113   55   57 1    
   114   57   58 1    
   115   57   59 1    
   116   57  180 1    
   117   58  181 1    
   118   58  182 1    
   119   58  183 1    
   120   59   60 am   BACKBONE|DICT|INTERRES
   121   59  184 1    
   122   60   61 2    
   123   60   62 1    
   124   62   63 1    
   125   62   64 1    
   126   62  185 1    
   127   63  186 1    
   128   63  187 1    
   129   63  188 1    
   130   64   65 am   BACKBONE|DICT|INTERRES
   131   64  189 1    
   132   65   66 2    
   133   67   68 2    
   134   67   69 am   BACKBONE|DICT|INTERRES
   135   69   70 1    
   136   69  190 1    
   137   70   71 1    
   138   70   72 1    
   139   70  191 1    
   140   71  192 1    
   141   71  193 1    
   142   71  194 1    
   143   72   73 2    
   144   72   74 am   BACKBONE|DICT|INTERRES
   145   74   75 1    
   146   74  195 1    
   147   75   76 1    
   148   75   77 1    
   149   75  196 1    
   150   76  197 1    
   151   76  198 1    
   152   76  199 1    
   153   77   78 2    
   154   77   79 am   BACKBONE|DICT|INTERRES
   155   79   80 1    
   156   79  200 1    
   157   80   81 1    
   158   80   82 1    
   159   80  201 1    
   160   81  202 1    
   161   81  203 1    
   162   81  204 1    
   163   82   83 2    
   164   82   84 am   BACKBONE|DICT|INTERRES
   165   84   85 1    
   166   84  205 1    
   167   85   86 1    
   168   85   87 1    
   169   85  206 1    
   170   86  207 1    
   171   86  208 1    
   172   86  209 1    
   173   87   88 2    
   174   87   89 am   BACKBONE|DICT|INTERRES
   175   89   90 1    
   176   89  210 1    
   177   90   91 1    
   178   90   92 1    
   179   90  211 1    
   180   91  212 1    
   181   91  213 1    
   182   91  214 1    
   183   92   93 2    
   184   92   94 am   BACKBONE|DICT|INTERRES
   185   94   95 1    
   186   94  215 1    
   187   95   96 1    
   188   95   97 1    
   189   95  216 1    
   190   96  217 1    
   191   96  218 1    
   192   96  219 1    
   193   97   98 2    
   194   97   99 am   BACKBONE|DICT|INTERRES
   195   99  100 1    
   196   99  220 1    
   197  100  101 1    
   198  100  102 1    
   199  100  221 1    
   200  101  222 1    
   201  101  223 1    
   202  101  224 1    
   203  102  103 2    
   204  102  104 am   BACKBONE|DICT|INTERRES
   205  104  105 1    
   206  104  225 1    
   207  105  106 1    
   208  105  107 1    
   209  105  226 1    
   210  106  227 1    
   211  106  228 1    
   212  106  229 1    
   213  107  108 2    
   214  107  109 am   BACKBONE|DICT|INTERRES
   215  109  110 1    
   216  109  230 1    
   217  110  111 1    
   218  110  112 1    
   219  110  231 1    
   220  111  232 1    
   221  111  233 1    
   222  111  234 1    
   223  112  113 2    
   224  112  114 am   BACKBONE|DICT|INTERRES
   225  114  115 1    
   226  114  235 1    
   227  115  116 1    
   228  115  117 1    
   229  115  236 1    
   230  116  237 1    
   231  116  238 1    
   232  116  239 1    
   233  117  118 2    
   234  117  119 am   BACKBONE|DICT|INTERRES
   235  119  120 1    
   236  119  240 1    
   237  120  121 1    
   238  120  124 1    
   239  120  241 1    
   240  121  122 am   BACKBONE|DICT|INTERRES
   241  121  123 2    
   242  122  242 1    
   243  122  243 1    
   244  124  125 1    
   245  124  244 1    
   246  124  245 1    
   247  125  126 1    
   248  126  246 1    
   249  126  247 1    
@<TRIPOS>SUBSTRUCTURE
     1 UNK         1 GROUP             0       ****    0 ROOT    
