@<TRIPOS>MOLECULE
3R540
247   249    1
SMALL
USER_CHARGES


@<TRIPOS>ATOM
      1 CA          2.6639  -12.8811  -47.6307 C.3       0 UNK        -0.1800 
      2 C           2.2509  -12.5403  -49.0601 C.2       0 UNK         0.5000 
      3 O           2.6381  -11.4893  -49.5659 O.2       0 UNK        -0.5000 
      4 N           1.4720  -13.3837  -49.7508 N.am      1 UNK        -0.5000 
      5 CA          0.9168  -14.6631  -49.2819 C.3       1 UNK         0.1400 
      6 C6          0.6628  -15.6417  -50.4556 C.3       23 UNK        -0.0398 
      7 S7          2.1334  -15.9417  -51.4945 S.3       23 UNK        -0.2404 
      8 C8          1.7522  -17.5820  -52.2131 C.3       23 UNK        -0.0205 
      9 C9          2.6970  -18.7240  -51.8268 C.ar      23 UNK        -0.0193 
     10 C10         2.5825  -19.9352  -52.5177 C.ar      23 UNK        -0.1150 
     11 C11         3.4228  -21.0133  -52.2258 C.ar      23 UNK        -0.0193 
     12 C12         4.3857  -20.8813  -51.2230 C.ar      23 UNK        -0.1150 
     13 C13         4.5091  -19.6859  -50.5129 C.ar      23 UNK        -0.0193 
     14 C14         3.6682  -18.6113  -50.8221 C.ar      23 UNK        -0.1150 
     15 C15         5.5594  -19.5571  -49.4181 C.3       23 UNK        -0.0205 
     16 S16         5.0044  -20.2894  -47.8437 S.3       23 UNK        -0.2404 
     17 C17         3.5998  -19.2053  -47.4277 C.3       23 UNK        -0.0398 
     18 CA          2.2407  -19.9355  -47.5989 C.3       11 UNK         0.1400 
     19 N           2.0154  -20.8860  -46.5058 N.am      11 UNK        -0.5000 
     20 C           1.2944  -22.0109  -46.5628 C.2       10 UNK         0.5000 
     21 O           0.7234  -22.3870  -47.5869 O.2       10 UNK        -0.5000 
     22 CA          1.0982  -22.8115  -45.2606 C.3       10 UNK         0.1400 
     23 CB          1.4372  -24.3047  -45.4450 C.3       10 UNK        -0.1800 
     24 N           1.7619  -22.2294  -44.0863 N.am      10 UNK        -0.5000 
     25 C           3.0689  -22.2108  -43.7776 C.2       9 UNK         0.5000 
     26 O           3.9388  -22.7509  -44.4607 O.2       9 UNK        -0.5000 
     27 CA          3.4830  -21.4397  -42.5043 C.3       9 UNK         0.1400 
     28 CB          4.6822  -20.5134  -42.7747 C.3       9 UNK        -0.1800 
     29 N           2.3850  -20.6337  -41.9664 N.am      9 UNK        -0.5000 
     30 C           1.5526  -21.0067  -40.9851 C.2       8 UNK         0.5000 
     31 O           1.6601  -22.0662  -40.3673 O.2       8 UNK        -0.5000 
     32 CA          0.3840  -20.0545  -40.6508 C.3       8 UNK         0.1400 
     33 CB          0.7299  -19.1967  -39.4243 C.3       8 UNK        -0.1800 
     34 N          -0.0043  -19.1733  -41.7563 N.am      8 UNK        -0.5000 
     35 C          -0.4965  -19.5804  -42.9349 C.2       7 UNK         0.5000 
     36 O          -0.7264  -20.7589  -43.2057 O.2       7 UNK        -0.5000 
     37 CA         -0.6864  -18.5051  -44.0218 C.3       7 UNK         0.1400 
     38 CB         -2.0618  -17.8347  -43.9058 C.3       7 UNK        -0.1800 
     39 N           0.3608  -17.4819  -44.0215 N.am      7 UNK        -0.5000 
     40 C           1.6665  -17.7288  -44.2003 C.2       6 UNK         0.5000 
     41 O           2.1310  -18.8561  -44.3673 O.2       6 UNK        -0.5000 
     42 CA          2.6179  -16.5268  -44.1117 C.3       6 UNK         0.1400 
     43 CB          2.5698  -15.6758  -45.3893 C.3       6 UNK        -0.1800 
     44 N           2.2968  -15.7020  -42.9493 N.am      6 UNK        -0.5000 
     45 C           2.6187  -16.0277  -41.6890 C.2       5 UNK         0.5000 
     46 O           3.2929  -17.0126  -41.3877 O.2       5 UNK        -0.5000 
     47 CA          2.0766  -15.1131  -40.5740 C.3       5 UNK         0.1400 
     48 CB          3.0715  -13.9819  -40.2741 C.3       5 UNK        -0.1800 
     49 N           0.7711  -14.5321  -40.8925 N.am      5 UNK        -0.5000 
     50 C          -0.3648  -15.2333  -41.0156 C.2       4 UNK         0.5000 
     51 O          -0.4391  -16.4497  -40.8493 O.2       4 UNK        -0.5000 
     52 CA         -1.6169  -14.4481  -41.4479 C.3       4 UNK         0.1400 
     53 CB         -2.3365  -13.8639  -40.2234 C.3       4 UNK        -0.1800 
     54 N          -1.3272  -13.3730  -42.4018 N.am      4 UNK        -0.5000 
     55 C          -0.8073  -13.5586  -43.6221 C.2       3 UNK         0.5000 
     56 O          -0.4717  -14.6605  -44.0628 O.2       3 UNK        -0.5000 
     57 CA         -0.5577  -12.2919  -44.4594 C.3       3 UNK         0.1400 
     58 CB          0.9128  -11.8623  -44.3359 C.3       3 UNK        -0.1800 
     59 N          -0.8798  -12.4917  -45.8718 N.am      3 UNK        -0.5000 
     60 C          -2.1105  -12.7044  -46.3585 C.2       2 UNK         0.5000 
     61 O          -3.1262  -12.7112  -45.6615 O.2       2 UNK        -0.5000 
     62 CA         -2.2433  -12.9179  -47.8812 C.3       2 UNK         0.1400 
     63 CB         -2.8252  -11.6642  -48.5526 C.3       2 UNK        -0.1800 
     64 N          -0.9852  -13.2647  -48.5493 N.am      2 UNK        -0.5000 
     65 C          -0.3865  -14.4620  -48.4711 C.2       1 UNK         0.5000 
     66 O          -0.8349  -15.3849  -47.7959 O.2       1 UNK        -0.5000 
     67 C           1.0479  -18.9598  -47.7116 C.2       11 UNK         0.5000 
     68 O           1.2430  -17.7471  -47.7772 O.2       11 UNK        -0.5000 
     69 N          -0.1721  -19.5103  -47.7025 N.am      12 UNK        -0.5000 
     70 CA         -1.4259  -18.7823  -47.8632 C.3       12 UNK         0.1400 
     71 CB         -2.5737  -19.6638  -47.3434 C.3       12 UNK        -0.1800 
     72 C          -1.6605  -18.4042  -49.3353 C.2       12 UNK         0.5000 
     73 O          -1.0897  -19.0254  -50.2346 O.2       12 UNK        -0.5000 
     74 N          -2.5210  -17.4061  -49.5648 N.am      13 UNK        -0.5000 
     75 CA         -3.0031  -17.0370  -50.8931 C.3       13 UNK         0.1400 
     76 CB         -3.7469  -15.6951  -50.8096 C.3       13 UNK        -0.1800 
     77 C          -3.9119  -18.1521  -51.4368 C.2       13 UNK         0.5000 
     78 O          -4.9505  -18.4288  -50.8338 O.2       13 UNK        -0.5000 
     79 N          -3.4976  -18.7889  -52.5398 N.am      14 UNK        -0.5000 
     80 CA         -4.1234  -19.9912  -53.0993 C.3       14 UNK         0.1400 
     81 CB         -3.3074  -20.4786  -54.3047 C.3       14 UNK        -0.1800 
     82 C          -5.6059  -19.8243  -53.4780 C.2       14 UNK         0.5000 
     83 O          -6.3717  -20.7772  -53.3368 O.2       14 UNK        -0.5000 
     84 N          -5.9901  -18.6164  -53.9110 N.am      15 UNK        -0.5000 
     85 CA         -7.3714  -18.2533  -54.2305 C.3       15 UNK         0.1400 
     86 CB         -7.3793  -16.9152  -54.9850 C.3       15 UNK        -0.1800 
     87 C          -8.2776  -18.1773  -52.9863 C.2       15 UNK         0.5000 
     88 O          -9.4527  -18.5338  -53.0728 O.2       15 UNK        -0.5000 
     89 N          -7.7168  -17.7323  -51.8530 N.am      16 UNK        -0.5000 
     90 CA         -8.4080  -17.6520  -50.5651 C.3       16 UNK         0.1400 
     91 CB         -7.7226  -16.5980  -49.6815 C.3       16 UNK        -0.1800 
     92 C          -8.4378  -19.0175  -49.8585 C.2       16 UNK         0.5000 
     93 O          -9.4503  -19.3722  -49.2545 O.2       16 UNK        -0.5000 
     94 N          -7.3322  -19.7659  -49.9701 N.am      17 UNK        -0.5000 
     95 CA         -7.1624  -21.1110  -49.4201 C.3       17 UNK         0.1400 
     96 CB         -5.6622  -21.4452  -49.4032 C.3       17 UNK        -0.1800 
     97 C          -7.9379  -22.1992  -50.1892 C.2       17 UNK         0.5000 
     98 O          -8.0512  -23.3146  -49.6841 O.2       17 UNK        -0.5000 
     99 N          -8.4182  -21.8789  -51.4001 N.am      18 UNK        -0.5000 
    100 CA        -9.0817  -22.7721  -52.3570 C.3       18 UNK         0.1400 
    101 CB       -10.4402  -23.2607  -51.8124 C.3       18 UNK        -0.1800 
    102 C         -8.1511  -23.9182  -52.8070 C.2       18 UNK         0.5000 
    103 O         -8.5425  -25.0863  -52.8014 O.2       18 UNK        -0.5000 
    104 N         -6.9140  -23.5390  -53.1591 N.am      19 UNK        -0.5000 
    105 CA        -5.7977  -24.3778  -53.6105 C.3       19 UNK         0.1400 
    106 CB        -6.1533  -25.1196  -54.9156 C.3       19 UNK        -0.1800 
    107 C         -5.2165  -25.3220  -52.5337 C.2       19 UNK         0.5000 
    108 O         -4.4109  -26.1907  -52.8695 O.2       19 UNK        -0.5000 
    109 N         -5.5890  -25.1265  -51.2599 N.am      20 UNK        -0.5000 
    110 CA        -5.0679  -25.8861  -50.1173 C.3       20 UNK         0.1400 
    111 CB        -6.1016  -25.8534  -48.9809 C.3       20 UNK        -0.1800 
    112 C         -3.7006  -25.3743  -49.6154 C.2       20 UNK         0.5000 
    113 O         -3.0900  -26.0251  -48.7662 O.2       20 UNK        -0.5000 
    114 N         -3.2557  -24.2155  -50.1206 N.am      21 UNK        -0.5000 
    115 CA        -1.9688  -23.5940  -49.8104 C.3       21 UNK         0.1400 
    116 CB        -1.9407  -22.1901  -50.4334 C.3       21 UNK        -0.1800 
    117 C         -0.7712  -24.4158  -50.3252 C.2       21 UNK         0.5000 
    118 O         -0.8909  -25.0941  -51.3488 O.2       21 UNK        -0.5000 
    119 N          0.3609  -24.2715  -49.6247 N.am      22 UNK        -0.5000 
    120 CA         1.6985  -24.8085  -49.9199 C.3       22 UNK         0.1400 
    121 C          1.7461  -26.2977  -50.3835 C.2       22 UNK         0.5000 
    122 N          2.4815  -26.6410  -51.4335 N.am      22 UNK        -0.7600 
    123 O          1.1646  -27.1683  -49.7401 O.2       22 UNK        -0.5000 
    124 C124        2.5756  -23.8025  -50.7202 C.3       23 UNK        -0.0398 
    125 S125        1.9520  -23.3647  -52.3810 S.3       23 UNK        -0.2404 
    126 C126        3.3013  -22.3152  -53.0041 C.3       23 UNK        -0.0205 
    127 H127        1.8177  -13.2209  -47.0373 H         1 UNK         0.0600 
    128 H128        3.4240  -13.6623  -47.6353 H         1 UNK         0.0600 
    129 H129        3.0839  -12.0062  -47.1341 H         1 UNK         0.0600 
    130 H130        1.2481  -13.1493  -50.7076 H         1 UNK         0.3000 
    131 H131        1.6382  -15.1402  -48.6158 H         1 UNK         0.0600 
    132 H132       -0.1420  -15.2820  -51.0990 H         1 UNK         0.0800 
    133 H133        0.3387  -16.6013  -50.0567 H         1 UNK         0.0800 
    134 H134        1.7708  -17.4719  -53.2983 H         1 UNK         0.0800 
    135 H135        0.7329  -17.8759  -51.9602 H         1 UNK         0.0800 
    136 H136        1.8361  -20.0405  -53.2929 H         1 UNK         0.1150 
    137 H137        5.0376  -21.7114  -50.9891 H         1 UNK         0.1150 
    138 H138        3.7788  -17.6895  -50.2716 H         1 UNK         0.1150 
    139 H139        6.4768  -20.0561  -49.7337 H         1 UNK         0.0800 
    140 H140        5.8246  -18.5104  -49.2605 H         1 UNK         0.0800 
    141 H141        3.6623  -18.3096  -48.0447 H         1 UNK         0.0800 
    142 H142        3.7281  -18.8550  -46.4039 H         1 UNK         0.0800 
    143 H143        2.2670  -20.4809  -48.5452 H         1 UNK         0.0600 
    144 H144        2.3564  -20.5852  -45.6011 H         1 UNK         0.3000 
    145 H145        0.0310  -22.7521  -45.0425 H         1 UNK         0.0600 
    146 H146        1.2946  -24.8603  -44.5182 H         1 UNK         0.0600 
    147 H147        0.7917  -24.7594  -46.1976 H         1 UNK         0.0600 
    148 H148        2.4657  -24.4534  -45.7739 H         1 UNK         0.0600 
    149 H149        1.1337  -21.7271  -43.4692 H         1 UNK         0.3000 
    150 H150        3.7939  -22.1820  -41.7667 H         1 UNK         0.0600 
    151 H151        5.5592  -21.0853  -43.0798 H         1 UNK         0.0600 
    152 H152        4.9568  -19.9530  -41.8808 H         1 UNK         0.0600 
    153 H153        4.4699  -19.7948  -43.5665 H         1 UNK         0.0600 
    154 H154        2.2064  -19.7628  -42.4531 H         1 UNK         0.3000 
    155 H155       -0.4795  -20.6746  -40.4018 H         1 UNK         0.0600 
    156 H156        1.5575  -18.5171  -39.6315 H         1 UNK         0.0600 
    157 H157        1.0191  -19.8198  -38.5770 H         1 UNK         0.0600 
    158 H158       -0.1244  -18.5979  -39.1084 H         1 UNK         0.0600 
    159 H159        0.0881  -18.1752  -41.5896 H         1 UNK         0.3000 
    160 H160       -0.6346  -19.0127  -44.9849 H         1 UNK         0.0600 
    161 H161       -2.2147  -17.1075  -44.7039 H         1 UNK         0.0600 
    162 H162       -2.1752  -17.3175  -42.9534 H         1 UNK         0.0600 
    163 H163       -2.8625  -18.5718  -43.9771 H         1 UNK         0.0600 
    164 H164        0.0571  -16.5168  -43.9231 H         1 UNK         0.3000 
    165 H165        3.6358  -16.9074  -44.0018 H         1 UNK         0.0600 
    166 H166        2.9198  -16.2488  -46.2482 H         1 UNK         0.0600 
    167 H167        1.5598  -15.3348  -45.6183 H         1 UNK         0.0600 
    168 H168        3.2113  -14.7992  -45.3020 H         1 UNK         0.0600 
    169 H169        1.6872  -14.9129  -43.1076 H         1 UNK         0.3000 
    170 H170        1.9658  -15.7205  -39.6731 H         1 UNK         0.0600 
    171 H171        4.0513  -14.3834  -40.0117 H         1 UNK         0.0600 
    172 H172        3.2057  -13.3243  -41.1340 H         1 UNK         0.0600 
    173 H173        2.7357  -13.3734  -39.4342 H         1 UNK         0.0600 
    174 H174        0.7396  -13.5351  -41.0457 H         1 UNK         0.3000 
    175 H175       -2.2948  -15.1501  -41.9365 H         1 UNK         0.0600 
    176 H176       -3.2719  -13.3817  -40.5082 H         1 UNK         0.0600 
    177 H177       -2.5824  -14.6473  -39.5051 H         1 UNK         0.0600 
    178 H178       -1.7211  -13.1263  -39.7069 H         1 UNK         0.0600 
    179 H179       -1.5645  -12.4367  -42.1069 H         1 UNK         0.3000 
    180 H180       -1.1893  -11.4849  -44.0820 H         1 UNK         0.0600 
    181 H181        1.5931  -12.6457  -44.6718 H         1 UNK         0.0600 
    182 H182        1.1668  -11.6333  -43.3002 H         1 UNK         0.0600 
    183 H183        1.1152  -10.9666  -44.9235 H         1 UNK         0.0600 
    184 H184       -0.1055  -12.5234  -46.5147 H         1 UNK         0.3000 
    185 H185       -2.9484  -13.7386  -48.0305 H         1 UNK         0.0600 
    186 H186       -2.1581  -10.8073  -48.4515 H         1 UNK         0.0600 
    187 H187       -3.0004  -11.8315  -49.6156 H         1 UNK         0.0600 
    188 H188       -3.7824  -11.3895  -48.1074 H         1 UNK         0.0600 
    189 H189       -0.5622  -12.5502  -49.1245 H         1 UNK         0.3000 
    190 H190       -0.2267  -20.5209  -47.7113 H         1 UNK         0.3000 
    191 H191       -1.3842  -17.8720  -47.2628 H         1 UNK         0.0600 
    192 H192       -2.4383  -19.9163  -46.2922 H         1 UNK         0.0600 
    193 H193       -2.6483  -20.5983  -47.8993 H         1 UNK         0.0600 
    194 H194       -3.5330  -19.1522  -47.4309 H         1 UNK         0.0600 
    195 H195       -2.9526  -16.9396  -48.7807 H         1 UNK         0.3000 
    196 H196       -2.1452  -16.9129  -51.5573 H         1 UNK         0.0600 
    197 H197       -4.1317  -15.4001  -51.7866 H         1 UNK         0.0600 
    198 H198       -3.0845  -14.8996  -50.4677 H         1 UNK         0.0600 
    199 H199       -4.5933  -15.7421  -50.1236 H         1 UNK         0.0600 
    200 H200       -2.6232  -18.5091  -52.9598 H         1 UNK         0.3000 
    201 H201       -4.0754  -20.7648  -52.3315 H         1 UNK         0.0600 
    202 H202       -2.2823  -20.7141  -54.0172 H         1 UNK         0.0600 
    203 H203       -3.2718  -19.7290  -55.0962 H         1 UNK         0.0600 
    204 H204       -3.7397  -21.3855  -54.7300 H         1 UNK         0.0600 
    205 H205       -5.2925  -17.8922  -53.9985 H         1 UNK         0.3000 
    206 H206       -7.7806  -19.0200  -54.8921 H         1 UNK         0.0600 
    207 H207       -6.8026  -16.9795  -55.9079 H         1 UNK         0.0600 
    208 H208       -8.3955  -16.6269  -55.2577 H         1 UNK         0.0600 
    209 H209       -6.9601  -16.1091  -54.3816 H         1 UNK         0.0600 
    210 H210       -6.7264  -17.5301  -51.8449 H         1 UNK         0.3000 
    211 H211       -9.4392  -17.3335  -50.7328 H         1 UNK         0.0600 
    212 H212       -6.6953  -16.8745  -49.4429 H         1 UNK         0.0600 
    213 H213       -8.2553  -16.4774  -48.7376 H         1 UNK         0.0600 
    214 H214       -7.7033  -15.6242  -50.1710 H         1 UNK         0.0600 
    215 H215       -6.5198  -19.3578  -50.4264 H         1 UNK         0.3000 
    216 H216       -7.5269  -21.1109  -48.3909 H         1 UNK         0.0600 
    217 H217       -5.4769  -22.4042  -48.9183 H         1 UNK         0.0600 
    218 H218       -5.0957  -20.6910  -48.8573 H         1 UNK         0.0600 
    219 H219       -5.2564  -21.5025  -50.4128 H         1 UNK         0.0600 
    220 H220       -8.2164  -20.9497  -51.7429 H         1 UNK         0.3000 
    221 H221       -9.2810  -22.1727  -53.2467 H         1 UNK         0.0600 
    222 H222      -10.3232  -23.9154  -50.9485 H         1 UNK         0.0600 
    223 H223      -11.0688  -22.4215  -51.5144 H         1 UNK         0.0600 
    224 H224      -10.9851  -23.8205  -52.5734 H         1 UNK         0.0600 
    225 H225       -6.7178  -22.5387  -53.1406 H         1 UNK         0.3000 
    226 H226       -4.9931  -23.6804  -53.8478 H         1 UNK         0.0600 
    227 H227       -6.5422  -24.4320  -55.6666 H         1 UNK         0.0600 
    228 H228       -6.9006  -25.8962  -54.7511 H         1 UNK         0.0600 
    229 H229       -5.2742  -25.6013  -55.3449 H         1 UNK         0.0600 
    230 H230       -6.2905  -24.4274  -51.0580 H         1 UNK         0.3000 
    231 H231       -4.9361  -26.9275  -50.4183 H         1 UNK         0.0600 
    232 H232       -7.0837  -26.1770  -49.3268 H         1 UNK         0.0600 
    233 H233       -6.2049  -24.8531  -48.5600 H         1 UNK         0.0600 
    234 H234       -5.8080  -26.5185  -48.1680 H         1 UNK         0.0600 
    235 H235       -3.8075  -23.7755  -50.8389 H         1 UNK         0.3000 
    236 H236       -1.8917  -23.4987  -48.7249 H         1 UNK         0.0600 
    237 H237       -1.0082  -21.6803  -50.1879 H         1 UNK         0.0600 
    238 H238       -2.0112  -22.2296  -51.5211 H         1 UNK         0.0600 
    239 H239       -2.7565  -21.5685  -50.0671 H         1 UNK         0.0600 
    240 H240        0.3435  -23.6460  -48.8217 H         1 UNK         0.3000 
    241 H241        2.1657  -24.8575  -48.9354 H         1 UNK         0.0600 
    242 H242        2.5236  -27.6101  -51.7083 H         1 UNK         0.3800 
    243 H243        2.9409  -25.9431  -51.9971 H         1 UNK         0.3800 
    244 H244        2.6471  -22.8789  -50.1441 H         1 UNK         0.0800 
    245 H245        3.5993  -24.1700  -50.8049 H         1 UNK         0.0800 
    246 H246        3.1159  -22.0927  -54.0559 H         1 UNK         0.0800 
    247 H247        4.2395  -22.8714  -52.9735 H         1 UNK         0.0800 
@<TRIPOS>BOND
     1    1    2 1    
     2    1  127 1    
     3    1  128 1    
     4    1  129 1    
     5    2    3 2    
     6    2    4 am   BACKBONE|DICT|INTERRES
     7    4    5 1    
     8    4  130 1    
     9    5    6 1    
    10    5   65 1    
    11    5  131 1    
    12    6    7 1    
    13    6  132 1    
    14    6  133 1    
    15    7    8 1    
    16    8    9 1    
    17    8  134 1    
    18    8  135 1    
    19    9   10 ar   
    20    9   14 ar   
    21   10   11 ar   
    22   10  136 1    
    23   11   12 ar   
    24   11  126 1    
    25   12   13 ar   
    26   12  137 1    
    27   13   14 ar   
    28   13   15 1    
    29   14  138 1    
    30   15   16 1    
    31   15  139 1    
    32   15  140 1    
    33   16   17 1    
    34   17   18 1    
    35   17  141 1    
    36   17  142 1    
    37   18   19 1    
    38   18   67 1    
    39   18  143 1    
    40   19   20 am   BACKBONE|DICT|INTERRES
    41   19  144 1    
    42   20   21 2    
    43   20   22 1    
    44   22   23 1    
    45   22   24 1    
    46   22  145 1    
    47   23  146 1    
    48   23  147 1    
    49   23  148 1    
    50   24   25 am   BACKBONE|DICT|INTERRES
    51   24  149 1    
    52   25   26 2    
    53   25   27 1    
    54   27   28 1    
    55   27   29 1    
    56   27  150 1    
    57   28  151 1    
    58   28  152 1    
    59   28  153 1    
    60   29   30 am   BACKBONE|DICT|INTERRES
    61   29  154 1    
    62   30   31 2    
    63   30   32 1    
    64   32   33 1    
    65   32   34 1    
    66   32  155 1    
    67   33  156 1    
    68   33  157 1    
    69   33  158 1    
    70   34   35 am   BACKBONE|DICT|INTERRES
    71   34  159 1    
    72   35   36 2    
    73   35   37 1    
    74   37   38 1    
    75   37   39 1    
    76   37  160 1    
    77   38  161 1    
    78   38  162 1    
    79   38  163 1    
    80   39   40 am   BACKBONE|DICT|INTERRES
    81   39  164 1    
    82   40   41 2    
    83   40   42 1    
    84   42   43 1    
    85   42   44 1    
    86   42  165 1    
    87   43  166 1    
    88   43  167 1    
    89   43  168 1    
    90   44   45 am   BACKBONE|DICT|INTERRES
    91   44  169 1    
    92   45   46 2    
    93   45   47 1    
    94   47   48 1    
    95   47   49 1    
    96   47  170 1    
    97   48  171 1    
    98   48  172 1    
    99   48  173 1    
   100   49   50 am   BACKBONE|DICT|INTERRES
   101   49  174 1    
   102   50   51 2    
   103   50   52 1    
   104   52   53 1    
   105   52   54 1    
   106   52  175 1    
   107   53  176 1    
   108   53  177 1    
   109   53  178 1    
   110   54   55 am   BACKBONE|DICT|INTERRES
   111   54  179 1    
   112   55   56 2    
   113   55   57 1    
   114   57   58 1    
   115   57   59 1    
   116   57  180 1    
   117   58  181 1    
   118   58  182 1    
   119   58  183 1    
   120   59   60 am   BACKBONE|DICT|INTERRES
   121   59  184 1    
   122   60   61 2    
   123   60   62 1    
   124   62   63 1    
   125   62   64 1    
   126   62  185 1    
   127   63  186 1    
   128   63  187 1    
   129   63  188 1    
   130   64   65 am   BACKBONE|DICT|INTERRES
   131   64  189 1    
   132   65   66 2    
   133   67   68 2    
   134   67   69 am   BACKBONE|DICT|INTERRES
   135   69   70 1    
   136   69  190 1    
   137   70   71 1    
   138   70   72 1    
   139   70  191 1    
   140   71  192 1    
   141   71  193 1    
   142   71  194 1    
   143   72   73 2    
   144   72   74 am   BACKBONE|DICT|INTERRES
   145   74   75 1    
   146   74  195 1    
   147   75   76 1    
   148   75   77 1    
   149   75  196 1    
   150   76  197 1    
   151   76  198 1    
   152   76  199 1    
   153   77   78 2    
   154   77   79 am   BACKBONE|DICT|INTERRES
   155   79   80 1    
   156   79  200 1    
   157   80   81 1    
   158   80   82 1    
   159   80  201 1    
   160   81  202 1    
   161   81  203 1    
   162   81  204 1    
   163   82   83 2    
   164   82   84 am   BACKBONE|DICT|INTERRES
   165   84   85 1    
   166   84  205 1    
   167   85   86 1    
   168   85   87 1    
   169   85  206 1    
   170   86  207 1    
   171   86  208 1    
   172   86  209 1    
   173   87   88 2    
   174   87   89 am   BACKBONE|DICT|INTERRES
   175   89   90 1    
   176   89  210 1    
   177   90   91 1    
   178   90   92 1    
   179   90  211 1    
   180   91  212 1    
   181   91  213 1    
   182   91  214 1    
   183   92   93 2    
   184   92   94 am   BACKBONE|DICT|INTERRES
   185   94   95 1    
   186   94  215 1    
   187   95   96 1    
   188   95   97 1    
   189   95  216 1    
   190   96  217 1    
   191   96  218 1    
   192   96  219 1    
   193   97   98 2    
   194   97   99 am   BACKBONE|DICT|INTERRES
   195   99  100 1    
   196   99  220 1    
   197  100  101 1    
   198  100  102 1    
   199  100  221 1    
   200  101  222 1    
   201  101  223 1    
   202  101  224 1    
   203  102  103 2    
   204  102  104 am   BACKBONE|DICT|INTERRES
   205  104  105 1    
   206  104  225 1    
   207  105  106 1    
   208  105  107 1    
   209  105  226 1    
   210  106  227 1    
   211  106  228 1    
   212  106  229 1    
   213  107  108 2    
   214  107  109 am   BACKBONE|DICT|INTERRES
   215  109  110 1    
   216  109  230 1    
   217  110  111 1    
   218  110  112 1    
   219  110  231 1    
   220  111  232 1    
   221  111  233 1    
   222  111  234 1    
   223  112  113 2    
   224  112  114 am   BACKBONE|DICT|INTERRES
   225  114  115 1    
   226  114  235 1    
   227  115  116 1    
   228  115  117 1    
   229  115  236 1    
   230  116  237 1    
   231  116  238 1    
   232  116  239 1    
   233  117  118 2    
   234  117  119 am   BACKBONE|DICT|INTERRES
   235  119  120 1    
   236  119  240 1    
   237  120  121 1    
   238  120  124 1    
   239  120  241 1    
   240  121  122 am   BACKBONE|DICT|INTERRES
   241  121  123 2    
   242  122  242 1    
   243  122  243 1    
   244  124  125 1    
   245  124  244 1    
   246  124  245 1    
   247  125  126 1    
   248  126  246 1    
   249  126  247 1    
@<TRIPOS>SUBSTRUCTURE
     1 UNK         1 GROUP             0       ****    0 ROOT    
