@<TRIPOS>MOLECULE
3R540
247   249    1
SMALL
USER_CHARGES


@<TRIPOS>ATOM
      1 CA          2.0266  -13.3863  -46.3352 C.3       0 UNK        -0.1800 
      2 C           0.7408  -13.7868  -45.6288 C.2       0 UNK         0.5000 
      3 O           0.6046  -13.5519  -44.4280 O.2       0 UNK        -0.5000 
      4 N          -0.2070  -14.3829  -46.3656 N.am      1 UNK        -0.5000 
      5 CA         -1.5133  -14.8227  -45.8540 C.3       1 UNK         0.1400 
      6 C6         -2.2983  -15.6778  -46.8784 C.3       23 UNK        -0.0398 
      7 S7         -1.4792  -17.2638  -47.2490 S.3       23 UNK        -0.2404 
      8 C8         -0.8687  -16.9750  -48.9360 C.3       23 UNK        -0.0205 
      9 C9         -0.2514  -18.2352  -49.5200 C.ar      23 UNK        -0.0193 
     10 C10        -0.9595  -19.0073  -50.4465 C.ar      23 UNK        -0.1150 
     11 C11        -0.3862  -20.1589  -50.9940 C.ar      23 UNK        -0.0193 
     12 C12         0.9032  -20.5355  -50.6110 C.ar      23 UNK        -0.1150 
     13 C13         1.6233  -19.7670  -49.6930 C.ar      23 UNK        -0.0193 
     14 C14         1.0397  -18.6202  -49.1476 C.ar      23 UNK        -0.1150 
     15 C15         3.0439  -20.1528  -49.3159 C.3       23 UNK        -0.0205 
     16 S16         3.1219  -20.9943  -47.7077 S.3       23 UNK        -0.2404 
     17 C17         2.4722  -22.6552  -48.0987 C.3       23 UNK        -0.0398 
     18 CA          1.3492  -23.1542  -47.1545 C.3       11 UNK         0.1400 
     19 N           1.6749  -22.9613  -45.7359 N.am      11 UNK        -0.5000 
     20 C           1.2724  -23.7615  -44.7401 C.2       10 UNK         0.5000 
     21 O           0.5454  -24.7417  -44.9046 O.2       10 UNK        -0.5000 
     22 CA          1.7579  -23.3977  -43.3238 C.3       10 UNK         0.1400 
     23 CB          3.2598  -23.6818  -43.1650 C.3       10 UNK        -0.1800 
     24 N           1.4933  -21.9984  -42.9960 N.am      10 UNK        -0.5000 
     25 C           0.2754  -21.4987  -42.7449 C.2       9 UNK         0.5000 
     26 O          -0.7393  -22.1915  -42.6661 O.2       9 UNK        -0.5000 
     27 CA          0.1564  -19.9701  -42.5654 C.3       9 UNK         0.1400 
     28 CB          0.0941  -19.6067  -41.0742 C.3       9 UNK        -0.1800 
     29 N           1.2215  -19.1911  -43.2029 N.am      9 UNK        -0.5000 
     30 C           1.5270  -19.2066  -44.5079 C.2       8 UNK         0.5000 
     31 O           0.9593  -19.9198  -45.3289 O.2       8 UNK        -0.5000 
     32 CA          2.6907  -18.3147  -44.9644 C.3       8 UNK         0.1400 
     33 CB          2.1960  -16.8976  -45.2751 C.3       8 UNK        -0.1800 
     34 N           3.7650  -18.2608  -43.9742 N.am      8 UNK        -0.5000 
     35 C           4.6072  -19.2723  -43.7187 C.2       7 UNK         0.5000 
     36 O           4.5796  -20.3542  -44.3052 O.2       7 UNK        -0.5000 
     37 CA          5.6364  -19.0417  -42.5973 C.3       7 UNK         0.1400 
     38 CB          6.8568  -18.2751  -43.1293 C.3       7 UNK        -0.1800 
     39 N           5.0642  -18.3155  -41.4633 N.am      7 UNK        -0.5000 
     40 C           4.1641  -18.8323  -40.6155 C.2       6 UNK         0.5000 
     41 O           3.7718  -19.9985  -40.6607 O.2       6 UNK        -0.5000 
     42 CA          3.5836  -17.8758  -39.5563 C.3       6 UNK         0.1400 
     43 CB          4.4337  -17.9091  -38.2774 C.3       6 UNK        -0.1800 
     44 N           3.4527  -16.4876  -40.0139 N.am      6 UNK        -0.5000 
     45 C           2.6630  -16.0901  -41.0200 C.2       5 UNK         0.5000 
     46 O           2.0266  -16.8659  -41.7350 O.2       5 UNK        -0.5000 
     47 CA          2.5984  -14.5782  -41.2985 C.3       5 UNK         0.1400 
     48 CB          3.4995  -14.2089  -42.4866 C.3       5 UNK        -0.1800 
     49 N           1.2316  -14.1460  -41.5853 N.am      5 UNK        -0.5000 
     50 C           0.2291  -14.1423  -40.6945 C.2       4 UNK         0.5000 
     51 O           0.3657  -14.4662  -39.5127 O.2       4 UNK        -0.5000 
     52 CA         -1.1453  -13.6761  -41.2194 C.3       4 UNK         0.1400 
     53 CB         -2.1738  -13.4098  -40.1007 C.3       4 UNK        -0.1800 
     54 N          -1.0317  -12.5226  -42.1150 N.am      4 UNK        -0.5000 
     55 C          -0.5439  -11.3040  -41.8351 C.2       3 UNK         0.5000 
     56 O          -0.2038  -10.9378  -40.7095 O.2       3 UNK        -0.5000 
     57 CA         -0.3828  -10.3310  -43.0207 C.3       3 UNK         0.1400 
     58 CB          1.1049  -10.1526  -43.3665 C.3       3 UNK        -0.1800 
     59 N          -1.0884  -10.7855  -44.2204 N.am      3 UNK        -0.5000 
     60 C          -2.3876  -10.5751  -44.4717 C.2       2 UNK         0.5000 
     61 O          -3.1252   -9.9041  -43.7494 O.2       2 UNK        -0.5000 
     62 CA         -2.9630  -11.2450  -45.7352 C.3       2 UNK         0.1400 
     63 CB         -2.8889  -10.2866  -46.9335 C.3       2 UNK        -0.1800 
     64 N          -2.2817  -12.4962  -46.0801 N.am      2 UNK        -0.5000 
     65 C          -2.3772  -13.6356  -45.3781 C.2       1 UNK         0.5000 
     66 O          -3.0743  -13.7594  -44.3714 O.2       1 UNK        -0.5000 
     67 C          -0.0546  -22.6306  -47.5316 C.2       11 UNK         0.5000 
     68 O          -0.5983  -23.0627  -48.5480 O.2       11 UNK        -0.5000 
     69 N          -0.6611  -21.7971  -46.6726 N.am      12 UNK        -0.5000 
     70 CA         -2.0439  -21.3063  -46.7411 C.3       12 UNK         0.1400 
     71 CB         -2.3132  -20.4253  -45.5115 C.3       12 UNK        -0.1800 
     72 C          -3.1168  -22.4133  -46.8160 C.2       12 UNK         0.5000 
     73 O          -4.2297  -22.1510  -47.2729 O.2       12 UNK        -0.5000 
     74 N          -2.7650  -23.6348  -46.3887 N.am      13 UNK        -0.5000 
     75 CA         -3.5682  -24.8481  -46.5370 C.3       13 UNK         0.1400 
     76 CB         -2.8639  -26.0003  -45.8054 C.3       13 UNK        -0.1800 
     77 C          -3.8417  -25.2283  -48.0078 C.2       13 UNK         0.5000 
     78 O          -4.8656  -25.8523  -48.2865 O.2       13 UNK        -0.5000 
     79 N          -2.9602  -24.8134  -48.9294 N.am      14 UNK        -0.5000 
     80 CA         -3.0992  -24.9834  -50.3761 C.3       14 UNK         0.1400 
     81 CB         -1.7005  -25.1806  -50.9880 C.3       14 UNK        -0.1800 
     82 C          -3.8707  -23.8067  -51.0134 C.2       14 UNK         0.5000 
     83 O          -3.4605  -23.3012  -52.0560 O.2       14 UNK        -0.5000 
     84 N          -4.9805  -23.4074  -50.3748 N.am      15 UNK        -0.5000 
     85 CA         -5.8929  -22.3190  -50.7337 C.3       15 UNK         0.1400 
     86 CB         -6.5497  -22.5670  -52.1064 C.3       15 UNK        -0.1800 
     87 C          -5.2225  -20.9345  -50.6533 C.2       15 UNK         0.5000 
     88 O          -4.7189  -20.4283  -51.6569 O.2       15 UNK        -0.5000 
     89 N          -5.2738  -20.3311  -49.4571 N.am      16 UNK        -0.5000 
     90 CA         -4.7198  -19.0214  -49.0797 C.3       16 UNK         0.1400 
     91 CB         -5.1843  -18.6976  -47.6520 C.3       16 UNK        -0.1800 
     92 C          -5.0781  -17.8403  -50.0073 C.2       16 UNK         0.5000 
     93 O          -4.3311  -16.8642  -50.0612 O.2       16 UNK        -0.5000 
     94 N          -6.1989  -17.9552  -50.7323 N.am      17 UNK        -0.5000 
     95 CA         -6.6436  -17.0266  -51.7743 C.3       17 UNK         0.1400 
     96 CB         -8.1107  -17.3448  -52.1070 C.3       17 UNK        -0.1800 
     97 C          -5.7818  -17.0558  -53.0582 C.2       17 UNK         0.5000 
     98 O          -5.9924  -16.2142  -53.9323 O.2       17 UNK        -0.5000 
     99 N          -4.8534  -18.0199  -53.1573 N.am      18 UNK        -0.5000 
    100 CA        -3.9777  -18.3184  -54.2920 C.3       18 UNK         0.1400 
    101 CB        -3.0598  -17.1290  -54.6431 C.3       18 UNK        -0.1800 
    102 C         -4.7742  -18.8729  -55.4880 C.2       18 UNK         0.5000 
    103 O         -4.5947  -18.4303  -56.6246 O.2       18 UNK        -0.5000 
    104 N         -5.6521  -19.8415  -55.1919 N.am      19 UNK        -0.5000 
    105 CA        -6.4128  -20.6187  -56.1722 C.3       19 UNK         0.1400 
    106 CB        -7.6213  -21.2542  -55.4622 C.3       19 UNK        -0.1800 
    107 C         -5.5311  -21.6872  -56.8548 C.2       19 UNK         0.5000 
    108 O         -4.3310  -21.7650  -56.5859 O.2       19 UNK        -0.5000 
    109 N         -6.1422  -22.5196  -57.7104 N.am      20 UNK        -0.5000 
    110 CA        -5.4826  -23.5698  -58.5003 C.3       20 UNK         0.1400 
    111 CB        -6.5381  -24.2999  -59.3445 C.3       20 UNK        -0.1800 
    112 C         -4.6554  -24.5835  -57.6805 C.2       20 UNK         0.5000 
    113 O         -3.6367  -25.0714  -58.1726 O.2       20 UNK        -0.5000 
    114 N         -5.0713  -24.8391  -56.4309 N.am      21 UNK        -0.5000 
    115 CA        -4.3556  -25.6654  -55.4526 C.3       21 UNK         0.1400 
    116 CB        -5.2311  -25.8260  -54.1999 C.3       21 UNK        -0.1800 
    117 C         -2.9655  -25.1155  -55.0658 C.2       21 UNK         0.5000 
    118 O         -2.0973  -25.8954  -54.6733 O.2       21 UNK        -0.5000 
    119 N         -2.7768  -23.7979  -55.2056 N.am      22 UNK        -0.5000 
    120 CA        -1.5138  -23.0828  -54.9824 C.3       22 UNK         0.1400 
    121 C         -0.4801  -23.2637  -56.1377 C.2       22 UNK         0.5000 
    122 N         -0.8429  -23.8395  -57.2799 N.am      22 UNK        -0.7600 
    123 O          0.6821  -22.8960  -55.9941 O.2       22 UNK        -0.5000 
    124 C124       -1.8039  -21.5883  -54.6758 C.3       23 UNK        -0.0398 
    125 S125       -0.5210  -20.7452  -53.6907 S.3       23 UNK        -0.2404 
    126 C126       -1.1528  -20.9953  -52.0036 C.3       23 UNK        -0.0205 
    127 H127        2.0978  -12.3004  -46.3927 H         1 UNK         0.0600 
    128 H128        2.8898  -13.7545  -45.7813 H         1 UNK         0.0600 
    129 H129        2.0749  -13.7890  -47.3471 H         1 UNK         0.0600 
    130 H130       -0.0341  -14.5617  -47.3433 H         1 UNK         0.3000 
    131 H131       -1.3226  -15.4441  -44.9757 H         1 UNK         0.0600 
    132 H132       -2.4717  -15.1217  -47.8014 H         1 UNK         0.0800 
    133 H133       -3.2875  -15.9214  -46.4865 H         1 UNK         0.0800 
    134 H134       -0.1267  -16.1761  -48.9253 H         1 UNK         0.0800 
    135 H135       -1.6883  -16.6298  -49.5675 H         1 UNK         0.0800 
    136 H136       -1.9533  -18.7082  -50.7486 H         1 UNK         0.1150 
    137 H137        1.3483  -21.4203  -51.0433 H         1 UNK         0.1150 
    138 H138        1.5916  -18.0259  -48.4331 H         1 UNK         0.1150 
    139 H139        3.4934  -20.7844  -50.0838 H         1 UNK         0.0800 
    140 H140        3.6587  -19.2529  -49.2676 H         1 UNK         0.0800 
    141 H141        2.1519  -22.7056  -49.1399 H         1 UNK         0.0800 
    142 H142        3.3164  -23.3422  -48.0291 H         1 UNK         0.0800 
    143 H143        1.2890  -24.2318  -47.3233 H         1 UNK         0.0600 
    144 H144        2.2272  -22.1412  -45.5229 H         1 UNK         0.3000 
    145 H145        1.2195  -24.0274  -42.6122 H         1 UNK         0.0600 
    146 H146        3.5900  -23.4907  -42.1437 H         1 UNK         0.0600 
    147 H147        3.4855  -24.7248  -43.3904 H         1 UNK         0.0600 
    148 H148        3.8629  -23.0635  -43.8311 H         1 UNK         0.0600 
    149 H149        2.2744  -21.3590  -43.0380 H         1 UNK         0.3000 
    150 H150       -0.7840  -19.6629  -43.0256 H         1 UNK         0.0600 
    151 H151       -0.7222  -20.1321  -40.5769 H         1 UNK         0.0600 
    152 H152       -0.0744  -18.5389  -40.9333 H         1 UNK         0.0600 
    153 H153        1.0172  -19.8725  -40.5590 H         1 UNK         0.0600 
    154 H154        1.6968  -18.5138  -42.6122 H         1 UNK         0.3000 
    155 H155        3.0973  -18.7335  -45.8858 H         1 UNK         0.0600 
    156 H156        3.0106  -16.2636  -45.6239 H         1 UNK         0.0600 
    157 H157        1.7456  -16.4257  -44.4016 H         1 UNK         0.0600 
    158 H158        1.4392  -16.9177  -46.0603 H         1 UNK         0.0600 
    159 H159        3.8139  -17.4306  -43.4033 H         1 UNK         0.3000 
    160 H160        5.9743  -20.0193  -42.2465 H         1 UNK         0.0600 
    161 H161        6.5880  -17.2768  -43.4771 H         1 UNK         0.0600 
    162 H162        7.3130  -18.8031  -43.9677 H         1 UNK         0.0600 
    163 H163        7.6212  -18.1682  -42.3594 H         1 UNK         0.0600 
    164 H164        5.3401  -17.3519  -41.3455 H         1 UNK         0.3000 
    165 H165        2.5829  -18.2356  -39.3077 H         1 UNK         0.0600 
    166 H166        5.4403  -17.5272  -38.4524 H         1 UNK         0.0600 
    167 H167        3.9799  -17.3122  -37.4860 H         1 UNK         0.0600 
    168 H168        4.5302  -18.9276  -37.8987 H         1 UNK         0.0600 
    169 H169        3.9525  -15.7916  -39.4794 H         1 UNK         0.3000 
    170 H170        2.9468  -14.0374  -40.4163 H         1 UNK         0.0600 
    171 H171        4.5363  -14.4875  -42.2952 H         1 UNK         0.0600 
    172 H172        3.1863  -14.7124  -43.4012 H         1 UNK         0.0600 
    173 H173        3.4801  -13.1354  -42.6762 H         1 UNK         0.0600 
    174 H174        1.0266  -13.8950  -42.5485 H         1 UNK         0.3000 
    175 H175       -1.5288  -14.4953  -41.8294 H         1 UNK         0.0600 
    176 H176       -3.1311  -13.0928  -40.5145 H         1 UNK         0.0600 
    177 H177       -2.3564  -14.3126  -39.5167 H         1 UNK         0.0600 
    178 H178       -1.8341  -12.6378  -39.4099 H         1 UNK         0.0600 
    179 H179       -1.2485  -12.7147  -43.0831 H         1 UNK         0.3000 
    180 H180       -0.7805   -9.3621  -42.7117 H         1 UNK         0.0600 
    181 H181        1.2382   -9.4433  -44.1833 H         1 UNK         0.0600 
    182 H182        1.6617   -9.7693  -42.5105 H         1 UNK         0.0600 
    183 H183        1.5676  -11.0954  -43.6608 H         1 UNK         0.0600 
    184 H184       -0.5615  -11.3681  -44.8545 H         1 UNK         0.3000 
    185 H185       -4.0142  -11.4693  -45.5414 H         1 UNK         0.0600 
    186 H186       -3.3573  -10.7219  -47.8164 H         1 UNK         0.0600 
    187 H187       -3.4093   -9.3522  -46.7186 H         1 UNK         0.0600 
    188 H188       -1.8580  -10.0371  -47.1876 H         1 UNK         0.0600 
    189 H189       -1.6790  -12.4768  -46.8899 H         1 UNK         0.3000 
    190 H190       -0.0874  -21.3905  -45.9389 H         1 UNK         0.3000 
    191 H191       -2.1321  -20.6945  -47.6409 H         1 UNK         0.0600 
    192 H192       -3.3189  -20.0089  -45.5285 H         1 UNK         0.0600 
    193 H193       -1.6224  -19.5857  -45.4617 H         1 UNK         0.0600 
    194 H194       -2.2184  -20.9949  -44.5877 H         1 UNK         0.0600 
    195 H195       -1.8355  -23.7534  -46.0111 H         1 UNK         0.3000 
    196 H196       -4.5327  -24.6713  -46.0569 H         1 UNK         0.0600 
    197 H197       -3.4457  -26.9206  -45.8719 H         1 UNK         0.0600 
    198 H198       -2.7330  -25.7745  -44.7469 H         1 UNK         0.0600 
    199 H199       -1.8786  -26.2016  -46.2284 H         1 UNK         0.0600 
    200 H200       -2.1680  -24.2502  -48.6326 H         1 UNK         0.3000 
    201 H201       -3.6750  -25.8877  -50.5825 H         1 UNK         0.0600 
    202 H202       -1.1841  -26.0234  -50.5289 H         1 UNK         0.0600 
    203 H203       -1.0757  -24.2967  -50.8625 H         1 UNK         0.0600 
    204 H204       -1.7657  -25.3852  -52.0564 H         1 UNK         0.0600 
    205 H205       -5.2064  -23.8920  -49.5165 H         1 UNK         0.3000 
    206 H206       -6.6924  -22.3385  -49.9914 H         1 UNK         0.0600 
    207 H207       -7.0516  -23.5339  -52.1355 H         1 UNK         0.0600 
    208 H208       -7.3000  -21.8041  -52.3163 H         1 UNK         0.0600 
    209 H209       -5.8237  -22.5411  -52.9194 H         1 UNK         0.0600 
    210 H210       -5.6454  -20.8687  -48.6852 H         1 UNK         0.3000 
    211 H211       -3.6336  -19.1224  -49.0745 H         1 UNK         0.0600 
    212 H212       -6.2589  -18.5147  -47.6122 H         1 UNK         0.0600 
    213 H213       -4.6845  -17.8072  -47.2701 H         1 UNK         0.0600 
    214 H214       -4.9664  -19.5138  -46.9666 H         1 UNK         0.0600 
    215 H215       -6.7488  -18.7930  -50.6153 H         1 UNK         0.3000 
    216 H216       -6.5928  -16.0127  -51.3723 H         1 UNK         0.0600 
    217 H217       -8.5068  -16.6459  -52.8448 H         1 UNK         0.0600 
    218 H218       -8.7423  -17.2701  -51.2216 H         1 UNK         0.0600 
    219 H219       -8.2205  -18.3501  -52.5160 H         1 UNK         0.0600 
    220 H220       -4.8049  -18.7029  -52.4053 H         1 UNK         0.3000 
    221 H221       -3.3306  -19.1294  -53.9571 H         1 UNK         0.0600 
    222 H222       -3.6160  -16.2883  -55.0577 H         1 UNK         0.0600 
    223 H223       -2.5203  -16.7765  -53.7640 H         1 UNK         0.0600 
    224 H224       -2.3155  -17.4228  -55.3841 H         1 UNK         0.0600 
    225 H225       -5.7032  -20.1543  -54.2333 H         1 UNK         0.3000 
    226 H226       -6.7801  -19.9406  -56.9451 H         1 UNK         0.0600 
    227 H227       -8.3276  -21.6712  -56.1805 H         1 UNK         0.0600 
    228 H228       -7.3191  -22.0628  -54.7975 H         1 UNK         0.0600 
    229 H229       -8.1672  -20.5184  -54.8710 H         1 UNK         0.0600 
    230 H230       -7.1319  -22.4029  -57.8727 H         1 UNK         0.3000 
    231 H231       -4.7900  -23.0708  -59.1810 H         1 UNK         0.0600 
    232 H232       -6.0789  -25.0719  -59.9636 H         1 UNK         0.0600 
    233 H233       -7.0527  -23.6122  -60.0158 H         1 UNK         0.0600 
    234 H234       -7.2884  -24.7844  -58.7184 H         1 UNK         0.0600 
    235 H235       -5.9141  -24.3866  -56.1100 H         1 UNK         0.3000 
    236 H236       -4.2053  -26.6518  -55.8961 H         1 UNK         0.0600 
    237 H237       -5.4312  -24.8644  -53.7270 H         1 UNK         0.0600 
    238 H238       -6.1877  -26.2898  -54.4407 H         1 UNK         0.0600 
    239 H239       -4.7407  -26.4580  -53.4583 H         1 UNK         0.0600 
    240 H240       -3.5283  -23.2310  -55.5847 H         1 UNK         0.3000 
    241 H241       -1.0595  -23.5209  -54.0916 H         1 UNK         0.0600 
    242 H242       -0.1601  -23.9569  -58.0117 H         1 UNK         0.3800 
    243 H243       -1.7873  -24.1751  -57.4190 H         1 UNK         0.3800 
    244 H244       -2.7465  -21.4991  -54.1328 H         1 UNK         0.0800 
    245 H245       -1.9511  -21.0279  -55.6004 H         1 UNK         0.0800 
    246 H246       -2.2120  -20.7456  -51.9686 H         1 UNK         0.0800 
    247 H247       -1.0746  -22.0501  -51.7393 H         1 UNK         0.0800 
@<TRIPOS>BOND
     1    1    2 1    
     2    1  127 1    
     3    1  128 1    
     4    1  129 1    
     5    2    3 2    
     6    2    4 am   BACKBONE|DICT|INTERRES
     7    4    5 1    
     8    4  130 1    
     9    5    6 1    
    10    5   65 1    
    11    5  131 1    
    12    6    7 1    
    13    6  132 1    
    14    6  133 1    
    15    7    8 1    
    16    8    9 1    
    17    8  134 1    
    18    8  135 1    
    19    9   10 ar   
    20    9   14 ar   
    21   10   11 ar   
    22   10  136 1    
    23   11   12 ar   
    24   11  126 1    
    25   12   13 ar   
    26   12  137 1    
    27   13   14 ar   
    28   13   15 1    
    29   14  138 1    
    30   15   16 1    
    31   15  139 1    
    32   15  140 1    
    33   16   17 1    
    34   17   18 1    
    35   17  141 1    
    36   17  142 1    
    37   18   19 1    
    38   18   67 1    
    39   18  143 1    
    40   19   20 am   BACKBONE|DICT|INTERRES
    41   19  144 1    
    42   20   21 2    
    43   20   22 1    
    44   22   23 1    
    45   22   24 1    
    46   22  145 1    
    47   23  146 1    
    48   23  147 1    
    49   23  148 1    
    50   24   25 am   BACKBONE|DICT|INTERRES
    51   24  149 1    
    52   25   26 2    
    53   25   27 1    
    54   27   28 1    
    55   27   29 1    
    56   27  150 1    
    57   28  151 1    
    58   28  152 1    
    59   28  153 1    
    60   29   30 am   BACKBONE|DICT|INTERRES
    61   29  154 1    
    62   30   31 2    
    63   30   32 1    
    64   32   33 1    
    65   32   34 1    
    66   32  155 1    
    67   33  156 1    
    68   33  157 1    
    69   33  158 1    
    70   34   35 am   BACKBONE|DICT|INTERRES
    71   34  159 1    
    72   35   36 2    
    73   35   37 1    
    74   37   38 1    
    75   37   39 1    
    76   37  160 1    
    77   38  161 1    
    78   38  162 1    
    79   38  163 1    
    80   39   40 am   BACKBONE|DICT|INTERRES
    81   39  164 1    
    82   40   41 2    
    83   40   42 1    
    84   42   43 1    
    85   42   44 1    
    86   42  165 1    
    87   43  166 1    
    88   43  167 1    
    89   43  168 1    
    90   44   45 am   BACKBONE|DICT|INTERRES
    91   44  169 1    
    92   45   46 2    
    93   45   47 1    
    94   47   48 1    
    95   47   49 1    
    96   47  170 1    
    97   48  171 1    
    98   48  172 1    
    99   48  173 1    
   100   49   50 am   BACKBONE|DICT|INTERRES
   101   49  174 1    
   102   50   51 2    
   103   50   52 1    
   104   52   53 1    
   105   52   54 1    
   106   52  175 1    
   107   53  176 1    
   108   53  177 1    
   109   53  178 1    
   110   54   55 am   BACKBONE|DICT|INTERRES
   111   54  179 1    
   112   55   56 2    
   113   55   57 1    
   114   57   58 1    
   115   57   59 1    
   116   57  180 1    
   117   58  181 1    
   118   58  182 1    
   119   58  183 1    
   120   59   60 am   BACKBONE|DICT|INTERRES
   121   59  184 1    
   122   60   61 2    
   123   60   62 1    
   124   62   63 1    
   125   62   64 1    
   126   62  185 1    
   127   63  186 1    
   128   63  187 1    
   129   63  188 1    
   130   64   65 am   BACKBONE|DICT|INTERRES
   131   64  189 1    
   132   65   66 2    
   133   67   68 2    
   134   67   69 am   BACKBONE|DICT|INTERRES
   135   69   70 1    
   136   69  190 1    
   137   70   71 1    
   138   70   72 1    
   139   70  191 1    
   140   71  192 1    
   141   71  193 1    
   142   71  194 1    
   143   72   73 2    
   144   72   74 am   BACKBONE|DICT|INTERRES
   145   74   75 1    
   146   74  195 1    
   147   75   76 1    
   148   75   77 1    
   149   75  196 1    
   150   76  197 1    
   151   76  198 1    
   152   76  199 1    
   153   77   78 2    
   154   77   79 am   BACKBONE|DICT|INTERRES
   155   79   80 1    
   156   79  200 1    
   157   80   81 1    
   158   80   82 1    
   159   80  201 1    
   160   81  202 1    
   161   81  203 1    
   162   81  204 1    
   163   82   83 2    
   164   82   84 am   BACKBONE|DICT|INTERRES
   165   84   85 1    
   166   84  205 1    
   167   85   86 1    
   168   85   87 1    
   169   85  206 1    
   170   86  207 1    
   171   86  208 1    
   172   86  209 1    
   173   87   88 2    
   174   87   89 am   BACKBONE|DICT|INTERRES
   175   89   90 1    
   176   89  210 1    
   177   90   91 1    
   178   90   92 1    
   179   90  211 1    
   180   91  212 1    
   181   91  213 1    
   182   91  214 1    
   183   92   93 2    
   184   92   94 am   BACKBONE|DICT|INTERRES
   185   94   95 1    
   186   94  215 1    
   187   95   96 1    
   188   95   97 1    
   189   95  216 1    
   190   96  217 1    
   191   96  218 1    
   192   96  219 1    
   193   97   98 2    
   194   97   99 am   BACKBONE|DICT|INTERRES
   195   99  100 1    
   196   99  220 1    
   197  100  101 1    
   198  100  102 1    
   199  100  221 1    
   200  101  222 1    
   201  101  223 1    
   202  101  224 1    
   203  102  103 2    
   204  102  104 am   BACKBONE|DICT|INTERRES
   205  104  105 1    
   206  104  225 1    
   207  105  106 1    
   208  105  107 1    
   209  105  226 1    
   210  106  227 1    
   211  106  228 1    
   212  106  229 1    
   213  107  108 2    
   214  107  109 am   BACKBONE|DICT|INTERRES
   215  109  110 1    
   216  109  230 1    
   217  110  111 1    
   218  110  112 1    
   219  110  231 1    
   220  111  232 1    
   221  111  233 1    
   222  111  234 1    
   223  112  113 2    
   224  112  114 am   BACKBONE|DICT|INTERRES
   225  114  115 1    
   226  114  235 1    
   227  115  116 1    
   228  115  117 1    
   229  115  236 1    
   230  116  237 1    
   231  116  238 1    
   232  116  239 1    
   233  117  118 2    
   234  117  119 am   BACKBONE|DICT|INTERRES
   235  119  120 1    
   236  119  240 1    
   237  120  121 1    
   238  120  124 1    
   239  120  241 1    
   240  121  122 am   BACKBONE|DICT|INTERRES
   241  121  123 2    
   242  122  242 1    
   243  122  243 1    
   244  124  125 1    
   245  124  244 1    
   246  124  245 1    
   247  125  126 1    
   248  126  246 1    
   249  126  247 1    
@<TRIPOS>SUBSTRUCTURE
     1 UNK         1 GROUP             0       ****    0 ROOT    
