@<TRIPOS>MOLECULE
3R540
247   249    1
SMALL
USER_CHARGES


@<TRIPOS>ATOM
      1 CA          5.1082  -11.2794  -48.2174 C.3       0 UNK        -0.1800 
      2 C           3.8233  -11.7805  -47.5758 C.2       0 UNK         0.5000 
      3 O           3.7047  -11.7506  -46.3523 O.2       0 UNK        -0.5000 
      4 N           2.8583  -12.2183  -48.3969 N.am      1 UNK        -0.5000 
      5 CA          1.5531  -12.7854  -48.0166 C.3       1 UNK         0.1400 
      6 C6          0.7678  -13.1884  -49.2996 C.3       23 UNK        -0.0398 
      7 S7         -0.9824  -13.6835  -49.0998 S.3       23 UNK        -0.2404 
      8 C8         -0.8299  -15.4759  -48.8002 C.3       23 UNK        -0.0205 
      9 C9         -0.6416  -16.3747  -50.0224 C.ar      23 UNK        -0.0193 
     10 C10        -0.3998  -15.8868  -51.3141 C.ar      23 UNK        -0.1150 
     11 C11        -0.2207  -16.7669  -52.3855 C.ar      23 UNK        -0.0193 
     12 C12        -0.2649  -18.1451  -52.1610 C.ar      23 UNK        -0.1150 
     13 C13        -0.5255  -18.6464  -50.8849 C.ar      23 UNK        -0.0193 
     14 C14        -0.7162  -17.7570  -49.8249 C.ar      23 UNK        -0.1150 
     15 C15        -0.6454  -20.1451  -50.6677 C.3       23 UNK        -0.0205 
     16 S16         0.9275  -20.9032  -50.1389 S.3       23 UNK        -0.2404 
     17 C17         0.8549  -20.7288  -48.3180 C.3       23 UNK        -0.0398 
     18 CA          0.3027  -21.9836  -47.5940 C.3       11 UNK         0.1400 
     19 N           0.4799  -21.9064  -46.1423 N.am      11 UNK        -0.5000 
     20 C           0.1858  -22.8881  -45.2762 C.2       10 UNK         0.5000 
     21 O          -0.2100  -24.0053  -45.6099 O.2       10 UNK        -0.5000 
     22 CA          0.2934  -22.5437  -43.7805 C.3       10 UNK         0.1400 
     23 CB          1.7581  -22.5419  -43.3186 C.3       10 UNK        -0.1800 
     24 N          -0.3342  -21.2615  -43.4561 N.am      10 UNK        -0.5000 
     25 C          -1.6397  -20.9965  -43.6155 C.2       9 UNK         0.5000 
     26 O          -2.4626  -21.8196  -44.0185 O.2       9 UNK        -0.5000 
     27 CA         -2.0987  -19.5594  -43.3117 C.3       9 UNK         0.1400 
     28 CB         -2.2621  -19.3479  -41.7993 C.3       9 UNK        -0.1800 
     29 N          -1.1942  -18.5462  -43.8556 N.am      9 UNK        -0.5000 
     30 C          -0.9451  -18.3679  -45.1612 C.2       8 UNK         0.5000 
     31 O          -1.4685  -19.0249  -46.0594 O.2       8 UNK        -0.5000 
     32 CA          0.1126  -17.3150  -45.5263 C.3       8 UNK         0.1400 
     33 CB         -0.4454  -15.8952  -45.3492 C.3       8 UNK        -0.1800 
     34 N           1.3353  -17.4629  -44.7421 N.am      8 UNK        -0.5000 
     35 C           2.1103  -18.5561  -44.7173 C.2       7 UNK         0.5000 
     36 O           1.9165  -19.5533  -45.4115 O.2       7 UNK        -0.5000 
     37 CA          3.2674  -18.5514  -43.7060 C.3       7 UNK         0.1400 
     38 CB          4.4898  -17.8210  -44.2803 C.3       7 UNK        -0.1800 
     39 N           2.8736  -17.9409  -42.4355 N.am      7 UNK        -0.5000 
     40 C           2.0075  -18.4898  -41.5716 C.2       6 UNK         0.5000 
     41 O           1.4728  -19.5859  -41.7414 O.2       6 UNK        -0.5000 
     42 CA          1.6505  -17.6520  -40.3302 C.3       6 UNK         0.1400 
     43 CB          2.7513  -17.7598  -39.2644 C.3       6 UNK        -0.1800 
     44 N           1.4202  -16.2427  -40.6536 N.am      6 UNK        -0.5000 
     45 C           0.3842  -15.7978  -41.3784 C.2       5 UNK         0.5000 
     46 O          -0.5000  -16.5301  -41.8219 O.2       5 UNK        -0.5000 
     47 CA          0.3470  -14.2891  -41.6929 C.3       5 UNK         0.1400 
     48 CB         -0.3496  -13.5200  -40.5609 C.3       5 UNK        -0.1800 
     49 N           1.6608  -13.6895  -41.9442 N.am      5 UNK        -0.5000 
     50 C           2.5338  -14.0850  -42.8796 C.2       4 UNK         0.5000 
     51 O           2.3558  -15.0598  -43.6106 O.2       4 UNK        -0.5000 
     52 CA          3.8069  -13.2329  -43.0198 C.3       4 UNK         0.1400 
     53 CB          4.8709  -13.8958  -43.9123 C.3       4 UNK        -0.1800 
     54 N           3.4878  -11.9194  -43.5714 N.am      4 UNK        -0.5000 
     55 C           3.0562  -10.8670  -42.8668 C.2       3 UNK         0.5000 
     56 O           2.8244  -10.9085  -41.6573 O.2       3 UNK        -0.5000 
     57 CA          2.8518   -9.5547  -43.6376 C.3       3 UNK         0.1400 
     58 CB          4.2073   -8.9310  -44.0092 C.3       3 UNK        -0.1800 
     59 N           2.0723   -9.7613  -44.8584 N.am      3 UNK        -0.5000 
     60 C           0.8091   -9.3492  -45.0331 C.2       2 UNK         0.5000 
     61 O           0.1451   -8.7980  -44.1538 O.2       2 UNK        -0.5000 
     62 CA          0.1738   -9.5472  -46.4258 C.3       2 UNK         0.1400 
     63 CB          0.1579   -8.2183  -47.1976 C.3       2 UNK        -0.1800 
     64 N           0.8401  -10.5557  -47.2504 N.am      2 UNK        -0.5000 
     65 C           0.7461  -11.8776  -47.0544 C.2       1 UNK         0.5000 
     66 O           0.0916  -12.3818  -46.1411 O.2       1 UNK        -0.5000 
     67 C          -1.1703  -22.2431  -47.9598 C.2       11 UNK         0.5000 
     68 O          -1.4424  -23.1529  -48.7416 O.2       11 UNK        -0.5000 
     69 N          -2.0880  -21.4502  -47.3851 N.am      12 UNK        -0.5000 
     70 CA         -3.5268  -21.5378  -47.6257 C.3       12 UNK         0.1400 
     71 CB         -4.2688  -20.4293  -46.8661 C.3       12 UNK        -0.1800 
     72 C          -4.1063  -22.9194  -47.2990 C.2       12 UNK         0.5000 
     73 O          -4.8423  -23.4651  -48.1197 O.2       12 UNK        -0.5000 
     74 N          -3.7189  -23.4666  -46.1389 N.am      13 UNK        -0.5000 
     75 CA         -4.0679  -24.8120  -45.6917 C.3       13 UNK         0.1400 
     76 CB         -3.5969  -25.0050  -44.2421 C.3       13 UNK        -0.1800 
     77 C          -3.4959  -25.9121  -46.6043 C.2       13 UNK         0.5000 
     78 O          -4.2337  -26.8201  -46.9890 O.2       13 UNK        -0.5000 
     79 N          -2.2008  -25.8094  -46.9363 N.am      14 UNK        -0.5000 
     80 CA         -1.4779  -26.7804  -47.7587 C.3       14 UNK         0.1400 
     81 CB          0.0273  -26.4771  -47.7106 C.3       14 UNK        -0.1800 
     82 C          -1.9705  -26.8333  -49.2149 C.2       14 UNK         0.5000 
     83 O          -2.1654  -27.9247  -49.7534 O.2       14 UNK        -0.5000 
     84 N          -2.1721  -25.6609  -49.8280 N.am      15 UNK        -0.5000 
     85 CA         -2.6057  -25.5083  -51.2135 C.3       15 UNK         0.1400 
     86 CB         -2.0886  -24.1701  -51.7583 C.3       15 UNK        -0.1800 
     87 C          -4.1324  -25.6644  -51.3403 C.2       15 UNK         0.5000 
     88 O          -4.8503  -24.6845  -51.5648 O.2       15 UNK        -0.5000 
     89 N          -4.5855  -26.9150  -51.1765 N.am      16 UNK        -0.5000 
     90 CA         -5.9516  -27.4183  -51.3665 C.3       16 UNK         0.1400 
     91 CB         -6.3615  -27.2905  -52.8487 C.3       16 UNK        -0.1800 
     92 C          -7.0020  -26.8005  -50.4198 C.2       16 UNK         0.5000 
     93 O          -8.1920  -26.8263  -50.7379 O.2       16 UNK        -0.5000 
     94 N          -6.5479  -26.2459  -49.2852 N.am      17 UNK        -0.5000 
     95 CA         -7.3282  -25.4951  -48.2937 C.3       17 UNK         0.1400 
     96 CB         -8.3439  -26.4136  -47.5823 C.3       17 UNK        -0.1800 
     97 C          -7.9768  -24.2117  -48.8655 C.2       17 UNK         0.5000 
     98 O          -8.9741  -23.7386  -48.3166 O.2       17 UNK        -0.5000 
     99 N          -7.4177  -23.6817  -49.9632 N.am      18 UNK        -0.5000 
    100 CA        -7.9938  -22.5897  -50.7474 C.3       18 UNK         0.1400 
    101 CB        -8.7619  -23.2015  -51.9335 C.3       18 UNK        -0.1800 
    102 C         -6.9469  -21.5721  -51.2351 C.2       18 UNK         0.5000 
    103 O         -7.3207  -20.6470  -51.9574 O.2       18 UNK        -0.5000 
    104 N         -5.6675  -21.7550  -50.8671 N.am      19 UNK        -0.5000 
    105 CA        -4.5079  -20.9919  -51.3553 C.3       19 UNK         0.1400 
    106 CB        -4.5514  -19.5256  -50.8731 C.3       19 UNK        -0.1800 
    107 C         -4.3161  -21.1202  -52.8818 C.2       19 UNK         0.5000 
    108 O         -3.9539  -20.1487  -53.5484 O.2       19 UNK        -0.5000 
    109 N         -4.5579  -22.3326  -53.4050 N.am      20 UNK        -0.5000 
    110 CA        -4.5894  -22.6661  -54.8338 C.3       20 UNK         0.1400 
    111 CB        -4.9650  -24.1471  -54.9883 C.3       20 UNK        -0.1800 
    112 C         -3.2931  -22.3523  -55.6074 C.2       20 UNK         0.5000 
    113 O         -3.3527  -22.0883  -56.8092 O.2       20 UNK        -0.5000 
    114 N         -2.1541  -22.3337  -54.9009 N.am      21 UNK        -0.5000 
    115 CA        -0.8367  -21.9561  -55.4174 C.3       21 UNK         0.1400 
    116 CB         0.2197  -22.2331  -54.3364 C.3       21 UNK        -0.1800 
    117 C         -0.7505  -20.4924  -55.8997 C.2       21 UNK         0.5000 
    118 O          0.1232  -20.1810  -56.7098 O.2       21 UNK        -0.5000 
    119 N         -1.6587  -19.6312  -55.4190 N.am      22 UNK        -0.5000 
    120 CA        -1.8362  -18.2511  -55.8942 C.3       22 UNK         0.1400 
    121 C         -2.6448  -18.1318  -57.2224 C.2       22 UNK         0.5000 
    122 N         -3.2026  -19.2054  -57.7726 N.am      22 UNK        -0.7600 
    123 O         -2.7600  -17.0423  -57.7766 O.2       22 UNK        -0.5000 
    124 C124       -2.4116  -17.3417  -54.7706 C.3       23 UNK        -0.0398 
    125 S125       -1.5346  -15.7459  -54.6200 S.3       23 UNK        -0.2404 
    126 C126        0.0164  -16.2305  -53.7889 C.3       23 UNK        -0.0205 
    127 H127        5.2840  -10.2402  -47.9396 H         1 UNK         0.0600 
    128 H128        5.9541  -11.8734  -47.8715 H         1 UNK         0.0600 
    129 H129        5.0706  -11.3402  -49.3053 H         1 UNK         0.0600 
    130 H130        3.0390  -12.1953  -49.3905 H         1 UNK         0.3000 
    131 H131        1.7642  -13.7011  -47.4603 H         1 UNK         0.0600 
    132 H132        0.7630  -12.3489  -49.9967 H         1 UNK         0.0800 
    133 H133        1.3018  -13.9890  -49.8132 H         1 UNK         0.0800 
    134 H134        0.0049  -15.6417  -48.1203 H         1 UNK         0.0800 
    135 H135       -1.7321  -15.7965  -48.2777 H         1 UNK         0.0800 
    136 H136       -0.3567  -14.8249  -51.5042 H         1 UNK         0.1150 
    137 H137       -0.1240  -18.8283  -52.9869 H         1 UNK         0.1150 
    138 H138       -0.9331  -18.1398  -48.8379 H         1 UNK         0.1150 
    139 H139       -1.4364  -20.3431  -49.9465 H         1 UNK         0.0800 
    140 H140       -0.9697  -20.6247  -51.5914 H         1 UNK         0.0800 
    141 H141        0.2918  -19.8384  -48.0421 H         1 UNK         0.0800 
    142 H142        1.8754  -20.5419  -47.9813 H         1 UNK         0.0800 
    143 H143        0.8792  -22.8467  -47.9337 H         1 UNK         0.0600 
    144 H144        0.8341  -21.0242  -45.7793 H         1 UNK         0.3000 
    145 H145       -0.2352  -23.3203  -43.2238 H         1 UNK         0.0600 
    146 H146        1.8316  -22.3744  -42.2440 H         1 UNK         0.0600 
    147 H147        2.2356  -23.4989  -43.5324 H         1 UNK         0.0600 
    148 H148        2.3387  -21.7664  -43.8179 H         1 UNK         0.0600 
    149 H149        0.2716  -20.5400  -43.0785 H         1 UNK         0.3000 
    150 H150       -3.0745  -19.4175  -43.7802 H         1 UNK         0.0600 
    151 H151       -2.9365  -20.0902  -41.3706 H         1 UNK         0.0600 
    152 H152       -2.6806  -18.3648  -41.5830 H         1 UNK         0.0600 
    153 H153       -1.3087  -19.4267  -41.2758 H         1 UNK         0.0600 
    154 H154       -0.7451  -17.9329  -43.1817 H         1 UNK         0.3000 
    155 H155        0.3759  -17.4572  -46.5759 H         1 UNK         0.0600 
    156 H156       -1.3556  -15.7523  -45.9310 H         1 UNK         0.0600 
    157 H157        0.2749  -15.1432  -45.6714 H         1 UNK         0.0600 
    158 H158       -0.6981  -15.6879  -44.3117 H         1 UNK         0.0600 
    159 H159        1.6136  -16.6620  -44.1794 H         1 UNK         0.3000 
    160 H160        3.5514  -19.5877  -43.5117 H         1 UNK         0.0600 
    161 H161        5.3128  -17.8006  -43.5659 H         1 UNK         0.0600 
    162 H162        4.2533  -16.7930  -44.5543 H         1 UNK         0.0600 
    163 H163        4.8512  -18.3212  -45.1796 H         1 UNK         0.0600 
    164 H164        3.2156  -17.0089  -42.2548 H         1 UNK         0.3000 
    165 H165        0.7289  -18.0595  -39.9089 H         1 UNK         0.0600 
    166 H166        2.4682  -17.2352  -38.3516 H         1 UNK         0.0600 
    167 H167        2.9330  -18.8015  -38.9961 H         1 UNK         0.0600 
    168 H168        3.6959  -17.3410  -39.6134 H         1 UNK         0.0600 
    169 H169        2.1035  -15.5755  -40.3269 H         1 UNK         0.3000 
    170 H170       -0.2440  -14.1573  -42.6005 H         1 UNK         0.0600 
    171 H171       -1.3432  -13.9262  -40.3659 H         1 UNK         0.0600 
    172 H172        0.2163  -13.5735  -39.6301 H         1 UNK         0.0600 
    173 H173       -0.4747  -12.4679  -40.8179 H         1 UNK         0.0600 
    174 H174        1.8825  -12.8467  -41.4271 H         1 UNK         0.3000 
    175 H175        4.2398  -13.1124  -42.0244 H         1 UNK         0.0600 
    176 H176        5.7588  -13.2693  -43.9974 H         1 UNK         0.0600 
    177 H177        5.1887  -14.8509  -43.4937 H         1 UNK         0.0600 
    178 H178        4.4970  -14.0811  -44.9203 H         1 UNK         0.0600 
    179 H179        3.6047  -11.8249  -44.5790 H         1 UNK         0.3000 
    180 H180        2.3423   -8.8582  -42.9684 H         1 UNK         0.0600 
    181 H181        4.7719   -9.5642  -44.6951 H         1 UNK         0.0600 
    182 H182        4.8228   -8.7753  -43.1223 H         1 UNK         0.0600 
    183 H183        4.0737   -7.9600  -44.4863 H         1 UNK         0.0600 
    184 H184        2.5286  -10.2747  -45.6040 H         1 UNK         0.3000 
    185 H185       -0.8608   -9.8604  -46.2696 H         1 UNK         0.0600 
    186 H186       -0.3564   -8.3226  -48.1532 H         1 UNK         0.0600 
    187 H187       -0.3634   -7.4437  -46.6335 H         1 UNK         0.0600 
    188 H188        1.1676   -7.8563  -47.3959 H         1 UNK         0.0600 
    189 H189        1.4164  -10.2182  -48.0075 H         1 UNK         0.3000 
    190 H190       -1.7825  -20.6982  -46.7709 H         1 UNK         0.3000 
    191 H191       -3.6796  -21.3684  -48.6881 H         1 UNK         0.0600 
    192 H192       -4.1149  -20.5047  -45.7899 H         1 UNK         0.0600 
    193 H193       -5.3426  -20.4819  -47.0502 H         1 UNK         0.0600 
    194 H194       -3.9342  -19.4421  -47.1848 H         1 UNK         0.0600 
    195 H195       -3.1255  -22.9219  -45.5191 H         1 UNK         0.3000 
    196 H196       -5.1557  -24.8965  -45.7040 H         1 UNK         0.0600 
    197 H197       -2.5169  -24.8835  -44.1491 H         1 UNK         0.0600 
    198 H198       -3.8500  -26.0011  -43.8770 H         1 UNK         0.0600 
    199 H199       -4.0704  -24.2835  -43.5759 H         1 UNK         0.0600 
    200 H200       -1.6563  -25.0347  -46.5692 H         1 UNK         0.3000 
    201 H201       -1.6356  -27.7687  -47.3221 H         1 UNK         0.0600 
    202 H202        0.2482  -25.4775  -48.0874 H         1 UNK         0.0600 
    203 H203        0.5909  -27.1894  -48.3144 H         1 UNK         0.0600 
    204 H204        0.4091  -26.5415  -46.6916 H         1 UNK         0.0600 
    205 H205       -1.9920  -24.7980  -49.3168 H         1 UNK         0.3000 
    206 H206       -2.1468  -26.2938  -51.8179 H         1 UNK         0.0600 
    207 H207       -1.0017  -24.1123  -51.6968 H         1 UNK         0.0600 
    208 H208       -2.3629  -24.0559  -52.8049 H         1 UNK         0.0600 
    209 H209       -2.4956  -23.3286  -51.2030 H         1 UNK         0.0600 
    210 H210       -3.8994  -27.6122  -50.9063 H         1 UNK         0.3000 
    211 H211       -5.9174  -28.4810  -51.1233 H         1 UNK         0.0600 
    212 H212       -6.5101  -26.2493  -53.1353 H         1 UNK         0.0600 
    213 H213       -7.2950  -27.8187  -53.0457 H         1 UNK         0.0600 
    214 H214       -5.6052  -27.7163  -53.5080 H         1 UNK         0.0600 
    215 H215       -5.5525  -26.2802  -49.1097 H         1 UNK         0.3000 
    216 H216       -6.6213  -25.1667  -47.5349 H         1 UNK         0.0600 
    217 H217       -7.8591  -27.3095  -47.1943 H         1 UNK         0.0600 
    218 H218       -8.8048  -25.9044  -46.7352 H         1 UNK         0.0600 
    219 H219       -9.1471  -26.7271  -48.2494 H         1 UNK         0.0600 
    220 H220       -6.5990  -24.1357  -50.3524 H         1 UNK         0.3000 
    221 H221       -8.6976  -22.0212  -50.1365 H         1 UNK         0.0600 
    222 H222       -8.0966  -23.7627  -52.5912 H         1 UNK         0.0600 
    223 H223       -9.5413  -23.8818  -51.5895 H         1 UNK         0.0600 
    224 H224       -9.2478  -22.4311  -52.5334 H         1 UNK         0.0600 
    225 H225       -5.4575  -22.5390  -50.2618 H         1 UNK         0.3000 
    226 H226       -3.6260  -21.4485  -50.9120 H         1 UNK         0.0600 
    227 H227       -4.7019  -19.4629  -49.7959 H         1 UNK         0.0600 
    228 H228       -3.6160  -19.0125  -51.1000 H         1 UNK         0.0600 
    229 H229       -5.3519  -18.9631  -51.3540 H         1 UNK         0.0600 
    230 H230       -4.8205  -23.0804  -52.7694 H         1 UNK         0.3000 
    231 H231       -5.3818  -22.0659  -55.2851 H         1 UNK         0.0600 
    232 H232       -5.9407  -24.3508  -54.5472 H         1 UNK         0.0600 
    233 H233       -4.2362  -24.8005  -54.5074 H         1 UNK         0.0600 
    234 H234       -5.0196  -24.4317  -56.0399 H         1 UNK         0.0600 
    235 H235       -2.2087  -22.5426  -53.9165 H         1 UNK         0.3000 
    236 H236       -0.6227  -22.5945  -56.2770 H         1 UNK         0.0600 
    237 H237        1.2221  -22.0105  -54.7046 H         1 UNK         0.0600 
    238 H238        0.0572  -21.6246  -53.4474 H         1 UNK         0.0600 
    239 H239        0.2122  -23.2804  -54.0337 H         1 UNK         0.0600 
    240 H240       -2.3673  -19.9670  -54.7740 H         1 UNK         0.3000 
    241 H241       -0.8408  -17.8831  -56.1474 H         1 UNK         0.0600 
    242 H242       -3.7148  -19.1040  -58.6346 H         1 UNK         0.3800 
    243 H243       -3.1238  -20.1220  -57.3476 H         1 UNK         0.3800 
    244 H244       -3.4718  -17.1362  -54.9293 H         1 UNK         0.0800 
    245 H245       -2.3812  -17.8397  -53.8023 H         1 UNK         0.0800 
    246 H246        0.6726  -15.3605  -53.7376 H         1 UNK         0.0800 
    247 H247        0.5433  -16.9684  -54.3955 H         1 UNK         0.0800 
@<TRIPOS>BOND
     1    1    2 1    
     2    1  127 1    
     3    1  128 1    
     4    1  129 1    
     5    2    3 2    
     6    2    4 am   BACKBONE|DICT|INTERRES
     7    4    5 1    
     8    4  130 1    
     9    5    6 1    
    10    5   65 1    
    11    5  131 1    
    12    6    7 1    
    13    6  132 1    
    14    6  133 1    
    15    7    8 1    
    16    8    9 1    
    17    8  134 1    
    18    8  135 1    
    19    9   10 ar   
    20    9   14 ar   
    21   10   11 ar   
    22   10  136 1    
    23   11   12 ar   
    24   11  126 1    
    25   12   13 ar   
    26   12  137 1    
    27   13   14 ar   
    28   13   15 1    
    29   14  138 1    
    30   15   16 1    
    31   15  139 1    
    32   15  140 1    
    33   16   17 1    
    34   17   18 1    
    35   17  141 1    
    36   17  142 1    
    37   18   19 1    
    38   18   67 1    
    39   18  143 1    
    40   19   20 am   BACKBONE|DICT|INTERRES
    41   19  144 1    
    42   20   21 2    
    43   20   22 1    
    44   22   23 1    
    45   22   24 1    
    46   22  145 1    
    47   23  146 1    
    48   23  147 1    
    49   23  148 1    
    50   24   25 am   BACKBONE|DICT|INTERRES
    51   24  149 1    
    52   25   26 2    
    53   25   27 1    
    54   27   28 1    
    55   27   29 1    
    56   27  150 1    
    57   28  151 1    
    58   28  152 1    
    59   28  153 1    
    60   29   30 am   BACKBONE|DICT|INTERRES
    61   29  154 1    
    62   30   31 2    
    63   30   32 1    
    64   32   33 1    
    65   32   34 1    
    66   32  155 1    
    67   33  156 1    
    68   33  157 1    
    69   33  158 1    
    70   34   35 am   BACKBONE|DICT|INTERRES
    71   34  159 1    
    72   35   36 2    
    73   35   37 1    
    74   37   38 1    
    75   37   39 1    
    76   37  160 1    
    77   38  161 1    
    78   38  162 1    
    79   38  163 1    
    80   39   40 am   BACKBONE|DICT|INTERRES
    81   39  164 1    
    82   40   41 2    
    83   40   42 1    
    84   42   43 1    
    85   42   44 1    
    86   42  165 1    
    87   43  166 1    
    88   43  167 1    
    89   43  168 1    
    90   44   45 am   BACKBONE|DICT|INTERRES
    91   44  169 1    
    92   45   46 2    
    93   45   47 1    
    94   47   48 1    
    95   47   49 1    
    96   47  170 1    
    97   48  171 1    
    98   48  172 1    
    99   48  173 1    
   100   49   50 am   BACKBONE|DICT|INTERRES
   101   49  174 1    
   102   50   51 2    
   103   50   52 1    
   104   52   53 1    
   105   52   54 1    
   106   52  175 1    
   107   53  176 1    
   108   53  177 1    
   109   53  178 1    
   110   54   55 am   BACKBONE|DICT|INTERRES
   111   54  179 1    
   112   55   56 2    
   113   55   57 1    
   114   57   58 1    
   115   57   59 1    
   116   57  180 1    
   117   58  181 1    
   118   58  182 1    
   119   58  183 1    
   120   59   60 am   BACKBONE|DICT|INTERRES
   121   59  184 1    
   122   60   61 2    
   123   60   62 1    
   124   62   63 1    
   125   62   64 1    
   126   62  185 1    
   127   63  186 1    
   128   63  187 1    
   129   63  188 1    
   130   64   65 am   BACKBONE|DICT|INTERRES
   131   64  189 1    
   132   65   66 2    
   133   67   68 2    
   134   67   69 am   BACKBONE|DICT|INTERRES
   135   69   70 1    
   136   69  190 1    
   137   70   71 1    
   138   70   72 1    
   139   70  191 1    
   140   71  192 1    
   141   71  193 1    
   142   71  194 1    
   143   72   73 2    
   144   72   74 am   BACKBONE|DICT|INTERRES
   145   74   75 1    
   146   74  195 1    
   147   75   76 1    
   148   75   77 1    
   149   75  196 1    
   150   76  197 1    
   151   76  198 1    
   152   76  199 1    
   153   77   78 2    
   154   77   79 am   BACKBONE|DICT|INTERRES
   155   79   80 1    
   156   79  200 1    
   157   80   81 1    
   158   80   82 1    
   159   80  201 1    
   160   81  202 1    
   161   81  203 1    
   162   81  204 1    
   163   82   83 2    
   164   82   84 am   BACKBONE|DICT|INTERRES
   165   84   85 1    
   166   84  205 1    
   167   85   86 1    
   168   85   87 1    
   169   85  206 1    
   170   86  207 1    
   171   86  208 1    
   172   86  209 1    
   173   87   88 2    
   174   87   89 am   BACKBONE|DICT|INTERRES
   175   89   90 1    
   176   89  210 1    
   177   90   91 1    
   178   90   92 1    
   179   90  211 1    
   180   91  212 1    
   181   91  213 1    
   182   91  214 1    
   183   92   93 2    
   184   92   94 am   BACKBONE|DICT|INTERRES
   185   94   95 1    
   186   94  215 1    
   187   95   96 1    
   188   95   97 1    
   189   95  216 1    
   190   96  217 1    
   191   96  218 1    
   192   96  219 1    
   193   97   98 2    
   194   97   99 am   BACKBONE|DICT|INTERRES
   195   99  100 1    
   196   99  220 1    
   197  100  101 1    
   198  100  102 1    
   199  100  221 1    
   200  101  222 1    
   201  101  223 1    
   202  101  224 1    
   203  102  103 2    
   204  102  104 am   BACKBONE|DICT|INTERRES
   205  104  105 1    
   206  104  225 1    
   207  105  106 1    
   208  105  107 1    
   209  105  226 1    
   210  106  227 1    
   211  106  228 1    
   212  106  229 1    
   213  107  108 2    
   214  107  109 am   BACKBONE|DICT|INTERRES
   215  109  110 1    
   216  109  230 1    
   217  110  111 1    
   218  110  112 1    
   219  110  231 1    
   220  111  232 1    
   221  111  233 1    
   222  111  234 1    
   223  112  113 2    
   224  112  114 am   BACKBONE|DICT|INTERRES
   225  114  115 1    
   226  114  235 1    
   227  115  116 1    
   228  115  117 1    
   229  115  236 1    
   230  116  237 1    
   231  116  238 1    
   232  116  239 1    
   233  117  118 2    
   234  117  119 am   BACKBONE|DICT|INTERRES
   235  119  120 1    
   236  119  240 1    
   237  120  121 1    
   238  120  124 1    
   239  120  241 1    
   240  121  122 am   BACKBONE|DICT|INTERRES
   241  121  123 2    
   242  122  242 1    
   243  122  243 1    
   244  124  125 1    
   245  124  244 1    
   246  124  245 1    
   247  125  126 1    
   248  126  246 1    
   249  126  247 1    
@<TRIPOS>SUBSTRUCTURE
     1 UNK         1 GROUP             0       ****    0 ROOT    
