@<TRIPOS>MOLECULE
3R540
247   249    1
SMALL
USER_CHARGES


@<TRIPOS>ATOM
      1 CA          3.3001  -16.3406  -47.6544 C.3       0 UNK        -0.1800 
      2 C           2.0650  -15.4593  -47.7624 C.2       0 UNK         0.5000 
      3 O           2.1608  -14.3332  -48.2498 O.2       0 UNK        -0.5000 
      4 N           0.9094  -15.9747  -47.3229 N.am      1 UNK        -0.5000 
      5 CA         -0.4263  -15.3726  -47.4406 C.3       1 UNK         0.1400 
      6 C6         -0.9414  -15.3053  -48.9070 C.3       23 UNK        -0.0398 
      7 S7         -1.0301  -16.9584  -49.6670 S.3       23 UNK        -0.2404 
      8 C8          0.2958  -16.8768  -50.9087 C.3       23 UNK        -0.0205 
      9 C9          0.8280  -18.2692  -51.1929 C.ar      23 UNK        -0.0193 
     10 C10         0.4614  -18.9641  -52.3481 C.ar      23 UNK        -0.1150 
     11 C11         0.9451  -20.2565  -52.5774 C.ar      23 UNK        -0.0193 
     12 C12         1.7764  -20.8597  -51.6278 C.ar      23 UNK        -0.1150 
     13 C13         2.1365  -20.1807  -50.4598 C.ar      23 UNK        -0.0193 
     14 C14         1.6791  -18.8736  -50.2676 C.ar      23 UNK        -0.1150 
     15 C15         3.0070  -20.8809  -49.4177 C.3       23 UNK        -0.0205 
     16 S16         2.6570  -20.3971  -47.6894 S.3       23 UNK        -0.2404 
     17 C17         0.8940  -20.8499  -47.5092 C.3       23 UNK        -0.0398 
     18 CA          0.7082  -22.1374  -46.6719 C.3       11 UNK         0.1400 
     19 N           1.2047  -21.9729  -45.3026 N.am      11 UNK        -0.5000 
     20 C           1.7547  -22.9289  -44.5453 C.2       10 UNK         0.5000 
     21 O           1.8974  -24.0948  -44.9141 O.2       10 UNK        -0.5000 
     22 CA          2.1563  -22.5215  -43.1148 C.3       10 UNK         0.1400 
     23 CB          3.5342  -21.8427  -43.1047 C.3       10 UNK        -0.1800 
     24 N           1.1647  -21.6406  -42.4913 N.am      10 UNK        -0.5000 
     25 C          -0.0789  -22.0220  -42.1660 C.2       9 UNK         0.5000 
     26 O          -0.4826  -23.1783  -42.2838 O.2       9 UNK        -0.5000 
     27 CA         -1.0441  -20.9364  -41.6528 C.3       9 UNK         0.1400 
     28 CB         -0.8774  -20.7292  -40.1403 C.3       9 UNK        -0.1800 
     29 N          -0.8902  -19.6563  -42.3458 N.am      9 UNK        -0.5000 
     30 C          -1.1732  -19.4524  -43.6409 C.2       8 UNK         0.5000 
     31 O          -1.6396  -20.3139  -44.3838 O.2       8 UNK        -0.5000 
     32 CA         -0.8349  -18.0637  -44.2168 C.3       8 UNK         0.1400 
     33 CB         -1.9409  -17.0529  -43.8815 C.3       8 UNK        -0.1800 
     34 N           0.4595  -17.5606  -43.7499 N.am      8 UNK        -0.5000 
     35 C           1.6315  -18.1727  -43.9739 C.2       7 UNK         0.5000 
     36 O           1.7470  -19.1748  -44.6751 O.2       7 UNK        -0.5000 
     37 CA          2.8648  -17.6207  -43.2397 C.3       7 UNK         0.1400 
     38 CB          3.4740  -16.4203  -43.9788 C.3       7 UNK        -0.1800 
     39 N           2.5418  -17.2491  -41.8634 N.am      7 UNK        -0.5000 
     40 C           2.3122  -18.1329  -40.8818 C.2       6 UNK         0.5000 
     41 O           2.3916  -19.3515  -41.0313 O.2       6 UNK        -0.5000 
     42 CA          1.8892  -17.5621  -39.5150 C.3       6 UNK         0.1400 
     43 CB          3.1244  -17.2296  -38.6651 C.3       6 UNK        -0.1800 
     44 N           1.0536  -16.3674  -39.6387 N.am      6 UNK        -0.5000 
     45 C          -0.1861  -16.3564  -40.1495 C.2       5 UNK         0.5000 
     46 O          -0.7844  -17.3701  -40.5070 O.2       5 UNK        -0.5000 
     47 CA         -0.8355  -14.9727  -40.3520 C.3       5 UNK         0.1400 
     48 CB         -1.5870  -14.5368  -39.0857 C.3       5 UNK        -0.1800 
     49 N           0.1371  -13.9389  -40.7245 N.am      5 UNK        -0.5000 
     50 C           0.8614  -13.9619  -41.8507 C.2       4 UNK         0.5000 
     51 O           0.7563  -14.8397  -42.7101 O.2       4 UNK        -0.5000 
     52 CA          1.9453  -12.8880  -41.9947 C.3       4 UNK         0.1400 
     53 CB          3.2076  -13.3303  -41.2235 C.3       4 UNK        -0.1800 
     54 N           2.2363  -12.7038  -43.4143 N.am      4 UNK        -0.5000 
     55 C           3.0513  -11.7805  -43.9397 C.2       3 UNK         0.5000 
     56 O           3.6714  -10.9504  -43.2736 O.2       3 UNK        -0.5000 
     57 CA          3.1882  -11.7647  -45.4749 C.3       3 UNK         0.1400 
     58 CB          4.2033  -12.8239  -45.9306 C.3       3 UNK        -0.1800 
     59 N           1.9236  -11.9669  -46.1861 N.am      3 UNK        -0.5000 
     60 C           0.8490  -11.1676  -46.0917 C.2       2 UNK         0.5000 
     61 O           0.8125  -10.1549  -45.3915 O.2       2 UNK        -0.5000 
     62 CA         -0.3956  -11.5392  -46.9244 C.3       2 UNK         0.1400 
     63 CB         -0.5648  -10.5679  -48.1035 C.3       2 UNK        -0.1800 
     64 N          -0.3775  -12.9063  -47.4462 N.am      2 UNK        -0.5000 
     65 C          -0.5038  -14.0159  -46.7060 C.2       1 UNK         0.5000 
     66 O          -0.6583  -13.9970  -45.4860 O.2       1 UNK        -0.5000 
     67 C          -0.7473  -22.6613  -46.7231 C.2       11 UNK         0.5000 
     68 O          -1.4021  -22.5369  -47.7611 O.2       11 UNK        -0.5000 
     69 N          -1.2325  -23.2950  -45.6437 N.am      12 UNK        -0.5000 
     70 CA         -2.5368  -23.9640  -45.5813 C.3       12 UNK         0.1400 
     71 CB         -2.8248  -24.4063  -44.1410 C.3       12 UNK        -0.1800 
     72 C          -2.6614  -25.1565  -46.5519 C.2       12 UNK         0.5000 
     73 O          -3.7745  -25.4926  -46.9542 O.2       12 UNK        -0.5000 
     74 N          -1.5227  -25.7270  -46.9735 N.am      13 UNK        -0.5000 
     75 CA         -1.4217  -26.7174  -48.0502 C.3       13 UNK         0.1400 
     76 CB          0.0181  -27.2504  -48.1002 C.3       13 UNK        -0.1800 
     77 C          -1.8412  -26.1675  -49.4321 C.2       13 UNK         0.5000 
     78 O          -2.2722  -26.9435  -50.2850 O.2       13 UNK        -0.5000 
     79 N          -1.7378  -24.8436  -49.6133 N.am      14 UNK        -0.5000 
     80 CA         -2.2231  -24.0928  -50.7724 C.3       14 UNK         0.1400 
     81 CB         -1.0969  -23.1618  -51.2576 C.3       14 UNK        -0.1800 
     82 C          -3.4974  -23.2954  -50.4196 C.2       14 UNK         0.5000 
     83 O          -3.8310  -22.3425  -51.1250 O.2       14 UNK        -0.5000 
     84 N          -4.1565  -23.6587  -49.3052 N.am      15 UNK        -0.5000 
     85 CA         -5.3599  -23.0521  -48.7227 C.3       15 UNK         0.1400 
     86 CB         -6.5870  -23.3590  -49.6051 C.3       15 UNK        -0.1800 
     87 C          -5.2203  -21.5444  -48.4239 C.2       15 UNK         0.5000 
     88 O          -6.2214  -20.8283  -48.4497 O.2       15 UNK        -0.5000 
     89 N          -3.9807  -21.0721  -48.2078 N.am      16 UNK        -0.5000 
     90 CA         -3.5902  -19.6592  -48.1136 C.3       16 UNK         0.1400 
     91 CB         -4.0609  -19.0569  -46.7747 C.3       16 UNK        -0.1800 
     92 C          -4.0433  -18.8276  -49.3384 C.2       16 UNK         0.5000 
     93 O          -4.4004  -17.6575  -49.1926 O.2       16 UNK        -0.5000 
     94 N          -4.0548  -19.4727  -50.5169 N.am      17 UNK        -0.5000 
     95 CA         -4.4920  -18.9631  -51.8185 C.3       17 UNK         0.1400 
     96 CB         -3.5734  -17.8197  -52.2972 C.3       17 UNK        -0.1800 
     97 C          -5.9923  -18.5982  -51.8944 C.2       17 UNK         0.5000 
     98 O          -6.3913  -17.8945  -52.8236 O.2       17 UNK        -0.5000 
     99 N          -6.8134  -19.0927  -50.9531 N.am      18 UNK        -0.5000 
    100 CA        -8.2665  -18.8878  -50.9420 C.3       18 UNK         0.1400 
    101 CB        -8.8275  -19.2630  -49.5625 C.3       18 UNK        -0.1800 
    102 C         -8.9897  -19.6799  -52.0489 C.2       18 UNK         0.5000 
    103 O        -10.0391  -19.2450  -52.5250 O.2       18 UNK        -0.5000 
    104 N         -8.4053  -20.8137  -52.4467 N.am      19 UNK        -0.5000 
    105 CA        -8.8256  -21.6672  -53.5486 C.3       19 UNK         0.1400 
    106 CB        -9.9392  -22.6217  -53.0846 C.3       19 UNK        -0.1800 
    107 C         -7.5894  -22.4426  -54.0197 C.2       19 UNK         0.5000 
    108 O         -6.7085  -22.7185  -53.2024 O.2       19 UNK        -0.5000 
    109 N         -7.5447  -22.7755  -55.3178 N.am      20 UNK        -0.5000 
    110 CA        -6.4603  -23.5044  -55.9941 C.3       20 UNK         0.1400 
    111 CB        -6.4415  -24.9806  -55.5434 C.3       20 UNK        -0.1800 
    112 C         -5.0838  -22.8135  -55.8523 C.2       20 UNK         0.5000 
    113 O         -4.0734  -23.4780  -55.6119 O.2       20 UNK        -0.5000 
    114 N         -5.0839  -21.4786  -55.9788 N.am      21 UNK        -0.5000 
    115 CA        -3.9079  -20.6188  -55.8512 C.3       21 UNK         0.1400 
    116 CB        -4.3603  -19.1512  -55.8762 C.3       21 UNK        -0.1800 
    117 C         -2.8593  -20.8810  -56.9493 C.2       21 UNK         0.5000 
    118 O         -3.2171  -21.2068  -58.0841 O.2       21 UNK        -0.5000 
    119 N         -1.5852  -20.7121  -56.5849 N.am      22 UNK        -0.5000 
    120 CA        -0.4161  -20.9435  -57.4479 C.3       22 UNK         0.1400 
    121 C         -0.0501  -19.7614  -58.3951 C.2       22 UNK         0.5000 
    122 N         -0.7199  -18.6172  -58.3254 N.am      22 UNK        -0.7600 
    123 O          0.8471  -19.8916  -59.2237 O.2       22 UNK        -0.5000 
    124 C124        0.7976  -21.4454  -56.6209 C.3       23 UNK        -0.0398 
    125 S125        1.3506  -20.2927  -55.3128 S.3       23 UNK        -0.2404 
    126 C126        0.5537  -21.0081  -53.8399 C.3       23 UNK        -0.0205 
    127 H127        3.6653  -16.5906  -48.6503 H         1 UNK         0.0600 
    128 H128        4.0953  -15.8162  -47.1258 H         1 UNK         0.0600 
    129 H129        3.0893  -17.2721  -47.1283 H         1 UNK         0.0600 
    130 H130        0.9202  -16.8959  -46.9109 H         1 UNK         0.3000 
    131 H131       -1.0987  -16.0379  -46.8963 H         1 UNK         0.0600 
    132 H132       -1.9472  -14.8824  -48.9357 H         1 UNK         0.0800 
    133 H133       -0.3178  -14.6568  -49.5235 H         1 UNK         0.0800 
    134 H134       -0.0851  -16.4088  -51.8175 H         1 UNK         0.0800 
    135 H135        1.1133  -16.2495  -50.5511 H         1 UNK         0.0800 
    136 H136       -0.1945  -18.5006  -53.0712 H         1 UNK         0.1150 
    137 H137        2.1361  -21.8656  -51.7935 H         1 UNK         0.1150 
    138 H138        1.9517  -18.3288  -49.3762 H         1 UNK         0.1150 
    139 H139        2.8921  -21.9629  -49.4982 H         1 UNK         0.0800 
    140 H140        4.0526  -20.6619  -49.6364 H         1 UNK         0.0800 
    141 H141        0.4549  -20.9618  -48.5013 H         1 UNK         0.0800 
    142 H142        0.3692  -20.0150  -47.0423 H         1 UNK         0.0800 
    143 H143        1.3036  -22.9141  -47.1564 H         1 UNK         0.0600 
    144 H144        1.1767  -21.0252  -44.9366 H         1 UNK         0.3000 
    145 H145        2.2240  -23.4314  -42.5148 H         1 UNK         0.0600 
    146 H146        3.8436  -21.5931  -42.0896 H         1 UNK         0.0600 
    147 H147        4.2954  -22.5012  -43.5248 H         1 UNK         0.0600 
    148 H148        3.5376  -20.9239  -43.6909 H         1 UNK         0.0600 
    149 H149        1.4529  -20.6875  -42.3004 H         1 UNK         0.3000 
    150 H150       -2.0612  -21.2901  -41.8339 H         1 UNK         0.0600 
    151 H151       -1.0282  -21.6643  -39.5996 H         1 UNK         0.0600 
    152 H152       -1.6037  -20.0116  -39.7580 H         1 UNK         0.0600 
    153 H153        0.1181  -20.3631  -39.8906 H         1 UNK         0.0600 
    154 H154       -0.5775  -18.8695  -41.7854 H         1 UNK         0.3000 
    155 H155       -0.7808  -18.1596  -45.3031 H         1 UNK         0.0600 
    156 H156       -1.7278  -16.0751  -44.3098 H         1 UNK         0.0600 
    157 H157       -2.0600  -16.9246  -42.8063 H         1 UNK         0.0600 
    158 H158       -2.9020  -17.3809  -44.2787 H         1 UNK         0.0600 
    159 H159        0.4545  -16.6995  -43.2105 H         1 UNK         0.3000 
    160 H160        3.6198  -18.4093  -43.2084 H         1 UNK         0.0600 
    161 H161        3.9182  -16.7440  -44.9184 H         1 UNK         0.0600 
    162 H162        4.2689  -15.9546  -43.3964 H         1 UNK         0.0600 
    163 H163        2.7325  -15.6560  -44.2102 H         1 UNK         0.0600 
    164 H164        2.3899  -16.2687  -41.6827 H         1 UNK         0.3000 
    165 H165        1.3122  -18.3301  -38.9957 H         1 UNK         0.0600 
    166 H166        3.7320  -16.4484  -39.1237 H         1 UNK         0.0600 
    167 H167        2.8383  -16.8919  -37.6688 H         1 UNK         0.0600 
    168 H168        3.7590  -18.1081  -38.5395 H         1 UNK         0.0600 
    169 H169        1.4661  -15.4905  -39.3581 H         1 UNK         0.3000 
    170 H170       -1.5585  -15.0626  -41.1654 H         1 UNK         0.0600 
    171 H171       -2.3311  -15.2811  -38.7986 H         1 UNK         0.0600 
    172 H172       -0.9111  -14.4049  -38.2399 H         1 UNK         0.0600 
    173 H173       -2.1148  -13.5963  -39.2446 H         1 UNK         0.0600 
    174 H174        0.2824  -13.1939  -40.0581 H         1 UNK         0.3000 
    175 H175        1.5680  -11.9480  -41.5875 H         1 UNK         0.0600 
    176 H176        3.9707  -12.5529  -41.2159 H         1 UNK         0.0600 
    177 H177        2.9777  -13.5516  -40.1806 H         1 UNK         0.0600 
    178 H178        3.6512  -14.2260  -41.6590 H         1 UNK         0.0600 
    179 H179        1.7277  -13.3328  -44.0248 H         1 UNK         0.3000 
    180 H180        3.5705  -10.7832  -45.7623 H         1 UNK         0.0600 
    181 H181        3.8734  -13.8306  -45.6739 H         1 UNK         0.0600 
    182 H182        5.1725  -12.6660  -45.4559 H         1 UNK         0.0600 
    183 H183        4.3591  -12.7860  -47.0090 H         1 UNK         0.0600 
    184 H184        1.8782  -12.7590  -46.8170 H         1 UNK         0.3000 
    185 H185       -1.2642  -11.4370  -46.2705 H         1 UNK         0.0600 
    186 H186       -1.4814  -10.7737  -48.6567 H         1 UNK         0.0600 
    187 H187       -0.6227   -9.5355  -47.7561 H         1 UNK         0.0600 
    188 H188        0.2716  -10.6331  -48.8007 H         1 UNK         0.0600 
    189 H189       -0.1810  -13.0016  -48.4318 H         1 UNK         0.3000 
    190 H190       -0.6593  -23.3422  -44.8126 H         1 UNK         0.3000 
    191 H191       -3.2965  -23.2339  -45.8684 H         1 UNK         0.0600 
    192 H192       -2.8822  -23.5467  -43.4733 H         1 UNK         0.0600 
    193 H193       -3.7794  -24.9298  -44.0731 H         1 UNK         0.0600 
    194 H194       -2.0525  -25.0775  -43.7635 H         1 UNK         0.0600 
    195 H195       -0.6534  -25.4026  -46.5752 H         1 UNK         0.3000 
    196 H196       -2.0891  -27.5473  -47.8090 H         1 UNK         0.0600 
    197 H197        0.1265  -28.0114  -48.8741 H         1 UNK         0.0600 
    198 H198        0.3023  -27.7094  -47.1530 H         1 UNK         0.0600 
    199 H199        0.7338  -26.4564  -48.3175 H         1 UNK         0.0600 
    200 H200       -1.4068  -24.2697  -48.8459 H         1 UNK         0.3000 
    201 H201       -2.4829  -24.7703  -51.5879 H         1 UNK         0.0600 
    202 H202       -0.1933  -23.7236  -51.4936 H         1 UNK         0.0600 
    203 H203       -0.8395  -22.4132  -50.5071 H         1 UNK         0.0600 
    204 H204       -1.3918  -22.6302  -52.1626 H         1 UNK         0.0600 
    205 H205       -3.7947  -24.4472  -48.7827 H         1 UNK         0.3000 
    206 H206       -5.5156  -23.5369  -47.7585 H         1 UNK         0.0600 
    207 H207       -6.6707  -24.4262  -49.8098 H         1 UNK         0.0600 
    208 H208       -7.5122  -23.0497  -49.1176 H         1 UNK         0.0600 
    209 H209       -6.5313  -22.8379  -50.5604 H         1 UNK         0.0600 
    210 H210       -3.2087  -21.7316  -48.2038 H         1 UNK         0.3000 
    211 H211       -2.4992  -19.6428  -48.1197 H         1 UNK         0.0600 
    212 H212       -5.1469  -18.9696  -46.7309 H         1 UNK         0.0600 
    213 H213       -3.6444  -18.0598  -46.6285 H         1 UNK         0.0600 
    214 H214       -3.7410  -19.6699  -45.9329 H         1 UNK         0.0600 
    215 H215       -3.8037  -20.4576  -50.5222 H         1 UNK         0.3000 
    216 H216       -4.3619  -19.7944  -52.5129 H         1 UNK         0.0600 
    217 H217       -2.5269  -18.1219  -52.2725 H         1 UNK         0.0600 
    218 H218       -3.6783  -16.9291  -51.6773 H         1 UNK         0.0600 
    219 H219       -3.8015  -17.5299  -53.3229 H         1 UNK         0.0600 
    220 H220       -6.4274  -19.6467  -50.1962 H         1 UNK         0.3000 
    221 H221       -8.4623  -17.8266  -51.1092 H         1 UNK         0.0600 
    222 H222       -8.7085  -20.3274  -49.3562 H         1 UNK         0.0600 
    223 H223       -8.3279  -18.7089  -48.7676 H         1 UNK         0.0600 
    224 H224       -9.8923  -19.0354  -49.5002 H         1 UNK         0.0600 
    225 H225       -7.5263  -21.0921  -52.0281 H         1 UNK         0.3000 
    226 H226       -9.1882  -21.0456  -54.3700 H         1 UNK         0.0600 
    227 H227      -10.8214  -22.0718  -52.7565 H         1 UNK         0.0600 
    228 H228      -10.2507  -23.2821  -53.8947 H         1 UNK         0.0600 
    229 H229       -9.6085  -23.2493  -52.2560 H         1 UNK         0.0600 
    230 H230       -8.3161  -22.5007  -55.9103 H         1 UNK         0.3000 
    231 H231       -6.6957  -23.4905  -57.0593 H         1 UNK         0.0600 
    232 H232       -5.7240  -25.5589  -56.1266 H         1 UNK         0.0600 
    233 H233       -7.4177  -25.4463  -55.6784 H         1 UNK         0.0600 
    234 H234       -6.1651  -25.0800  -54.4932 H         1 UNK         0.0600 
    235 H235       -5.9553  -21.0195  -56.1971 H         1 UNK         0.3000 
    236 H236       -3.4552  -20.8255  -54.8788 H         1 UNK         0.0600 
    237 H237       -3.5166  -18.4776  -55.7216 H         1 UNK         0.0600 
    238 H238       -4.8197  -18.8886  -56.8300 H         1 UNK         0.0600 
    239 H239       -5.0858  -18.9474  -55.0888 H         1 UNK         0.0600 
    240 H240       -1.3747  -20.3936  -55.6517 H         1 UNK         0.3000 
    241 H241       -0.6745  -21.7607  -58.1244 H         1 UNK         0.0600 
    242 H242       -1.4633  -18.4976  -57.6573 H         1 UNK         0.3800 
    243 H243       -0.4786  -17.8624  -58.9486 H         1 UNK         0.3800 
    244 H244        0.5541  -22.4076  -56.1685 H         1 UNK         0.0800 
    245 H245        1.6463  -21.6471  -57.2766 H         1 UNK         0.0800 
    246 H246       -0.5304  -20.9806  -53.9499 H         1 UNK         0.0800 
    247 H247        0.8294  -22.0606  -53.7568 H         1 UNK         0.0800 
@<TRIPOS>BOND
     1    1    2 1    
     2    1  127 1    
     3    1  128 1    
     4    1  129 1    
     5    2    3 2    
     6    2    4 am   BACKBONE|DICT|INTERRES
     7    4    5 1    
     8    4  130 1    
     9    5    6 1    
    10    5   65 1    
    11    5  131 1    
    12    6    7 1    
    13    6  132 1    
    14    6  133 1    
    15    7    8 1    
    16    8    9 1    
    17    8  134 1    
    18    8  135 1    
    19    9   10 ar   
    20    9   14 ar   
    21   10   11 ar   
    22   10  136 1    
    23   11   12 ar   
    24   11  126 1    
    25   12   13 ar   
    26   12  137 1    
    27   13   14 ar   
    28   13   15 1    
    29   14  138 1    
    30   15   16 1    
    31   15  139 1    
    32   15  140 1    
    33   16   17 1    
    34   17   18 1    
    35   17  141 1    
    36   17  142 1    
    37   18   19 1    
    38   18   67 1    
    39   18  143 1    
    40   19   20 am   BACKBONE|DICT|INTERRES
    41   19  144 1    
    42   20   21 2    
    43   20   22 1    
    44   22   23 1    
    45   22   24 1    
    46   22  145 1    
    47   23  146 1    
    48   23  147 1    
    49   23  148 1    
    50   24   25 am   BACKBONE|DICT|INTERRES
    51   24  149 1    
    52   25   26 2    
    53   25   27 1    
    54   27   28 1    
    55   27   29 1    
    56   27  150 1    
    57   28  151 1    
    58   28  152 1    
    59   28  153 1    
    60   29   30 am   BACKBONE|DICT|INTERRES
    61   29  154 1    
    62   30   31 2    
    63   30   32 1    
    64   32   33 1    
    65   32   34 1    
    66   32  155 1    
    67   33  156 1    
    68   33  157 1    
    69   33  158 1    
    70   34   35 am   BACKBONE|DICT|INTERRES
    71   34  159 1    
    72   35   36 2    
    73   35   37 1    
    74   37   38 1    
    75   37   39 1    
    76   37  160 1    
    77   38  161 1    
    78   38  162 1    
    79   38  163 1    
    80   39   40 am   BACKBONE|DICT|INTERRES
    81   39  164 1    
    82   40   41 2    
    83   40   42 1    
    84   42   43 1    
    85   42   44 1    
    86   42  165 1    
    87   43  166 1    
    88   43  167 1    
    89   43  168 1    
    90   44   45 am   BACKBONE|DICT|INTERRES
    91   44  169 1    
    92   45   46 2    
    93   45   47 1    
    94   47   48 1    
    95   47   49 1    
    96   47  170 1    
    97   48  171 1    
    98   48  172 1    
    99   48  173 1    
   100   49   50 am   BACKBONE|DICT|INTERRES
   101   49  174 1    
   102   50   51 2    
   103   50   52 1    
   104   52   53 1    
   105   52   54 1    
   106   52  175 1    
   107   53  176 1    
   108   53  177 1    
   109   53  178 1    
   110   54   55 am   BACKBONE|DICT|INTERRES
   111   54  179 1    
   112   55   56 2    
   113   55   57 1    
   114   57   58 1    
   115   57   59 1    
   116   57  180 1    
   117   58  181 1    
   118   58  182 1    
   119   58  183 1    
   120   59   60 am   BACKBONE|DICT|INTERRES
   121   59  184 1    
   122   60   61 2    
   123   60   62 1    
   124   62   63 1    
   125   62   64 1    
   126   62  185 1    
   127   63  186 1    
   128   63  187 1    
   129   63  188 1    
   130   64   65 am   BACKBONE|DICT|INTERRES
   131   64  189 1    
   132   65   66 2    
   133   67   68 2    
   134   67   69 am   BACKBONE|DICT|INTERRES
   135   69   70 1    
   136   69  190 1    
   137   70   71 1    
   138   70   72 1    
   139   70  191 1    
   140   71  192 1    
   141   71  193 1    
   142   71  194 1    
   143   72   73 2    
   144   72   74 am   BACKBONE|DICT|INTERRES
   145   74   75 1    
   146   74  195 1    
   147   75   76 1    
   148   75   77 1    
   149   75  196 1    
   150   76  197 1    
   151   76  198 1    
   152   76  199 1    
   153   77   78 2    
   154   77   79 am   BACKBONE|DICT|INTERRES
   155   79   80 1    
   156   79  200 1    
   157   80   81 1    
   158   80   82 1    
   159   80  201 1    
   160   81  202 1    
   161   81  203 1    
   162   81  204 1    
   163   82   83 2    
   164   82   84 am   BACKBONE|DICT|INTERRES
   165   84   85 1    
   166   84  205 1    
   167   85   86 1    
   168   85   87 1    
   169   85  206 1    
   170   86  207 1    
   171   86  208 1    
   172   86  209 1    
   173   87   88 2    
   174   87   89 am   BACKBONE|DICT|INTERRES
   175   89   90 1    
   176   89  210 1    
   177   90   91 1    
   178   90   92 1    
   179   90  211 1    
   180   91  212 1    
   181   91  213 1    
   182   91  214 1    
   183   92   93 2    
   184   92   94 am   BACKBONE|DICT|INTERRES
   185   94   95 1    
   186   94  215 1    
   187   95   96 1    
   188   95   97 1    
   189   95  216 1    
   190   96  217 1    
   191   96  218 1    
   192   96  219 1    
   193   97   98 2    
   194   97   99 am   BACKBONE|DICT|INTERRES
   195   99  100 1    
   196   99  220 1    
   197  100  101 1    
   198  100  102 1    
   199  100  221 1    
   200  101  222 1    
   201  101  223 1    
   202  101  224 1    
   203  102  103 2    
   204  102  104 am   BACKBONE|DICT|INTERRES
   205  104  105 1    
   206  104  225 1    
   207  105  106 1    
   208  105  107 1    
   209  105  226 1    
   210  106  227 1    
   211  106  228 1    
   212  106  229 1    
   213  107  108 2    
   214  107  109 am   BACKBONE|DICT|INTERRES
   215  109  110 1    
   216  109  230 1    
   217  110  111 1    
   218  110  112 1    
   219  110  231 1    
   220  111  232 1    
   221  111  233 1    
   222  111  234 1    
   223  112  113 2    
   224  112  114 am   BACKBONE|DICT|INTERRES
   225  114  115 1    
   226  114  235 1    
   227  115  116 1    
   228  115  117 1    
   229  115  236 1    
   230  116  237 1    
   231  116  238 1    
   232  116  239 1    
   233  117  118 2    
   234  117  119 am   BACKBONE|DICT|INTERRES
   235  119  120 1    
   236  119  240 1    
   237  120  121 1    
   238  120  124 1    
   239  120  241 1    
   240  121  122 am   BACKBONE|DICT|INTERRES
   241  121  123 2    
   242  122  242 1    
   243  122  243 1    
   244  124  125 1    
   245  124  244 1    
   246  124  245 1    
   247  125  126 1    
   248  126  246 1    
   249  126  247 1    
@<TRIPOS>SUBSTRUCTURE
     1 UNK         1 GROUP             0       ****    0 ROOT    
