@<TRIPOS>MOLECULE
3R540
247   249    1
SMALL
USER_CHARGES


@<TRIPOS>ATOM
      1 CA          4.8981  -14.5226  -44.1937 C.3       0 UNK        -0.1800 
      2 C           3.6253  -13.8633  -44.7032 C.2       0 UNK         0.5000 
      3 O           2.5923  -13.9467  -44.0404 O.2       0 UNK        -0.5000 
      4 N           3.6961  -13.2286  -45.8787 N.am      1 UNK        -0.5000 
      5 CA          2.6091  -12.4383  -46.4760 C.3       1 UNK         0.1400 
      6 C6          2.3152  -12.8598  -47.9372 C.3       23 UNK        -0.0398 
      7 S7          1.5394  -14.5061  -48.0289 S.3       23 UNK        -0.2404 
      8 C8          1.9840  -14.9943  -49.7246 C.3       23 UNK        -0.0205 
      9 C9          1.2133  -16.2264  -50.1758 C.ar      23 UNK        -0.0193 
     10 C10        -0.1618  -16.1371  -50.4045 C.ar      23 UNK        -0.1150 
     11 C11        -0.8905  -17.2549  -50.8158 C.ar      23 UNK        -0.0193 
     12 C12        -0.2270  -18.4661  -51.0379 C.ar      23 UNK        -0.1150 
     13 C13         1.1533  -18.5667  -50.8277 C.ar      23 UNK        -0.0193 
     14 C14         1.8653  -17.4458  -50.3853 C.ar      23 UNK        -0.1150 
     15 C15         1.8856  -19.8728  -51.1090 C.3       23 UNK        -0.0205 
     16 S16         2.1123  -20.8880  -49.6126 S.3       23 UNK        -0.2404 
     17 C17         0.4240  -21.5249  -49.3708 C.3       23 UNK        -0.0398 
     18 CA          0.3427  -22.6824  -48.3437 C.3       11 UNK         0.1400 
     19 N           0.5770  -22.2380  -46.9655 N.am      11 UNK        -0.5000 
     20 C           0.6171  -23.0391  -45.8899 C.2       10 UNK         0.5000 
     21 O           0.5194  -24.2648  -45.9442 O.2       10 UNK        -0.5000 
     22 CA          0.7289  -22.3591  -44.5129 C.3       10 UNK         0.1400 
     23 CB          2.1728  -21.9213  -44.2267 C.3       10 UNK        -0.1800 
     24 N          -0.1808  -21.2212  -44.3669 N.am      10 UNK        -0.5000 
     25 C          -1.5187  -21.3142  -44.4053 C.2       9 UNK         0.5000 
     26 O          -2.1271  -22.3750  -44.5374 O.2       9 UNK        -0.5000 
     27 CA         -2.3165  -20.0011  -44.3283 C.3       9 UNK         0.1400 
     28 CB         -2.4234  -19.5073  -42.8780 C.3       9 UNK        -0.1800 
     29 N          -1.7455  -18.9489  -45.1654 N.am      9 UNK        -0.5000 
     30 C          -1.6285  -19.0162  -46.4995 C.2       8 UNK         0.5000 
     31 O          -2.0420  -19.9540  -47.1827 O.2       8 UNK        -0.5000 
     32 CA         -0.8643  -17.8641  -47.1725 C.3       8 UNK         0.1400 
     33 CB         -1.7507  -16.6136  -47.2784 C.3       8 UNK        -0.1800 
     34 N           0.3801  -17.5379  -46.4731 N.am      8 UNK        -0.5000 
     35 C           1.3992  -18.3940  -46.3072 C.2       7 UNK         0.5000 
     36 O           1.4028  -19.5423  -46.7409 O.2       7 UNK        -0.5000 
     37 CA          2.5828  -17.9222  -45.4480 C.3       7 UNK         0.1400 
     38 CB          3.6253  -17.1713  -46.2876 C.3       7 UNK        -0.1800 
     39 N           2.1447  -17.1107  -44.3114 N.am      7 UNK        -0.5000 
     40 C           1.4742  -17.6152  -43.2654 C.2       6 UNK         0.5000 
     41 O           1.2043  -18.8097  -43.1351 O.2       6 UNK        -0.5000 
     42 CA          0.9778  -16.6057  -42.2192 C.3       6 UNK         0.1400 
     43 CB          2.1141  -16.1918  -41.2719 C.3       6 UNK        -0.1800 
     44 N           0.4002  -15.4133  -42.8384 N.am      6 UNK        -0.5000 
     45 C          -0.7509  -15.3934  -43.5243 C.2       5 UNK         0.5000 
     46 O          -1.4333  -16.3991  -43.7214 O.2       5 UNK        -0.5000 
     47 CA         -1.2125  -14.0304  -44.0729 C.3       5 UNK         0.1400 
     48 CB         -2.7453  -13.9170  -44.1758 C.3       5 UNK        -0.1800 
     49 N          -0.6949  -12.9392  -43.2459 N.am      5 UNK        -0.5000 
     50 C          -0.2749  -11.7602  -43.7126 C.2       4 UNK         0.5000 
     51 O          -0.3477  -11.4302  -44.8992 O.2       4 UNK        -0.5000 
     52 CA          0.3303  -10.7900  -42.6840 C.3       4 UNK         0.1400 
     53 CB          1.5179  -11.4179  -41.9248 C.3       4 UNK        -0.1800 
     54 N           0.7804   -9.5936  -43.3845 N.am      4 UNK        -0.5000 
     55 C           1.0264   -8.3965  -42.8438 C.2       3 UNK         0.5000 
     56 O           0.8305   -8.1292  -41.6565 O.2       3 UNK        -0.5000 
     57 CA          1.6089   -7.3361  -43.8049 C.3       3 UNK         0.1400 
     58 CB          2.2019   -6.1129  -43.0741 C.3       3 UNK        -0.1800 
     59 N           2.5825   -7.9092  -44.7458 N.am      3 UNK        -0.5000 
     60 C           3.7321   -8.5309  -44.4423 C.2       2 UNK         0.5000 
     61 O           4.1690   -8.6644  -43.2977 O.2       2 UNK        -0.5000 
     62 CA          4.4925   -9.1585  -45.6254 C.3       2 UNK         0.1400 
     63 CB          6.0163   -9.1357  -45.4125 C.3       2 UNK        -0.1800 
     64 N           4.0658  -10.5423  -45.8297 N.am      2 UNK        -0.5000 
     65 C           2.9041  -10.9226  -46.3824 C.2       1 UNK         0.5000 
     66 O           2.0770  -10.1174  -46.8121 O.2       1 UNK        -0.5000 
     67 C          -1.0083  -23.4113  -48.4772 C.2       11 UNK         0.5000 
     68 O          -1.0480  -24.5228  -49.0076 O.2       11 UNK        -0.5000 
     69 N          -2.0822  -22.7859  -47.9733 N.am      12 UNK        -0.5000 
     70 CA         -3.4379  -23.3320  -48.0034 C.3       12 UNK         0.1400 
     71 CB         -4.4351  -22.2729  -47.5135 C.3       12 UNK        -0.1800 
     72 C          -3.5802  -24.6389  -47.2040 C.2       12 UNK         0.5000 
     73 O          -4.2159  -25.5748  -47.6877 O.2       12 UNK        -0.5000 
     74 N          -2.9566  -24.6987  -46.0190 N.am      13 UNK        -0.5000 
     75 CA         -2.9117  -25.8857  -45.1648 C.3       13 UNK         0.1400 
     76 CB         -2.3226  -25.5167  -43.7951 C.3       13 UNK        -0.1800 
     77 C          -2.1268  -27.0494  -45.7957 C.2       13 UNK         0.5000 
     78 O          -2.5629  -28.1960  -45.6887 O.2       13 UNK        -0.5000 
     79 N          -0.9997  -26.7380  -46.4519 N.am      14 UNK        -0.5000 
     80 CA         -0.1618  -27.7057  -47.1608 C.3       14 UNK         0.1400 
     81 CB          1.1742  -27.0515  -47.5451 C.3       14 UNK        -0.1800 
     82 C          -0.8571  -28.2959  -48.4003 C.2       14 UNK         0.5000 
     83 O          -0.7745  -29.5046  -48.6233 O.2       14 UNK        -0.5000 
     84 N          -1.5368  -27.4398  -49.1751 N.am      15 UNK        -0.5000 
     85 CA         -2.3004  -27.8367  -50.3588 C.3       15 UNK         0.1400 
     86 CB         -2.5888  -26.5920  -51.2092 C.3       15 UNK        -0.1800 
     87 C          -3.6218  -28.5486  -50.0180 C.2       15 UNK         0.5000 
     88 O          -4.0713  -29.3855  -50.8016 O.2       15 UNK        -0.5000 
     89 N          -4.2291  -28.1710  -48.8824 N.am      16 UNK        -0.5000 
     90 CA         -5.5881  -28.5076  -48.4430 C.3       16 UNK         0.1400 
     91 CB         -5.7250  -30.0156  -48.1480 C.3       16 UNK        -0.1800 
     92 C          -6.6518  -27.9707  -49.4268 C.2       16 UNK         0.5000 
     93 O          -7.6498  -28.6413  -49.6982 O.2       16 UNK        -0.5000 
     94 N          -6.3946  -26.7722  -49.9637 N.am      17 UNK        -0.5000 
     95 CA         -7.1402  -26.1089  -51.0279 C.3       17 UNK         0.1400 
     96 CB         -6.8989  -26.8370  -52.3671 C.3       17 UNK        -0.1800 
     97 C          -6.6794  -24.6445  -51.1095 C.2       17 UNK         0.5000 
     98 O          -5.7579  -24.2478  -50.3903 O.2       17 UNK        -0.5000 
     99 N          -7.3066  -23.8654  -52.0000 N.am      18 UNK        -0.5000 
    100 CA        -6.9572  -22.4752  -52.3016 C.3       18 UNK         0.1400 
    101 CB        -8.1419  -21.8019  -53.0168 C.3       18 UNK        -0.1800 
    102 C         -5.6501  -22.3798  -53.1170 C.2       18 UNK         0.5000 
    103 O         -5.6806  -22.0941  -54.3164 O.2       18 UNK        -0.5000 
    104 N         -4.5233  -22.6427  -52.4427 N.am      19 UNK        -0.5000 
    105 CA        -3.1568  -22.5682  -52.9620 C.3       19 UNK         0.1400 
    106 CB        -2.1813  -22.8450  -51.8135 C.3       19 UNK        -0.1800 
    107 C         -2.8463  -21.1938  -53.5735 C.2       19 UNK         0.5000 
    108 O         -3.2095  -20.1791  -52.9753 O.2       19 UNK        -0.5000 
    109 N         -2.2233  -21.1879  -54.7599 N.am      20 UNK        -0.5000 
    110 CA        -1.8803  -20.0030  -55.5619 C.3       20 UNK         0.1400 
    111 CB        -0.7597  -19.1978  -54.8707 C.3       20 UNK        -0.1800 
    112 C         -3.0974  -19.1235  -55.9427 C.2       20 UNK         0.5000 
    113 O         -2.9271  -17.9420  -56.2458 O.2       20 UNK        -0.5000 
    114 N         -4.2998  -19.7217  -55.9157 N.am      21 UNK        -0.5000 
    115 CA        -5.6180  -19.1020  -56.0788 C.3       21 UNK         0.1400 
    116 CB        -5.7820  -18.4904  -57.4865 C.3       21 UNK        -0.1800 
    117 C         -5.9815  -18.1188  -54.9429 C.2       21 UNK         0.5000 
    118 O         -6.8015  -17.2234  -55.1562 O.2       21 UNK        -0.5000 
    119 N         -5.3922  -18.3068  -53.7549 N.am      22 UNK        -0.5000 
    120 CA        -5.6288  -17.4833  -52.5592 C.3       22 UNK         0.1400 
    121 C         -5.7277  -18.2899  -51.2355 C.2       22 UNK         0.5000 
    122 N         -5.1544  -19.4810  -51.1274 N.am      22 UNK        -0.7600 
    123 O         -6.3589  -17.8313  -50.2876 O.2       22 UNK        -0.5000 
    124 C124       -4.6472  -16.2841  -52.4487 C.3       23 UNK        -0.0398 
    125 S125       -2.8757  -16.6928  -52.6637 S.3       23 UNK        -0.2404 
    126 C126       -2.3985  -17.1549  -50.9726 C.3       23 UNK        -0.0205 
    127 H127        4.6811  -15.5163  -43.8027 H         1 UNK         0.0600 
    128 H128        5.3268  -13.9283  -43.3870 H         1 UNK         0.0600 
    129 H129        5.6447  -14.6231  -44.9817 H         1 UNK         0.0600 
    130 H130        4.5620  -13.2436  -46.3995 H         1 UNK         0.3000 
    131 H131        1.6914  -12.5918  -45.9090 H         1 UNK         0.0600 
    132 H132        3.2308  -12.8480  -48.5308 H         1 UNK         0.0800 
    133 H133        1.6268  -12.1622  -48.4180 H         1 UNK         0.0800 
    134 H134        1.7674  -14.1722  -50.4084 H         1 UNK         0.0800 
    135 H135        3.0597  -15.1689  -49.7767 H         1 UNK         0.0800 
    136 H136       -0.6696  -15.1974  -50.2379 H         1 UNK         0.1150 
    137 H137       -0.7881  -19.3283  -51.3710 H         1 UNK         0.1150 
    138 H138        2.9302  -17.5222  -50.2169 H         1 UNK         0.1150 
    139 H139        1.3592  -20.4487  -51.8718 H         1 UNK         0.0800 
    140 H140        2.8680  -19.6509  -51.5284 H         1 UNK         0.0800 
    141 H141        0.0737  -21.8593  -50.3472 H         1 UNK         0.0800 
    142 H142       -0.2244  -20.6989  -49.0751 H         1 UNK         0.0800 
    143 H143        1.1207  -23.4096  -48.5855 H         1 UNK         0.0600 
    144 H144        0.7252  -21.2381  -46.8382 H         1 UNK         0.3000 
    145 H145        0.4495  -23.0975  -43.7586 H         1 UNK         0.0600 
    146 H146        2.2630  -21.4821  -43.2331 H         1 UNK         0.0600 
    147 H147        2.8522  -22.7734  -44.2693 H         1 UNK         0.0600 
    148 H148        2.5248  -21.1875  -44.9507 H         1 UNK         0.0600 
    149 H149        0.2442  -20.3117  -44.2236 H         1 UNK         0.3000 
    150 H150       -3.3253  -20.2040  -44.6935 H         1 UNK         0.0600 
    151 H151       -2.8590  -20.2733  -42.2353 H         1 UNK         0.0600 
    152 H152       -3.0588  -18.6242  -42.8093 H         1 UNK         0.0600 
    153 H153       -1.4474  -19.2478  -42.4668 H         1 UNK         0.0600 
    154 H154       -1.4164  -18.1172  -44.6843 H         1 UNK         0.3000 
    155 H155       -0.5977  -18.1885  -48.1787 H         1 UNK         0.0600 
    156 H156       -1.2343  -15.7989  -47.7839 H         1 UNK         0.0600 
    157 H157       -2.6563  -16.8292  -47.8459 H         1 UNK         0.0600 
    158 H158       -2.0615  -16.2530  -46.2996 H         1 UNK         0.0600 
    159 H159        0.4570  -16.6120  -46.0828 H         1 UNK         0.3000 
    160 H160        3.0707  -18.8165  -45.0550 H         1 UNK         0.0600 
    161 H161        3.2725  -16.1886  -46.5902 H         1 UNK         0.0600 
    162 H162        3.8697  -17.7252  -47.1952 H         1 UNK         0.0600 
    163 H163        4.5535  -17.0395  -45.7329 H         1 UNK         0.0600 
    164 H164        2.2999  -16.1114  -44.3516 H         1 UNK         0.3000 
    165 H165        0.2006  -17.0936  -41.6269 H         1 UNK         0.0600 
    166 H166        1.7488  -15.5322  -40.4846 H         1 UNK         0.0600 
    167 H167        2.5548  -17.0638  -40.7870 H         1 UNK         0.0600 
    168 H168        2.9131  -15.6704  -41.8002 H         1 UNK         0.0600 
    169 H169        0.9837  -14.5843  -42.8519 H         1 UNK         0.3000 
    170 H170       -0.7928  -13.9594  -45.0789 H         1 UNK         0.0600 
    171 H171       -3.1608  -14.6943  -44.8174 H         1 UNK         0.0600 
    172 H172       -3.2184  -14.0098  -43.1977 H         1 UNK         0.0600 
    173 H173       -3.0410  -12.9580  -44.6015 H         1 UNK         0.0600 
    174 H174       -0.6193  -13.1373  -42.2576 H         1 UNK         0.3000 
    175 H175       -0.4572  -10.5195  -41.9779 H         1 UNK         0.0600 
    176 H176        1.2290  -12.3269  -41.3971 H         1 UNK         0.0600 
    177 H177        2.3325  -11.6732  -42.6032 H         1 UNK         0.0600 
    178 H178        1.9166  -10.7316  -41.1778 H         1 UNK         0.0600 
    179 H179        0.8938   -9.7217  -44.3833 H         1 UNK         0.3000 
    180 H180        0.7712   -6.9827  -44.4078 H         1 UNK         0.0600 
    181 H181        3.0106   -6.3946  -42.3993 H         1 UNK         0.0600 
    182 H182        1.4410   -5.6082  -42.4779 H         1 UNK         0.0600 
    183 H183        2.5945   -5.3831  -43.7821 H         1 UNK         0.0600 
    184 H184        2.2912   -7.9198  -45.7148 H         1 UNK         0.3000 
    185 H185        4.2744   -8.5803  -46.5260 H         1 UNK         0.0600 
    186 H186        6.3696   -8.1186  -45.2384 H         1 UNK         0.0600 
    187 H187        6.3170   -9.7393  -44.5551 H         1 UNK         0.0600 
    188 H188        6.5413   -9.5158  -46.2890 H         1 UNK         0.0600 
    189 H189        4.6697  -11.2553  -45.4496 H         1 UNK         0.3000 
    190 H190       -1.9739  -21.8626  -47.5612 H         1 UNK         0.3000 
    191 H191       -3.6683  -23.5585  -49.0449 H         1 UNK         0.0600 
    192 H192       -4.2354  -21.9788  -46.4826 H         1 UNK         0.0600 
    193 H193       -5.4574  -22.6505  -47.5598 H         1 UNK         0.0600 
    194 H194       -4.3909  -21.3761  -48.1316 H         1 UNK         0.0600 
    195 H195       -2.4919  -23.8669  -45.6633 H         1 UNK         0.3000 
    196 H196       -3.9384  -26.2243  -45.0112 H         1 UNK         0.0600 
    197 H197       -2.2819  -26.3866  -43.1385 H         1 UNK         0.0600 
    198 H198       -2.9300  -24.7613  -43.2963 H         1 UNK         0.0600 
    199 H199       -1.3091  -25.1242  -43.8861 H         1 UNK         0.0600 
    200 H200       -0.6789  -25.7741  -46.4517 H         1 UNK         0.3000 
    201 H201        0.0518  -28.5296  -46.4767 H         1 UNK         0.0600 
    202 H202        1.7171  -26.7181  -46.6606 H         1 UNK         0.0600 
    203 H203        1.0286  -26.1865  -48.1929 H         1 UNK         0.0600 
    204 H204        1.8170  -27.7556  -48.0749 H         1 UNK         0.0600 
    205 H205       -1.5077  -26.4476  -48.9564 H         1 UNK         0.3000 
    206 H206       -1.6917  -28.5223  -50.9521 H         1 UNK         0.0600 
    207 H207       -1.6644  -26.0962  -51.5056 H         1 UNK         0.0600 
    208 H208       -3.1262  -26.8540  -52.1215 H         1 UNK         0.0600 
    209 H209       -3.2012  -25.8729  -50.6632 H         1 UNK         0.0600 
    210 H210       -3.7958  -27.4241  -48.3496 H         1 UNK         0.3000 
    211 H211       -5.7441  -27.9742  -47.5044 H         1 UNK         0.0600 
    212 H212       -5.6549  -30.6174  -49.0543 H         1 UNK         0.0600 
    213 H213       -6.6877  -30.2352  -47.6853 H         1 UNK         0.0600 
    214 H214       -4.9497  -30.3526  -47.4597 H         1 UNK         0.0600 
    215 H215       -5.5991  -26.2393  -49.6274 H         1 UNK         0.3000 
    216 H216       -8.2034  -26.1217  -50.7811 H         1 UNK         0.0600 
    217 H217       -5.8419  -26.8340  -52.6369 H         1 UNK         0.0600 
    218 H218       -7.4486  -26.3679  -53.1834 H         1 UNK         0.0600 
    219 H219       -7.2260  -27.8758  -52.3234 H         1 UNK         0.0600 
    220 H220       -8.0360  -24.2698  -52.5690 H         1 UNK         0.3000 
    221 H221       -6.7977  -21.9435  -51.3611 H         1 UNK         0.0600 
    222 H222       -9.0348  -21.8087  -52.3915 H         1 UNK         0.0600 
    223 H223       -8.3855  -22.3007  -53.9557 H         1 UNK         0.0600 
    224 H224       -7.9154  -20.7596  -53.2463 H         1 UNK         0.0600 
    225 H225       -4.6259  -22.9484  -51.4817 H         1 UNK         0.3000 
    226 H226       -3.0452  -23.3430  -53.7227 H         1 UNK         0.0600 
    227 H227       -2.3911  -23.7998  -51.3383 H         1 UNK         0.0600 
    228 H228       -1.1523  -22.8781  -52.1730 H         1 UNK         0.0600 
    229 H229       -2.2442  -22.0736  -51.0446 H         1 UNK         0.0600 
    230 H230       -1.9835  -22.0749  -55.1809 H         1 UNK         0.3000 
    231 H231       -1.4802  -20.3789  -56.5044 H         1 UNK         0.0600 
    232 H232       -1.1012  -18.7493  -53.9382 H         1 UNK         0.0600 
    233 H233       -0.4027  -18.3890  -55.5091 H         1 UNK         0.0600 
    234 H234        0.0976  -19.8303  -54.6411 H         1 UNK         0.0600 
    235 H235       -4.3297  -20.6925  -55.6305 H         1 UNK         0.3000 
    236 H236       -6.3368  -19.9184  -55.9977 H         1 UNK         0.0600 
    237 H237       -6.8167  -18.1966  -57.6660 H         1 UNK         0.0600 
    238 H238       -5.1653  -17.6012  -57.6187 H         1 UNK         0.0600 
    239 H239       -5.5112  -19.2065  -58.2622 H         1 UNK         0.0600 
    240 H240       -4.6910  -19.0324  -53.6565 H         1 UNK         0.3000 
    241 H241       -6.6265  -17.0506  -52.6567 H         1 UNK         0.0600 
    242 H242       -5.2346  -19.9724  -50.2533 H         1 UNK         0.3800 
    243 H243       -4.4989  -19.8086  -51.8345 H         1 UNK         0.3800 
    244 H244       -4.7888  -15.7437  -51.5112 H         1 UNK         0.0800 
    245 H245       -4.8951  -15.5649  -53.2301 H         1 UNK         0.0800 
    246 H246       -2.8501  -18.1113  -50.7112 H         1 UNK         0.0800 
    247 H247       -2.7957  -16.4218  -50.2696 H         1 UNK         0.0800 
@<TRIPOS>BOND
     1    1    2 1    
     2    1  127 1    
     3    1  128 1    
     4    1  129 1    
     5    2    3 2    
     6    2    4 am   BACKBONE|DICT|INTERRES
     7    4    5 1    
     8    4  130 1    
     9    5    6 1    
    10    5   65 1    
    11    5  131 1    
    12    6    7 1    
    13    6  132 1    
    14    6  133 1    
    15    7    8 1    
    16    8    9 1    
    17    8  134 1    
    18    8  135 1    
    19    9   10 ar   
    20    9   14 ar   
    21   10   11 ar   
    22   10  136 1    
    23   11   12 ar   
    24   11  126 1    
    25   12   13 ar   
    26   12  137 1    
    27   13   14 ar   
    28   13   15 1    
    29   14  138 1    
    30   15   16 1    
    31   15  139 1    
    32   15  140 1    
    33   16   17 1    
    34   17   18 1    
    35   17  141 1    
    36   17  142 1    
    37   18   19 1    
    38   18   67 1    
    39   18  143 1    
    40   19   20 am   BACKBONE|DICT|INTERRES
    41   19  144 1    
    42   20   21 2    
    43   20   22 1    
    44   22   23 1    
    45   22   24 1    
    46   22  145 1    
    47   23  146 1    
    48   23  147 1    
    49   23  148 1    
    50   24   25 am   BACKBONE|DICT|INTERRES
    51   24  149 1    
    52   25   26 2    
    53   25   27 1    
    54   27   28 1    
    55   27   29 1    
    56   27  150 1    
    57   28  151 1    
    58   28  152 1    
    59   28  153 1    
    60   29   30 am   BACKBONE|DICT|INTERRES
    61   29  154 1    
    62   30   31 2    
    63   30   32 1    
    64   32   33 1    
    65   32   34 1    
    66   32  155 1    
    67   33  156 1    
    68   33  157 1    
    69   33  158 1    
    70   34   35 am   BACKBONE|DICT|INTERRES
    71   34  159 1    
    72   35   36 2    
    73   35   37 1    
    74   37   38 1    
    75   37   39 1    
    76   37  160 1    
    77   38  161 1    
    78   38  162 1    
    79   38  163 1    
    80   39   40 am   BACKBONE|DICT|INTERRES
    81   39  164 1    
    82   40   41 2    
    83   40   42 1    
    84   42   43 1    
    85   42   44 1    
    86   42  165 1    
    87   43  166 1    
    88   43  167 1    
    89   43  168 1    
    90   44   45 am   BACKBONE|DICT|INTERRES
    91   44  169 1    
    92   45   46 2    
    93   45   47 1    
    94   47   48 1    
    95   47   49 1    
    96   47  170 1    
    97   48  171 1    
    98   48  172 1    
    99   48  173 1    
   100   49   50 am   BACKBONE|DICT|INTERRES
   101   49  174 1    
   102   50   51 2    
   103   50   52 1    
   104   52   53 1    
   105   52   54 1    
   106   52  175 1    
   107   53  176 1    
   108   53  177 1    
   109   53  178 1    
   110   54   55 am   BACKBONE|DICT|INTERRES
   111   54  179 1    
   112   55   56 2    
   113   55   57 1    
   114   57   58 1    
   115   57   59 1    
   116   57  180 1    
   117   58  181 1    
   118   58  182 1    
   119   58  183 1    
   120   59   60 am   BACKBONE|DICT|INTERRES
   121   59  184 1    
   122   60   61 2    
   123   60   62 1    
   124   62   63 1    
   125   62   64 1    
   126   62  185 1    
   127   63  186 1    
   128   63  187 1    
   129   63  188 1    
   130   64   65 am   BACKBONE|DICT|INTERRES
   131   64  189 1    
   132   65   66 2    
   133   67   68 2    
   134   67   69 am   BACKBONE|DICT|INTERRES
   135   69   70 1    
   136   69  190 1    
   137   70   71 1    
   138   70   72 1    
   139   70  191 1    
   140   71  192 1    
   141   71  193 1    
   142   71  194 1    
   143   72   73 2    
   144   72   74 am   BACKBONE|DICT|INTERRES
   145   74   75 1    
   146   74  195 1    
   147   75   76 1    
   148   75   77 1    
   149   75  196 1    
   150   76  197 1    
   151   76  198 1    
   152   76  199 1    
   153   77   78 2    
   154   77   79 am   BACKBONE|DICT|INTERRES
   155   79   80 1    
   156   79  200 1    
   157   80   81 1    
   158   80   82 1    
   159   80  201 1    
   160   81  202 1    
   161   81  203 1    
   162   81  204 1    
   163   82   83 2    
   164   82   84 am   BACKBONE|DICT|INTERRES
   165   84   85 1    
   166   84  205 1    
   167   85   86 1    
   168   85   87 1    
   169   85  206 1    
   170   86  207 1    
   171   86  208 1    
   172   86  209 1    
   173   87   88 2    
   174   87   89 am   BACKBONE|DICT|INTERRES
   175   89   90 1    
   176   89  210 1    
   177   90   91 1    
   178   90   92 1    
   179   90  211 1    
   180   91  212 1    
   181   91  213 1    
   182   91  214 1    
   183   92   93 2    
   184   92   94 am   BACKBONE|DICT|INTERRES
   185   94   95 1    
   186   94  215 1    
   187   95   96 1    
   188   95   97 1    
   189   95  216 1    
   190   96  217 1    
   191   96  218 1    
   192   96  219 1    
   193   97   98 2    
   194   97   99 am   BACKBONE|DICT|INTERRES
   195   99  100 1    
   196   99  220 1    
   197  100  101 1    
   198  100  102 1    
   199  100  221 1    
   200  101  222 1    
   201  101  223 1    
   202  101  224 1    
   203  102  103 2    
   204  102  104 am   BACKBONE|DICT|INTERRES
   205  104  105 1    
   206  104  225 1    
   207  105  106 1    
   208  105  107 1    
   209  105  226 1    
   210  106  227 1    
   211  106  228 1    
   212  106  229 1    
   213  107  108 2    
   214  107  109 am   BACKBONE|DICT|INTERRES
   215  109  110 1    
   216  109  230 1    
   217  110  111 1    
   218  110  112 1    
   219  110  231 1    
   220  111  232 1    
   221  111  233 1    
   222  111  234 1    
   223  112  113 2    
   224  112  114 am   BACKBONE|DICT|INTERRES
   225  114  115 1    
   226  114  235 1    
   227  115  116 1    
   228  115  117 1    
   229  115  236 1    
   230  116  237 1    
   231  116  238 1    
   232  116  239 1    
   233  117  118 2    
   234  117  119 am   BACKBONE|DICT|INTERRES
   235  119  120 1    
   236  119  240 1    
   237  120  121 1    
   238  120  124 1    
   239  120  241 1    
   240  121  122 am   BACKBONE|DICT|INTERRES
   241  121  123 2    
   242  122  242 1    
   243  122  243 1    
   244  124  125 1    
   245  124  244 1    
   246  124  245 1    
   247  125  126 1    
   248  126  246 1    
   249  126  247 1    
@<TRIPOS>SUBSTRUCTURE
     1 UNK         1 GROUP             0       ****    0 ROOT    
