@<TRIPOS>MOLECULE
3R540
247   249    1
SMALL
USER_CHARGES


@<TRIPOS>ATOM
      1 CA          4.9805  -16.5874  -45.3503 C.3       0 UNK        -0.1800 
      2 C           4.3491  -15.5640  -46.2828 C.2       0 UNK         0.5000 
      3 O           4.9978  -14.5824  -46.6448 O.2       0 UNK        -0.5000 
      4 N           3.0859  -15.7854  -46.6678 N.am      1 UNK        -0.5000 
      5 CA          2.2820  -14.9981  -47.6145 C.3       1 UNK         0.1400 
      6 C6          2.9449  -14.8654  -49.0126 C.3       23 UNK        -0.0398 
      7 S7          1.7341  -14.7279  -50.3731 S.3       23 UNK        -0.2404 
      8 C8          2.7199  -15.2845  -51.8026 C.3       23 UNK        -0.0205 
      9 C9          2.5255  -16.7664  -52.0961 C.ar      23 UNK        -0.0193 
     10 C10         1.6931  -17.1756  -53.1423 C.ar      23 UNK        -0.1150 
     11 C11         1.5175  -18.5333  -53.4300 C.ar      23 UNK        -0.0193 
     12 C12         2.1815  -19.4860  -52.6464 C.ar      23 UNK        -0.1150 
     13 C13         3.0158  -19.0951  -51.5932 C.ar      23 UNK        -0.0193 
     14 C14         3.1966  -17.7309  -51.3417 C.ar      23 UNK        -0.1150 
     15 C15         3.7624  -20.1575  -50.7873 C.3       23 UNK        -0.0205 
     16 S16         4.0431  -19.7276  -49.0319 S.3       23 UNK        -0.2404 
     17 C17         2.4226  -20.0897  -48.2759 C.3       23 UNK        -0.0398 
     18 CA          2.4654  -21.3680  -47.3949 C.3       11 UNK         0.1400 
     19 N           1.5959  -21.2526  -46.2181 N.am      11 UNK        -0.5000 
     20 C           1.6413  -22.0661  -45.1515 C.2       10 UNK         0.5000 
     21 O           2.4519  -22.9857  -45.0363 O.2       10 UNK        -0.5000 
     22 CA          0.6019  -21.8453  -44.0327 C.3       10 UNK         0.1400 
     23 CB          1.2519  -21.1208  -42.8463 C.3       10 UNK        -0.1800 
     24 N          -0.5970  -21.1147  -44.4545 N.am      10 UNK        -0.5000 
     25 C          -1.4739  -21.5604  -45.3664 C.2       9 UNK         0.5000 
     26 O          -1.3549  -22.6332  -45.9547 O.2       9 UNK        -0.5000 
     27 CA         -2.6334  -20.6202  -45.7389 C.3       9 UNK         0.1400 
     28 CB         -3.7589  -20.6944  -44.6977 C.3       9 UNK        -0.1800 
     29 N          -2.2013  -19.2332  -45.8971 N.am      9 UNK        -0.5000 
     30 C          -1.2990  -18.8180  -46.7964 C.2       8 UNK         0.5000 
     31 O          -0.7534  -19.5619  -47.6099 O.2       8 UNK        -0.5000 
     32 CA         -0.8661  -17.3472  -46.7090 C.3       8 UNK         0.1400 
     33 CB         -1.9599  -16.3771  -47.1749 C.3       8 UNK        -0.1800 
     34 N          -0.4742  -17.0107  -45.3458 N.am      8 UNK        -0.5000 
     35 C           0.6767  -17.3837  -44.7752 C.2       7 UNK         0.5000 
     36 O           1.5879  -17.9427  -45.3849 O.2       7 UNK        -0.5000 
     37 CA          0.8506  -17.0647  -43.2809 C.3       7 UNK         0.1400 
     38 CB          1.8310  -15.9016  -43.0939 C.3       7 UNK        -0.1800 
     39 N          -0.4157  -16.7586  -42.6097 N.am      7 UNK        -0.5000 
     40 C          -1.3247  -17.6869  -42.2828 C.2       6 UNK         0.5000 
     41 O          -1.1983  -18.8842  -42.5434 O.2       6 UNK        -0.5000 
     42 CA         -2.6090  -17.1861  -41.5985 C.3       6 UNK         0.1400 
     43 CB         -2.3042  -16.6041  -40.2090 C.3       6 UNK        -0.1800 
     44 N          -3.3560  -16.2008  -42.3859 N.am      6 UNK        -0.5000 
     45 C          -3.8344  -16.3948  -43.6230 C.2       5 UNK         0.5000 
     46 O          -3.6025  -17.3989  -44.2922 O.2       5 UNK        -0.5000 
     47 CA         -4.7140  -15.2886  -44.2366 C.3       5 UNK         0.1400 
     48 CB         -6.1803  -15.7443  -44.2706 C.3       5 UNK        -0.1800 
     49 N          -4.6349  -14.0126  -43.5189 N.am      5 UNK        -0.5000 
     50 C          -3.6894  -13.0683  -43.6290 C.2       4 UNK         0.5000 
     51 O          -3.7440  -12.0368  -42.9579 O.2       4 UNK        -0.5000 
     52 CA         -2.5317  -13.2461  -44.6410 C.3       4 UNK         0.1400 
     53 CB         -2.9176  -12.6695  -46.0124 C.3       4 UNK        -0.1800 
     54 N          -1.3112  -12.5851  -44.1884 N.am      4 UNK        -0.5000 
     55 C          -0.5887  -12.9444  -43.1220 C.2       3 UNK         0.5000 
     56 O          -0.8314  -13.9434  -42.4406 O.2       3 UNK        -0.5000 
     57 CA          0.6320  -12.0567  -42.8117 C.3       3 UNK         0.1400 
     58 CB          1.3662  -12.4586  -41.5207 C.3       3 UNK        -0.1800 
     59 N           1.5763  -12.0661  -43.9313 N.am      3 UNK        -0.5000 
     60 C           1.5029  -11.2548  -44.9941 C.2       2 UNK         0.5000 
     61 O           0.6310  -10.3960  -45.1358 O.2       2 UNK        -0.5000 
     62 CA          2.5613  -11.4540  -46.0930 C.3       2 UNK         0.1400 
     63 CB          3.9141  -10.8680  -45.6603 C.3       2 UNK        -0.1800 
     64 N           2.7476  -12.8483  -46.5014 N.am      2 UNK        -0.5000 
     65 C           1.8166  -13.6307  -47.0642 C.2       1 UNK         0.5000 
     66 O           0.6331  -13.3110  -47.1735 O.2       1 UNK        -0.5000 
     67 C           2.1778  -22.6407  -48.2262 C.2       11 UNK         0.5000 
     68 O           3.0607  -23.1067  -48.9472 O.2       11 UNK        -0.5000 
     69 N           0.9645  -23.1928  -48.1002 N.am      12 UNK        -0.5000 
     70 CA          0.5132  -24.3993  -48.7849 C.3       12 UNK         0.1400 
     71 CB         -0.2091  -24.0013  -50.0848 C.3       12 UNK        -0.1800 
     72 C          -0.3736  -25.2103  -47.8291 C.2       12 UNK         0.5000 
     73 O          -1.4853  -25.5877  -48.1975 O.2       12 UNK        -0.5000 
     74 N           0.1225  -25.4362  -46.6034 N.am      13 UNK        -0.5000 
     75 CA         -0.6071  -25.9284  -45.4239 C.3       13 UNK         0.1400 
     76 CB          0.3984  -26.1326  -44.2799 C.3       13 UNK        -0.1800 
     77 C          -1.4714  -27.1957  -45.6020 C.2       13 UNK         0.5000 
     78 O          -2.4112  -27.3928  -44.8309 O.2       13 UNK        -0.5000 
     79 N          -1.1574  -28.0232  -46.6064 N.am      14 UNK        -0.5000 
     80 CA         -1.9253  -29.2094  -46.9847 C.3       14 UNK         0.1400 
     81 CB         -1.0828  -30.0526  -47.9544 C.3       14 UNK        -0.1800 
     82 C          -3.3043  -28.8975  -47.6071 C.2       14 UNK         0.5000 
     83 O          -4.1876  -29.7541  -47.5419 O.2       14 UNK        -0.5000 
     84 N          -3.4680  -27.7100  -48.2095 N.am      15 UNK        -0.5000 
     85 CA         -4.6849  -27.3107  -48.9286 C.3       15 UNK         0.1400 
     86 CB         -4.5032  -27.6255  -50.4239 C.3       15 UNK        -0.1800 
     87 C          -5.0722  -25.8322  -48.7336 C.2       15 UNK         0.5000 
     88 O          -6.1878  -25.4573  -49.0936 O.2       15 UNK        -0.5000 
     89 N          -4.1476  -25.0097  -48.2204 N.am      16 UNK        -0.5000 
     90 CA         -4.2004  -23.5576  -48.0050 C.3       16 UNK         0.1400 
     91 CB         -5.4018  -23.1427  -47.1333 C.3       16 UNK        -0.1800 
     92 C          -4.1102  -22.7085  -49.2882 C.2       16 UNK         0.5000 
     93 O          -3.8988  -21.4986  -49.1874 O.2       16 UNK        -0.5000 
     94 N          -4.2736  -23.3339  -50.4645 N.am      17 UNK        -0.5000 
     95 CA         -4.2086  -22.7429  -51.8079 C.3       17 UNK         0.1400 
     96 CB         -2.7509  -22.3796  -52.1511 C.3       17 UNK        -0.1800 
     97 C          -5.1827  -21.5615  -52.0119 C.2       17 UNK         0.5000 
     98 O          -4.8601  -20.6159  -52.7343 O.2       17 UNK        -0.5000 
     99 N          -6.3380  -21.6280  -51.3303 N.am      18 UNK        -0.5000 
    100 CA        -7.3586  -20.5808  -51.2034 C.3       18 UNK         0.1400 
    101 CB        -8.1148  -20.3896  -52.5332 C.3       18 UNK        -0.1800 
    102 C         -6.7904  -19.2685  -50.6161 C.2       18 UNK         0.5000 
    103 O         -7.1045  -18.1823  -51.1038 O.2       18 UNK        -0.5000 
    104 N         -5.9443  -19.4180  -49.5844 N.am      19 UNK        -0.5000 
    105 CA        -5.1510  -18.3850  -48.9133 C.3       19 UNK         0.1400 
    106 CB        -6.0444  -17.3425  -48.2085 C.3       19 UNK        -0.1800 
    107 C         -4.1146  -17.7708  -49.8726 C.2       19 UNK         0.5000 
    108 O         -4.1026  -16.5575  -50.0854 O.2       19 UNK        -0.5000 
    109 N         -3.2652  -18.6470  -50.4294 N.am      20 UNK        -0.5000 
    110 CA        -2.1521  -18.3455  -51.3396 C.3       20 UNK         0.1400 
    111 CB        -1.0353  -17.5791  -50.6048 C.3       20 UNK        -0.1800 
    112 C         -2.5744  -17.6461  -52.6499 C.2       20 UNK         0.5000 
    113 O         -1.8228  -16.8280  -53.1836 O.2       20 UNK        -0.5000 
    114 N         -3.7601  -17.9927  -53.1663 N.am      21 UNK        -0.5000 
    115 CA        -4.1940  -17.6172  -54.5111 C.3       21 UNK         0.1400 
    116 CB        -5.7223  -17.7195  -54.6101 C.3       21 UNK        -0.1800 
    117 C         -3.5137  -18.5180  -55.5564 C.2       21 UNK         0.5000 
    118 O         -3.0769  -18.0244  -56.5964 O.2       21 UNK        -0.5000 
    119 N         -3.4091  -19.8148  -55.2294 N.am      22 UNK        -0.5000 
    120 CA        -2.6743  -20.8521  -55.9756 C.3       22 UNK         0.1400 
    121 C         -3.2522  -21.1899  -57.3852 C.2       22 UNK         0.5000 
    122 N         -4.4957  -20.8397  -57.6901 N.am      22 UNK        -0.7600 
    123 O         -2.5805  -21.8082  -58.2068 O.2       22 UNK        -0.5000 
    124 C124       -1.1375  -20.6062  -55.9996 C.3       23 UNK        -0.0398 
    125 S125       -0.4058  -20.3867  -54.3359 S.3       23 UNK        -0.2404 
    126 C126        0.6641  -18.9399  -54.6303 C.3       23 UNK        -0.0205 
    127 H127        4.3139  -17.4288  -45.1593 H         1 UNK         0.0600 
    128 H128        5.2298  -16.1236  -44.3961 H         1 UNK         0.0600 
    129 H129        5.8978  -16.9779  -45.7908 H         1 UNK         0.0600 
    130 H130        2.6153  -16.6079  -46.2987 H         1 UNK         0.3000 
    131 H131        1.3771  -15.5873  -47.7448 H         1 UNK         0.0600 
    132 H132        3.6301  -14.0167  -49.0537 H         1 UNK         0.0800 
    133 H133        3.5599  -15.7432  -49.2004 H         1 UNK         0.0800 
    134 H134        2.4271  -14.6930  -52.6714 H         1 UNK         0.0800 
    135 H135        3.7772  -15.0704  -51.6390 H         1 UNK         0.0800 
    136 H136        1.1827  -16.4324  -53.7390 H         1 UNK         0.1150 
    137 H137        2.0651  -20.5368  -52.8711 H         1 UNK         0.1150 
    138 H138        3.8703  -17.4184  -50.5597 H         1 UNK         0.1150 
    139 H139        3.2387  -21.1131  -50.8396 H         1 UNK         0.0800 
    140 H140        4.7331  -20.3152  -51.2587 H         1 UNK         0.0800 
    141 H141        1.6406  -20.1383  -49.0367 H         1 UNK         0.0800 
    142 H142        2.1759  -19.2203  -47.6657 H         1 UNK         0.0800 
    143 H143        3.4791  -21.4775  -47.0029 H         1 UNK         0.0600 
    144 H144        0.8877  -20.5311  -46.2531 H         1 UNK         0.3000 
    145 H145        0.2780  -22.8302  -43.6910 H         1 UNK         0.0600 
    146 H146        0.5423  -20.9695  -42.0327 H         1 UNK         0.0600 
    147 H147        2.0854  -21.6993  -42.4459 H         1 UNK         0.0600 
    148 H148        1.6440  -20.1493  -43.1431 H         1 UNK         0.0600 
    149 H149       -0.7874  -20.2374  -43.9795 H         1 UNK         0.3000 
    150 H150       -3.0325  -20.9498  -46.6988 H         1 UNK         0.0600 
    151 H151       -4.6204  -20.1029  -45.0085 H         1 UNK         0.0600 
    152 H152       -4.0997  -21.7214  -44.5607 H         1 UNK         0.0600 
    153 H153       -3.4324  -20.3219  -43.7258 H         1 UNK         0.0600 
    154 H154       -2.6144  -18.5596  -45.2544 H         1 UNK         0.3000 
    155 H155       -0.0058  -17.2279  -47.3671 H         1 UNK         0.0600 
    156 H156       -2.8995  -16.5216  -46.6450 H         1 UNK         0.0600 
    157 H157       -2.1642  -16.5096  -48.2328 H         1 UNK         0.0600 
    158 H158       -1.6492  -15.3408  -47.0422 H         1 UNK         0.0600 
    159 H159       -1.1747  -16.5872  -44.7568 H         1 UNK         0.3000 
    160 H160        1.2875  -17.9412  -42.8016 H         1 UNK         0.0600 
    161 H161        1.4932  -15.0027  -43.6079 H         1 UNK         0.0600 
    162 H162        2.8144  -16.1540  -43.4887 H         1 UNK         0.0600 
    163 H163        1.9613  -15.6719  -42.0371 H         1 UNK         0.0600 
    164 H164       -0.6034  -15.7787  -42.4030 H         1 UNK         0.3000 
    165 H165       -3.2596  -18.0526  -41.4630 H         1 UNK         0.0600 
    166 H166       -3.2228  -16.3765  -39.6679 H         1 UNK         0.0600 
    167 H167       -1.7389  -17.3131  -39.6026 H         1 UNK         0.0600 
    168 H168       -1.7186  -15.6860  -40.2735 H         1 UNK         0.0600 
    169 H169       -3.5686  -15.3283  -41.9245 H         1 UNK         0.3000 
    170 H170       -4.3986  -15.1486  -45.2708 H         1 UNK         0.0600 
    171 H171       -6.2882  -16.6777  -44.8253 H         1 UNK         0.0600 
    172 H172       -6.5751  -15.9113  -43.2676 H         1 UNK         0.0600 
    173 H173       -6.8122  -15.0038  -44.7616 H         1 UNK         0.0600 
    174 H174       -5.3849  -13.8461  -42.8639 H         1 UNK         0.3000 
    175 H175       -2.2881  -14.3013  -44.7589 H         1 UNK         0.0600 
    176 H176       -3.1275  -11.6007  -45.9526 H         1 UNK         0.0600 
    177 H177       -2.1173  -12.8115  -46.7391 H         1 UNK         0.0600 
    178 H178       -3.8077  -13.1546  -46.4136 H         1 UNK         0.0600 
    179 H179       -1.0227  -11.7594  -44.6987 H         1 UNK         0.3000 
    180 H180        0.2548  -11.0430  -42.6602 H         1 UNK         0.0600 
    181 H181        1.8265  -13.4412  -41.5995 H         1 UNK         0.0600 
    182 H182        0.6816  -12.4826  -40.6720 H         1 UNK         0.0600 
    183 H183        2.1528  -11.7432  -41.2808 H         1 UNK         0.0600 
    184 H184        2.3017  -12.7672  -43.9105 H         1 UNK         0.3000 
    185 H185        2.2229  -10.9018  -46.9723 H         1 UNK         0.0600 
    186 H186        3.8111   -9.8244  -45.3599 H         1 UNK         0.0600 
    187 H187        4.3393  -11.4131  -44.8167 H         1 UNK         0.0600 
    188 H188        4.6360  -10.9003  -46.4766 H         1 UNK         0.0600 
    189 H189        3.6927  -13.2203  -46.4545 H         1 UNK         0.3000 
    190 H190        0.2994  -22.7820  -47.4535 H         1 UNK         0.3000 
    191 H191        1.3641  -25.0351  -49.0372 H         1 UNK         0.0600 
    192 H192        0.4528  -23.4506  -50.7533 H         1 UNK         0.0600 
    193 H193       -0.5612  -24.8799  -50.6267 H         1 UNK         0.0600 
    194 H194       -1.0740  -23.3704  -49.8773 H         1 UNK         0.0600 
    195 H195        1.0524  -25.0891  -46.4160 H         1 UNK         0.3000 
    196 H196       -1.2931  -25.1335  -45.1273 H         1 UNK         0.0600 
    197 H197       -0.1039  -26.4529  -43.3660 H         1 UNK         0.0600 
    198 H198        0.9298  -25.2099  -44.0480 H         1 UNK         0.0600 
    199 H199        1.1398  -26.8920  -44.5310 H         1 UNK         0.0600 
    200 H200       -0.3783  -27.7766  -47.1986 H         1 UNK         0.3000 
    201 H201       -2.0999  -29.8011  -46.0836 H         1 UNK         0.0600 
    202 H202       -0.1378  -30.3509  -47.5002 H         1 UNK         0.0600 
    203 H203       -0.8586  -29.5061  -48.8714 H         1 UNK         0.0600 
    204 H204       -1.6083  -30.9659  -48.2370 H         1 UNK         0.0600 
    205 H205       -2.6875  -27.0599  -48.2213 H         1 UNK         0.3000 
    206 H206       -5.5359  -27.8861  -48.5586 H         1 UNK         0.0600 
    207 H207       -4.3343  -28.6904  -50.5842 H         1 UNK         0.0600 
    208 H208       -5.3895  -27.3499  -50.9971 H         1 UNK         0.0600 
    209 H209       -3.6550  -27.0850  -50.8460 H         1 UNK         0.0600 
    210 H210       -3.2196  -25.3929  -48.0555 H         1 UNK         0.3000 
    211 H211       -3.2974  -23.3278  -47.4431 H         1 UNK         0.0600 
    212 H212       -6.3531  -23.3049  -47.6398 H         1 UNK         0.0600 
    213 H213       -5.3525  -22.0834  -46.8795 H         1 UNK         0.0600 
    214 H214       -5.4186  -23.6996  -46.1966 H         1 UNK         0.0600 
    215 H215       -4.4834  -24.3209  -50.4305 H         1 UNK         0.3000 
    216 H216       -4.5297  -23.5166  -52.5065 H         1 UNK         0.0600 
    217 H217       -2.3374  -21.6490  -51.4563 H         1 UNK         0.0600 
    218 H218       -2.6712  -21.9596  -53.1509 H         1 UNK         0.0600 
    219 H219       -2.1138  -23.2627  -52.1294 H         1 UNK         0.0600 
    220 H220       -6.4949  -22.4564  -50.7733 H         1 UNK         0.3000 
    221 H221       -8.0809  -20.9439  -50.4710 H         1 UNK         0.0600 
    222 H222       -7.4585  -20.0388  -53.3267 H         1 UNK         0.0600 
    223 H223       -8.5654  -21.3249  -52.8649 H         1 UNK         0.0600 
    224 H224       -8.9206  -19.6624  -52.4271 H         1 UNK         0.0600 
    225 H225       -5.6898  -20.3639  -49.3284 H         1 UNK         0.3000 
    226 H226       -4.5811  -18.8954  -48.1347 H         1 UNK         0.0600 
    227 H227       -6.7414  -17.8219  -47.5212 H         1 UNK         0.0600 
    228 H228       -5.4399  -16.6475  -47.6245 H         1 UNK         0.0600 
    229 H229       -6.6241  -16.7517  -48.9179 H         1 UNK         0.0600 
    230 H230       -3.3781  -19.6250  -50.1848 H         1 UNK         0.3000 
    231 H231       -1.7388  -19.3094  -51.6377 H         1 UNK         0.0600 
    232 H232       -1.3288  -16.5560  -50.3708 H         1 UNK         0.0600 
    233 H233       -0.1385  -17.5214  -51.2161 H         1 UNK         0.0600 
    234 H234       -0.7478  -18.0773  -49.6833 H         1 UNK         0.0600 
    235 H235       -4.3024  -18.7129  -52.7005 H         1 UNK         0.3000 
    236 H236       -3.9094  -16.5809  -54.7057 H         1 UNK         0.0600 
    237 H237       -6.2110  -17.1363  -53.8292 H         1 UNK         0.0600 
    238 H238       -6.0747  -17.3430  -55.5709 H         1 UNK         0.0600 
    239 H239       -6.0597  -18.7508  -54.5202 H         1 UNK         0.0600 
    240 H240       -3.8321  -20.1172  -54.3576 H         1 UNK         0.3000 
    241 H241       -2.8339  -21.7714  -55.4136 H         1 UNK         0.0600 
    242 H242       -5.0627  -20.3383  -57.0255 H         1 UNK         0.3800 
    243 H243       -4.8687  -21.0689  -58.5981 H         1 UNK         0.3800 
    244 H244       -0.9102  -19.7386  -56.6205 H         1 UNK         0.0800 
    245 H245       -0.6250  -21.4496  -56.4648 H         1 UNK         0.0800 
    246 H246        0.0303  -18.1076  -54.9415 H         1 UNK         0.0800 
    247 H247        1.3310  -19.1551  -55.4660 H         1 UNK         0.0800 
@<TRIPOS>BOND
     1    1    2 1    
     2    1  127 1    
     3    1  128 1    
     4    1  129 1    
     5    2    3 2    
     6    2    4 am   BACKBONE|DICT|INTERRES
     7    4    5 1    
     8    4  130 1    
     9    5    6 1    
    10    5   65 1    
    11    5  131 1    
    12    6    7 1    
    13    6  132 1    
    14    6  133 1    
    15    7    8 1    
    16    8    9 1    
    17    8  134 1    
    18    8  135 1    
    19    9   10 ar   
    20    9   14 ar   
    21   10   11 ar   
    22   10  136 1    
    23   11   12 ar   
    24   11  126 1    
    25   12   13 ar   
    26   12  137 1    
    27   13   14 ar   
    28   13   15 1    
    29   14  138 1    
    30   15   16 1    
    31   15  139 1    
    32   15  140 1    
    33   16   17 1    
    34   17   18 1    
    35   17  141 1    
    36   17  142 1    
    37   18   19 1    
    38   18   67 1    
    39   18  143 1    
    40   19   20 am   BACKBONE|DICT|INTERRES
    41   19  144 1    
    42   20   21 2    
    43   20   22 1    
    44   22   23 1    
    45   22   24 1    
    46   22  145 1    
    47   23  146 1    
    48   23  147 1    
    49   23  148 1    
    50   24   25 am   BACKBONE|DICT|INTERRES
    51   24  149 1    
    52   25   26 2    
    53   25   27 1    
    54   27   28 1    
    55   27   29 1    
    56   27  150 1    
    57   28  151 1    
    58   28  152 1    
    59   28  153 1    
    60   29   30 am   BACKBONE|DICT|INTERRES
    61   29  154 1    
    62   30   31 2    
    63   30   32 1    
    64   32   33 1    
    65   32   34 1    
    66   32  155 1    
    67   33  156 1    
    68   33  157 1    
    69   33  158 1    
    70   34   35 am   BACKBONE|DICT|INTERRES
    71   34  159 1    
    72   35   36 2    
    73   35   37 1    
    74   37   38 1    
    75   37   39 1    
    76   37  160 1    
    77   38  161 1    
    78   38  162 1    
    79   38  163 1    
    80   39   40 am   BACKBONE|DICT|INTERRES
    81   39  164 1    
    82   40   41 2    
    83   40   42 1    
    84   42   43 1    
    85   42   44 1    
    86   42  165 1    
    87   43  166 1    
    88   43  167 1    
    89   43  168 1    
    90   44   45 am   BACKBONE|DICT|INTERRES
    91   44  169 1    
    92   45   46 2    
    93   45   47 1    
    94   47   48 1    
    95   47   49 1    
    96   47  170 1    
    97   48  171 1    
    98   48  172 1    
    99   48  173 1    
   100   49   50 am   BACKBONE|DICT|INTERRES
   101   49  174 1    
   102   50   51 2    
   103   50   52 1    
   104   52   53 1    
   105   52   54 1    
   106   52  175 1    
   107   53  176 1    
   108   53  177 1    
   109   53  178 1    
   110   54   55 am   BACKBONE|DICT|INTERRES
   111   54  179 1    
   112   55   56 2    
   113   55   57 1    
   114   57   58 1    
   115   57   59 1    
   116   57  180 1    
   117   58  181 1    
   118   58  182 1    
   119   58  183 1    
   120   59   60 am   BACKBONE|DICT|INTERRES
   121   59  184 1    
   122   60   61 2    
   123   60   62 1    
   124   62   63 1    
   125   62   64 1    
   126   62  185 1    
   127   63  186 1    
   128   63  187 1    
   129   63  188 1    
   130   64   65 am   BACKBONE|DICT|INTERRES
   131   64  189 1    
   132   65   66 2    
   133   67   68 2    
   134   67   69 am   BACKBONE|DICT|INTERRES
   135   69   70 1    
   136   69  190 1    
   137   70   71 1    
   138   70   72 1    
   139   70  191 1    
   140   71  192 1    
   141   71  193 1    
   142   71  194 1    
   143   72   73 2    
   144   72   74 am   BACKBONE|DICT|INTERRES
   145   74   75 1    
   146   74  195 1    
   147   75   76 1    
   148   75   77 1    
   149   75  196 1    
   150   76  197 1    
   151   76  198 1    
   152   76  199 1    
   153   77   78 2    
   154   77   79 am   BACKBONE|DICT|INTERRES
   155   79   80 1    
   156   79  200 1    
   157   80   81 1    
   158   80   82 1    
   159   80  201 1    
   160   81  202 1    
   161   81  203 1    
   162   81  204 1    
   163   82   83 2    
   164   82   84 am   BACKBONE|DICT|INTERRES
   165   84   85 1    
   166   84  205 1    
   167   85   86 1    
   168   85   87 1    
   169   85  206 1    
   170   86  207 1    
   171   86  208 1    
   172   86  209 1    
   173   87   88 2    
   174   87   89 am   BACKBONE|DICT|INTERRES
   175   89   90 1    
   176   89  210 1    
   177   90   91 1    
   178   90   92 1    
   179   90  211 1    
   180   91  212 1    
   181   91  213 1    
   182   91  214 1    
   183   92   93 2    
   184   92   94 am   BACKBONE|DICT|INTERRES
   185   94   95 1    
   186   94  215 1    
   187   95   96 1    
   188   95   97 1    
   189   95  216 1    
   190   96  217 1    
   191   96  218 1    
   192   96  219 1    
   193   97   98 2    
   194   97   99 am   BACKBONE|DICT|INTERRES
   195   99  100 1    
   196   99  220 1    
   197  100  101 1    
   198  100  102 1    
   199  100  221 1    
   200  101  222 1    
   201  101  223 1    
   202  101  224 1    
   203  102  103 2    
   204  102  104 am   BACKBONE|DICT|INTERRES
   205  104  105 1    
   206  104  225 1    
   207  105  106 1    
   208  105  107 1    
   209  105  226 1    
   210  106  227 1    
   211  106  228 1    
   212  106  229 1    
   213  107  108 2    
   214  107  109 am   BACKBONE|DICT|INTERRES
   215  109  110 1    
   216  109  230 1    
   217  110  111 1    
   218  110  112 1    
   219  110  231 1    
   220  111  232 1    
   221  111  233 1    
   222  111  234 1    
   223  112  113 2    
   224  112  114 am   BACKBONE|DICT|INTERRES
   225  114  115 1    
   226  114  235 1    
   227  115  116 1    
   228  115  117 1    
   229  115  236 1    
   230  116  237 1    
   231  116  238 1    
   232  116  239 1    
   233  117  118 2    
   234  117  119 am   BACKBONE|DICT|INTERRES
   235  119  120 1    
   236  119  240 1    
   237  120  121 1    
   238  120  124 1    
   239  120  241 1    
   240  121  122 am   BACKBONE|DICT|INTERRES
   241  121  123 2    
   242  122  242 1    
   243  122  243 1    
   244  124  125 1    
   245  124  244 1    
   246  124  245 1    
   247  125  126 1    
   248  126  246 1    
   249  126  247 1    
@<TRIPOS>SUBSTRUCTURE
     1 UNK         1 GROUP             0       ****    0 ROOT    
