@<TRIPOS>MOLECULE
3R540
247   249    1
SMALL
USER_CHARGES


@<TRIPOS>ATOM
      1 CA         -1.3472  -12.1201  -44.5417 C.3       0 UNK        -0.1800 
      2 C          -0.2960  -11.7175  -45.5655 C.2       0 UNK         0.5000 
      3 O           0.6444  -10.9984  -45.2266 O.2       0 UNK        -0.5000 
      4 N          -0.4382  -12.1875  -46.8134 N.am      1 UNK        -0.5000 
      5 CA          0.4301  -11.8486  -47.9524 C.3       1 UNK         0.1400 
      6 C6         -0.1700  -12.3193  -49.3015 C.3       23 UNK        -0.0398 
      7 S7         -0.3188  -14.1346  -49.4868 S.3       23 UNK        -0.2404 
      8 C8          1.0950  -14.4539  -50.5876 C.3       23 UNK        -0.0205 
      9 C9          1.2280  -15.9266  -50.9372 C.ar      23 UNK        -0.0193 
     10 C10         0.7440  -16.4075  -52.1568 C.ar      23 UNK        -0.1150 
     11 C11         0.9260  -17.7459  -52.5180 C.ar      23 UNK        -0.0193 
     12 C12         1.5756  -18.6096  -51.6295 C.ar      23 UNK        -0.1150 
     13 C13         2.0463  -18.1487  -50.3953 C.ar      23 UNK        -0.0193 
     14 C14         1.8797  -16.7996  -50.0626 C.ar      23 UNK        -0.1150 
     15 C15         2.7663  -19.1138  -49.4556 C.3       23 UNK        -0.0205 
     16 S16         2.3156  -18.9264  -47.6964 S.3       23 UNK        -0.2404 
     17 C17         0.5315  -19.2983  -47.7213 C.3       23 UNK        -0.0398 
     18 CA          0.2027  -20.7354  -47.2518 C.3       11 UNK         0.1400 
     19 N           0.5402  -20.9822  -45.8444 N.am      11 UNK        -0.5000 
     20 C           0.4601  -22.1775  -45.2389 C.2       10 UNK         0.5000 
     21 O           0.1586  -23.2183  -45.8231 O.2       10 UNK        -0.5000 
     22 CA          0.7061  -22.2159  -43.7193 C.3       10 UNK         0.1400 
     23 CB          2.2069  -22.2585  -43.3938 C.3       10 UNK        -0.1800 
     24 N           0.0724  -21.0906  -43.0318 N.am      10 UNK        -0.5000 
     25 C          -1.2539  -20.9488  -42.8899 C.2       9 UNK         0.5000 
     26 O          -2.0735  -21.7928  -43.2530 O.2       9 UNK        -0.5000 
     27 CA         -1.7561  -19.6332  -42.2649 C.3       9 UNK         0.1400 
     28 CB         -1.7846  -19.7390  -40.7330 C.3       9 UNK        -0.1800 
     29 N          -0.9639  -18.4683  -42.6628 N.am      9 UNK        -0.5000 
     30 C          -0.8595  -18.0125  -43.9192 C.2       8 UNK         0.5000 
     31 O          -1.4660  -18.4966  -44.8730 O.2       8 UNK        -0.5000 
     32 CA          0.1385  -16.8683  -44.1689 C.3       8 UNK         0.1400 
     33 CB         -0.4842  -15.5060  -43.8398 C.3       8 UNK        -0.1800 
     34 N           1.3841  -17.0330  -43.4214 N.am      8 UNK        -0.5000 
     35 C           2.2338  -18.0565  -43.5851 C.2       7 UNK         0.5000 
     36 O           2.0546  -18.9677  -44.3898 O.2       7 UNK        -0.5000 
     37 CA          3.4521  -18.1032  -42.6503 C.3       7 UNK         0.1400 
     38 CB          4.5436  -17.1252  -43.1072 C.3       7 UNK        -0.1800 
     39 N           3.0739  -17.8144  -41.2690 N.am      7 UNK        -0.5000 
     40 C           2.3545  -18.6428  -40.4989 C.2       6 UNK         0.5000 
     41 O           1.9768  -19.7584  -40.8576 O.2       6 UNK        -0.5000 
     42 CA          1.9619  -18.1159  -39.1072 C.3       6 UNK         0.1400 
     43 CB          3.0916  -18.3609  -38.0957 C.3       6 UNK        -0.1800 
     44 N           1.6222  -16.6915  -39.1209 N.am      6 UNK        -0.5000 
     45 C           0.5496  -16.1788  -39.7397 C.2       5 UNK         0.5000 
     46 O          -0.2712  -16.8536  -40.3592 O.2       5 UNK        -0.5000 
     47 CA          0.3924  -14.6496  -39.6945 C.3       5 UNK         0.1400 
     48 CB         -0.2666  -14.2108  -38.3784 C.3       5 UNK        -0.1800 
     49 N           1.6565  -13.9301  -39.8728 N.am      5 UNK        -0.5000 
     50 C           2.3964  -13.9691  -40.9875 C.2       4 UNK         0.5000 
     51 O           2.1369  -14.6793  -41.9624 O.2       4 UNK        -0.5000 
     52 CA          3.6337  -13.0686  -41.0297 C.3       4 UNK         0.1400 
     53 CB          4.9153  -13.8609  -40.7217 C.3       4 UNK        -0.1800 
     54 N           3.6958  -12.4935  -42.3658 N.am      4 UNK        -0.5000 
     55 C           4.2764  -11.3377  -42.7012 C.2       3 UNK         0.5000 
     56 O           4.9289  -10.6539  -41.9103 O.2       3 UNK        -0.5000 
     57 CA          4.0493  -10.8335  -44.1426 C.3       3 UNK         0.1400 
     58 CB          5.2777  -10.1008  -44.7225 C.3       3 UNK        -0.1800 
     59 N           3.5427  -11.8564  -45.0673 N.am      3 UNK        -0.5000 
     60 C           4.1990  -12.9161  -45.5691 C.2       2 UNK         0.5000 
     61 O           5.3634  -13.1958  -45.2841 O.2       2 UNK        -0.5000 
     62 CA          3.4289  -13.8355  -46.5443 C.3       2 UNK         0.1400 
     63 CB          3.2302  -15.2288  -45.9316 C.3       2 UNK        -0.1800 
     64 N           2.1171  -13.3152  -46.9283 N.am      2 UNK        -0.5000 
     65 C           1.8974  -12.3067  -47.7826 C.2       1 UNK         0.5000 
     66 O           2.7911  -11.7321  -48.4051 O.2       1 UNK        -0.5000 
     67 C          -1.2760  -21.0533  -47.5453 C.2       11 UNK         0.5000 
     68 O          -1.5605  -21.7351  -48.5298 O.2       11 UNK        -0.5000 
     69 N          -2.1843  -20.5912  -46.6730 N.am      12 UNK        -0.5000 
     70 CA         -3.6437  -20.7284  -46.7689 C.3       12 UNK         0.1400 
     71 CB         -4.2975  -19.9134  -45.6417 C.3       12 UNK        -0.1800 
     72 C          -4.1857  -22.1736  -46.7796 C.2       12 UNK         0.5000 
     73 O          -5.3781  -22.3631  -47.0179 O.2       12 UNK        -0.5000 
     74 N          -3.3198  -23.1708  -46.5548 N.am      13 UNK        -0.5000 
     75 CA         -3.6079  -24.5831  -46.8008 C.3       13 UNK         0.1400 
     76 CB         -2.4989  -25.4356  -46.1667 C.3       13 UNK        -0.1800 
     77 C          -3.7506  -24.9126  -48.3034 C.2       13 UNK         0.5000 
     78 O          -4.3956  -25.9077  -48.6350 O.2       13 UNK        -0.5000 
     79 N          -3.1581  -24.0834  -49.1760 N.am      14 UNK        -0.5000 
     80 CA         -3.2153  -24.2148  -50.6312 C.3       14 UNK         0.1400 
     81 CB         -1.8554  -24.7061  -51.1478 C.3       14 UNK        -0.1800 
     82 C          -3.6242  -22.9007  -51.3166 C.2       14 UNK         0.5000 
     83 O          -4.4228  -22.9347  -52.2558 O.2       14 UNK        -0.5000 
     84 N          -3.0949  -21.7699  -50.8269 N.am      15 UNK        -0.5000 
     85 CA         -3.3970  -20.4162  -51.2930 C.3       15 UNK         0.1400 
     86 CB         -2.4283  -19.4232  -50.6282 C.3       15 UNK        -0.1800 
     87 C          -4.8579  -20.0096  -51.0285 C.2       15 UNK         0.5000 
     88 O          -5.5494  -20.6506  -50.2353 O.2       15 UNK        -0.5000 
     89 N          -5.3063  -18.9585  -51.7305 N.am      16 UNK        -0.5000 
     90 CA         -6.6982  -18.4850  -51.7949 C.3       16 UNK         0.1400 
     91 CB         -7.1759  -17.9549  -50.4261 C.3       16 UNK        -0.1800 
     92 C          -7.6476  -19.5433  -52.4029 C.2       16 UNK         0.5000 
     93 O          -8.8237  -19.6095  -52.0433 O.2       16 UNK        -0.5000 
     94 N          -7.0906  -20.3573  -53.3130 N.am      17 UNK        -0.5000 
     95 CA         -7.7036  -21.4796  -54.0254 C.3       17 UNK         0.1400 
     96 CB         -8.8434  -20.9979  -54.9463 C.3       17 UNK        -0.1800 
     97 C          -8.1232  -22.6601  -53.1233 C.2       17 UNK         0.5000 
     98 O          -8.9306  -23.4850  -53.5542 O.2       17 UNK        -0.5000 
     99 N          -7.5416  -22.7695  -51.9186 N.am      18 UNK        -0.5000 
    100 CA        -7.8046  -23.8487  -50.9594 C.3       18 UNK         0.1400 
    101 CB        -7.1156  -23.5301  -49.6263 C.3       18 UNK        -0.1800 
    102 C         -7.4015  -25.2483  -51.4680 C.2       18 UNK         0.5000 
    103 O         -8.0428  -26.2312  -51.0946 O.2       18 UNK        -0.5000 
    104 N         -6.3912  -25.3065  -52.3450 N.am      19 UNK        -0.5000 
    105 CA        -6.0085  -26.4938  -53.1123 C.3       19 UNK         0.1400 
    106 CB        -4.6522  -27.0225  -52.6127 C.3       19 UNK        -0.1800 
    107 C         -5.9960  -26.1578  -54.6152 C.2       19 UNK         0.5000 
    108 O         -5.1189  -26.6220  -55.3436 O.2       19 UNK        -0.5000 
    109 N         -6.9460  -25.3120  -55.0450 N.am      20 UNK        -0.5000 
    110 CA        -7.1343  -24.7257  -56.3813 C.3       20 UNK         0.1400 
    111 CB        -7.2848  -25.8065  -57.4689 C.3       20 UNK        -0.1800 
    112 C         -6.0749  -23.6745  -56.7751 C.2       20 UNK         0.5000 
    113 O         -6.4166  -22.7112  -57.4613 O.2       20 UNK        -0.5000 
    114 N         -4.8350  -23.8378  -56.3077 N.am      21 UNK        -0.5000 
    115 CA        -3.7145  -22.9197  -56.4673 C.3       21 UNK         0.1400 
    116 CB        -3.0838  -23.1010  -57.8604 C.3       21 UNK        -0.1800 
    117 C         -2.6920  -23.1917  -55.3530 C.2       21 UNK         0.5000 
    118 O         -2.7516  -24.2432  -54.7106 O.2       21 UNK        -0.5000 
    119 N         -1.7713  -22.2410  -55.1558 N.am      22 UNK        -0.5000 
    120 CA        -0.6558  -22.3150  -54.1974 C.3       22 UNK         0.1400 
    121 C          0.2925  -23.5264  -54.4370 C.2       22 UNK         0.5000 
    122 N          0.8837  -24.0770  -53.3851 N.am      22 UNK        -0.7600 
    123 O          0.5418  -23.9340  -55.5697 O.2       22 UNK        -0.5000 
    124 C124        0.1747  -21.0067  -54.1948 C.3       23 UNK        -0.0398 
    125 S125       -0.8087  -19.5170  -53.8161 S.3       23 UNK        -0.2404 
    126 C126        0.4762  -18.2280  -53.8931 C.3       23 UNK        -0.0205 
    127 H127       -1.9490  -11.2543  -44.2660 H         1 UNK         0.0600 
    128 H128       -0.8691  -12.5017  -43.6395 H         1 UNK         0.0600 
    129 H129       -2.0145  -12.8907  -44.9277 H         1 UNK         0.0600 
    130 H130       -1.2185  -12.7916  -47.0308 H         1 UNK         0.3000 
    131 H131        0.4658  -10.7576  -47.9898 H         1 UNK         0.0600 
    132 H132       -1.1673  -11.8934  -49.4192 H         1 UNK         0.0800 
    133 H133        0.4104  -11.9114  -50.1310 H         1 UNK         0.0800 
    134 H134        2.0156  -14.1126  -50.1125 H         1 UNK         0.0800 
    135 H135        0.9839  -13.8629  -51.4982 H         1 UNK         0.0800 
    136 H136        0.2523  -15.7286  -52.8393 H         1 UNK         0.1150 
    137 H137        1.7288  -19.6420  -51.9041 H         1 UNK         0.1150 
    138 H138        2.2611  -16.4241  -49.1235 H         1 UNK         0.1150 
    139 H139        2.5763  -20.1474  -49.7488 H         1 UNK         0.0800 
    140 H140        3.8407  -18.9570  -49.5575 H         1 UNK         0.0800 
    141 H141        0.1510  -19.1276  -48.7296 H         1 UNK         0.0800 
    142 H142        0.0287  -18.5648  -47.0905 H         1 UNK         0.0800 
    143 H143        0.7992  -21.4263  -47.8515 H         1 UNK         0.0600 
    144 H144        0.8726  -20.1845  -45.3085 H         1 UNK         0.3000 
    145 H145        0.2596  -23.1359  -43.3360 H         1 UNK         0.0600 
    146 H146        2.3752  -22.3137  -42.3181 H         1 UNK         0.0600 
    147 H147        2.6752  -23.1354  -43.8423 H         1 UNK         0.0600 
    148 H148        2.7333  -21.3819  -43.7690 H         1 UNK         0.0600 
    149 H149        0.6842  -20.3611  -42.6883 H         1 UNK         0.3000 
    150 H150       -2.7787  -19.4721  -42.6117 H         1 UNK         0.0600 
    151 H151       -2.3757  -20.5971  -40.4106 H         1 UNK         0.0600 
    152 H152       -2.2309  -18.8510  -40.2853 H         1 UNK         0.0600 
    153 H153       -0.7825  -19.8549  -40.3192 H         1 UNK         0.0600 
    154 H154       -0.4783  -17.9741  -41.9193 H         1 UNK         0.3000 
    155 H155        0.3903  -16.8757  -45.2314 H         1 UNK         0.0600 
    156 H156       -0.7369  -15.4232  -42.7826 H         1 UNK         0.0600 
    157 H157       -1.3987  -15.3466  -44.4120 H         1 UNK         0.0600 
    158 H158        0.2022  -14.6955  -44.0840 H         1 UNK         0.0600 
    159 H159        1.6149  -16.3004  -42.7550 H         1 UNK         0.3000 
    160 H160        3.8665  -19.1130  -42.6879 H         1 UNK         0.0600 
    161 H161        4.1831  -16.0969  -43.1343 H         1 UNK         0.0600 
    162 H162        4.8919  -17.3782  -44.1091 H         1 UNK         0.0600 
    163 H163        5.4091  -17.1610  -42.4456 H         1 UNK         0.0600 
    164 H164        3.3039  -16.8991  -40.9133 H         1 UNK         0.3000 
    165 H165        1.0817  -18.6722  -38.7777 H         1 UNK         0.0600 
    166 H166        2.7929  -18.0608  -37.0911 H         1 UNK         0.0600 
    167 H167        3.3538  -19.4189  -38.0531 H         1 UNK         0.0600 
    168 H168        3.9952  -17.8087  -38.3570 H         1 UNK         0.0600 
    169 H169        2.2486  -16.0640  -38.6386 H         1 UNK         0.3000 
    170 H170       -0.2698  -14.3647  -40.5149 H         1 UNK         0.0600 
    171 H171       -1.2190  -14.7215  -38.2296 H         1 UNK         0.0600 
    172 H172        0.3636  -14.4336  -37.5165 H         1 UNK         0.0600 
    173 H173       -0.4708  -13.1399  -38.3775 H         1 UNK         0.0600 
    174 H174        1.9409  -13.3268  -39.1144 H         1 UNK         0.3000 
    175 H175        3.5144  -12.2684  -40.2960 H         1 UNK         0.0600 
    176 H176        5.0927  -14.6436  -41.4588 H         1 UNK         0.0600 
    177 H177        5.7886  -13.2086  -40.7148 H         1 UNK         0.0600 
    178 H178        4.8570  -14.3357  -39.7417 H         1 UNK         0.0600 
    179 H179        3.1555  -12.9937  -43.0596 H         1 UNK         0.3000 
    180 H180        3.2476  -10.0977  -44.0663 H         1 UNK         0.0600 
    181 H181        6.1616  -10.7387  -44.7414 H         1 UNK         0.0600 
    182 H182        5.5260   -9.2226  -44.1257 H         1 UNK         0.0600 
    183 H183        5.0883   -9.7566  -45.7393 H         1 UNK         0.0600 
    184 H184        2.5749  -11.7248  -45.3431 H         1 UNK         0.3000 
    185 H185        4.0357  -13.9407  -47.4460 H         1 UNK         0.0600 
    186 H186        4.1903  -15.7050  -45.7330 H         1 UNK         0.0600 
    187 H187        2.6871  -15.1713  -44.9886 H         1 UNK         0.0600 
    188 H188        2.6766  -15.8875  -46.6012 H         1 UNK         0.0600 
    189 H189        1.3159  -13.7274  -46.4738 H         1 UNK         0.3000 
    190 H190       -1.8536  -20.0084  -45.9069 H         1 UNK         0.3000 
    191 H191       -3.9459  -20.2849  -47.7194 H         1 UNK         0.0600 
    192 H192       -3.9997  -20.2811  -44.6598 H         1 UNK         0.0600 
    193 H193       -5.3857  -19.9648  -45.6960 H         1 UNK         0.0600 
    194 H194       -4.0238  -18.8604  -45.7056 H         1 UNK         0.0600 
    195 H195       -2.3598  -22.9345  -46.3438 H         1 UNK         0.3000 
    196 H196       -4.5531  -24.8310  -46.3135 H         1 UNK         0.0600 
    197 H197       -2.7150  -26.4992  -46.2741 H         1 UNK         0.0600 
    198 H198       -2.4007  -25.2286  -45.1008 H         1 UNK         0.0600 
    199 H199       -1.5320  -25.2484  -46.6354 H         1 UNK         0.0600 
    200 H200       -2.6464  -23.2847  -48.8136 H         1 UNK         0.3000 
    201 H201       -3.9723  -24.9494  -50.9013 H         1 UNK         0.0600 
    202 H202       -1.6100  -25.6846  -50.7351 H         1 UNK         0.0600 
    203 H203       -1.0531  -24.0182  -50.8797 H         1 UNK         0.0600 
    204 H204       -1.8607  -24.8054  -52.2334 H         1 UNK         0.0600 
    205 H205       -2.4698  -21.8219  -50.0262 H         1 UNK         0.3000 
    206 H206       -3.2333  -20.4019  -52.3717 H         1 UNK         0.0600 
    207 H207       -2.5120  -18.4325  -51.0763 H         1 UNK         0.0600 
    208 H208       -2.6281  -19.3147  -49.5625 H         1 UNK         0.0600 
    209 H209       -1.3916  -19.7396  -50.7464 H         1 UNK         0.0600 
    210 H210       -4.6588  -18.4763  -52.3389 H         1 UNK         0.3000 
    211 H211       -6.7023  -17.6438  -52.4894 H         1 UNK         0.0600 
    212 H212       -7.2922  -18.7556  -49.6953 H         1 UNK         0.0600 
    213 H213       -8.1420  -17.4573  -50.5173 H         1 UNK         0.0600 
    214 H214       -6.4743  -17.2275  -50.0182 H         1 UNK         0.0600 
    215 H215       -6.1123  -20.2099  -53.5145 H         1 UNK         0.3000 
    216 H216       -6.9149  -21.8726  -54.6660 H         1 UNK         0.0600 
    217 H217       -9.1838  -21.7999  -55.6022 H         1 UNK         0.0600 
    218 H218       -8.5139  -20.1794  -55.5862 H         1 UNK         0.0600 
    219 H219       -9.7070  -20.6537  -54.3767 H         1 UNK         0.0600 
    220 H220       -6.8633  -22.0732  -51.6358 H         1 UNK         0.3000 
    221 H221       -8.8817  -23.8704  -50.7811 H         1 UNK         0.0600 
    222 H222       -6.0373  -23.4355  -49.7429 H         1 UNK         0.0600 
    223 H223       -7.4844  -22.5953  -49.2039 H         1 UNK         0.0600 
    224 H224       -7.2966  -24.3140  -48.8898 H         1 UNK         0.0600 
    225 H225       -5.8987  -24.4480  -52.5707 H         1 UNK         0.3000 
    226 H226       -6.7483  -27.2861  -52.9834 H         1 UNK         0.0600 
    227 H227       -4.6684  -27.2036  -51.5377 H         1 UNK         0.0600 
    228 H228       -4.4003  -27.9672  -53.0956 H         1 UNK         0.0600 
    229 H229       -3.8456  -26.3214  -52.8295 H         1 UNK         0.0600 
    230 H230       -7.6123  -24.9832  -54.3550 H         1 UNK         0.3000 
    231 H231       -8.0848  -24.1925  -56.3257 H         1 UNK         0.0600 
    232 H232       -8.0580  -26.5279  -57.2048 H         1 UNK         0.0600 
    233 H233       -6.3564  -26.3527  -57.6362 H         1 UNK         0.0600 
    234 H234       -7.5700  -25.3581  -58.4213 H         1 UNK         0.0600 
    235 H235       -4.6226  -24.6610  -55.7507 H         1 UNK         0.3000 
    236 H236       -4.0747  -21.8948  -56.3560 H         1 UNK         0.0600 
    237 H237       -2.2375  -22.4278  -58.0013 H         1 UNK         0.0600 
    238 H238       -2.7208  -24.1195  -58.0037 H         1 UNK         0.0600 
    239 H239       -3.8009  -22.8868  -58.6528 H         1 UNK         0.0600 
    240 H240       -1.7911  -21.4136  -55.7329 H         1 UNK         0.3000 
    241 H241       -1.1024  -22.4349  -53.2087 H         1 UNK         0.0600 
    242 H242        1.5141  -24.8497  -53.5335 H         1 UNK         0.3800 
    243 H243        0.7239  -23.7465  -52.4474 H         1 UNK         0.3800 
    244 H244        0.6535  -20.8637  -55.1654 H         1 UNK         0.0800 
    245 H245        0.9814  -21.0774  -53.4648 H         1 UNK         0.0800 
    246 H246        0.0783  -17.3948  -54.4741 H         1 UNK         0.0800 
    247 H247        1.3441  -18.5878  -54.4473 H         1 UNK         0.0800 
@<TRIPOS>BOND
     1    1    2 1    
     2    1  127 1    
     3    1  128 1    
     4    1  129 1    
     5    2    3 2    
     6    2    4 am   BACKBONE|DICT|INTERRES
     7    4    5 1    
     8    4  130 1    
     9    5    6 1    
    10    5   65 1    
    11    5  131 1    
    12    6    7 1    
    13    6  132 1    
    14    6  133 1    
    15    7    8 1    
    16    8    9 1    
    17    8  134 1    
    18    8  135 1    
    19    9   10 ar   
    20    9   14 ar   
    21   10   11 ar   
    22   10  136 1    
    23   11   12 ar   
    24   11  126 1    
    25   12   13 ar   
    26   12  137 1    
    27   13   14 ar   
    28   13   15 1    
    29   14  138 1    
    30   15   16 1    
    31   15  139 1    
    32   15  140 1    
    33   16   17 1    
    34   17   18 1    
    35   17  141 1    
    36   17  142 1    
    37   18   19 1    
    38   18   67 1    
    39   18  143 1    
    40   19   20 am   BACKBONE|DICT|INTERRES
    41   19  144 1    
    42   20   21 2    
    43   20   22 1    
    44   22   23 1    
    45   22   24 1    
    46   22  145 1    
    47   23  146 1    
    48   23  147 1    
    49   23  148 1    
    50   24   25 am   BACKBONE|DICT|INTERRES
    51   24  149 1    
    52   25   26 2    
    53   25   27 1    
    54   27   28 1    
    55   27   29 1    
    56   27  150 1    
    57   28  151 1    
    58   28  152 1    
    59   28  153 1    
    60   29   30 am   BACKBONE|DICT|INTERRES
    61   29  154 1    
    62   30   31 2    
    63   30   32 1    
    64   32   33 1    
    65   32   34 1    
    66   32  155 1    
    67   33  156 1    
    68   33  157 1    
    69   33  158 1    
    70   34   35 am   BACKBONE|DICT|INTERRES
    71   34  159 1    
    72   35   36 2    
    73   35   37 1    
    74   37   38 1    
    75   37   39 1    
    76   37  160 1    
    77   38  161 1    
    78   38  162 1    
    79   38  163 1    
    80   39   40 am   BACKBONE|DICT|INTERRES
    81   39  164 1    
    82   40   41 2    
    83   40   42 1    
    84   42   43 1    
    85   42   44 1    
    86   42  165 1    
    87   43  166 1    
    88   43  167 1    
    89   43  168 1    
    90   44   45 am   BACKBONE|DICT|INTERRES
    91   44  169 1    
    92   45   46 2    
    93   45   47 1    
    94   47   48 1    
    95   47   49 1    
    96   47  170 1    
    97   48  171 1    
    98   48  172 1    
    99   48  173 1    
   100   49   50 am   BACKBONE|DICT|INTERRES
   101   49  174 1    
   102   50   51 2    
   103   50   52 1    
   104   52   53 1    
   105   52   54 1    
   106   52  175 1    
   107   53  176 1    
   108   53  177 1    
   109   53  178 1    
   110   54   55 am   BACKBONE|DICT|INTERRES
   111   54  179 1    
   112   55   56 2    
   113   55   57 1    
   114   57   58 1    
   115   57   59 1    
   116   57  180 1    
   117   58  181 1    
   118   58  182 1    
   119   58  183 1    
   120   59   60 am   BACKBONE|DICT|INTERRES
   121   59  184 1    
   122   60   61 2    
   123   60   62 1    
   124   62   63 1    
   125   62   64 1    
   126   62  185 1    
   127   63  186 1    
   128   63  187 1    
   129   63  188 1    
   130   64   65 am   BACKBONE|DICT|INTERRES
   131   64  189 1    
   132   65   66 2    
   133   67   68 2    
   134   67   69 am   BACKBONE|DICT|INTERRES
   135   69   70 1    
   136   69  190 1    
   137   70   71 1    
   138   70   72 1    
   139   70  191 1    
   140   71  192 1    
   141   71  193 1    
   142   71  194 1    
   143   72   73 2    
   144   72   74 am   BACKBONE|DICT|INTERRES
   145   74   75 1    
   146   74  195 1    
   147   75   76 1    
   148   75   77 1    
   149   75  196 1    
   150   76  197 1    
   151   76  198 1    
   152   76  199 1    
   153   77   78 2    
   154   77   79 am   BACKBONE|DICT|INTERRES
   155   79   80 1    
   156   79  200 1    
   157   80   81 1    
   158   80   82 1    
   159   80  201 1    
   160   81  202 1    
   161   81  203 1    
   162   81  204 1    
   163   82   83 2    
   164   82   84 am   BACKBONE|DICT|INTERRES
   165   84   85 1    
   166   84  205 1    
   167   85   86 1    
   168   85   87 1    
   169   85  206 1    
   170   86  207 1    
   171   86  208 1    
   172   86  209 1    
   173   87   88 2    
   174   87   89 am   BACKBONE|DICT|INTERRES
   175   89   90 1    
   176   89  210 1    
   177   90   91 1    
   178   90   92 1    
   179   90  211 1    
   180   91  212 1    
   181   91  213 1    
   182   91  214 1    
   183   92   93 2    
   184   92   94 am   BACKBONE|DICT|INTERRES
   185   94   95 1    
   186   94  215 1    
   187   95   96 1    
   188   95   97 1    
   189   95  216 1    
   190   96  217 1    
   191   96  218 1    
   192   96  219 1    
   193   97   98 2    
   194   97   99 am   BACKBONE|DICT|INTERRES
   195   99  100 1    
   196   99  220 1    
   197  100  101 1    
   198  100  102 1    
   199  100  221 1    
   200  101  222 1    
   201  101  223 1    
   202  101  224 1    
   203  102  103 2    
   204  102  104 am   BACKBONE|DICT|INTERRES
   205  104  105 1    
   206  104  225 1    
   207  105  106 1    
   208  105  107 1    
   209  105  226 1    
   210  106  227 1    
   211  106  228 1    
   212  106  229 1    
   213  107  108 2    
   214  107  109 am   BACKBONE|DICT|INTERRES
   215  109  110 1    
   216  109  230 1    
   217  110  111 1    
   218  110  112 1    
   219  110  231 1    
   220  111  232 1    
   221  111  233 1    
   222  111  234 1    
   223  112  113 2    
   224  112  114 am   BACKBONE|DICT|INTERRES
   225  114  115 1    
   226  114  235 1    
   227  115  116 1    
   228  115  117 1    
   229  115  236 1    
   230  116  237 1    
   231  116  238 1    
   232  116  239 1    
   233  117  118 2    
   234  117  119 am   BACKBONE|DICT|INTERRES
   235  119  120 1    
   236  119  240 1    
   237  120  121 1    
   238  120  124 1    
   239  120  241 1    
   240  121  122 am   BACKBONE|DICT|INTERRES
   241  121  123 2    
   242  122  242 1    
   243  122  243 1    
   244  124  125 1    
   245  124  244 1    
   246  124  245 1    
   247  125  126 1    
   248  126  246 1    
   249  126  247 1    
@<TRIPOS>SUBSTRUCTURE
     1 UNK         1 GROUP             0       ****    0 ROOT    
