@<TRIPOS>MOLECULE
3R540
247   249    1
SMALL
USER_CHARGES


@<TRIPOS>ATOM
      1 CA          0.2054  -18.3024  -50.2179 C.3       0 UNK        -0.1800 
      2 C          -0.3832  -16.9222  -49.9910 C.2       0 UNK         0.5000 
      3 O          -1.2913  -16.5120  -50.7113 O.2       0 UNK        -0.5000 
      4 N           0.1054  -16.2117  -48.9675 N.am      1 UNK        -0.5000 
      5 CA         -0.2566  -14.8267  -48.6307 C.3       1 UNK         0.1400 
      6 C6          0.8959  -14.0286  -47.9325 C.3       23 UNK        -0.0398 
      7 S7          2.5690  -14.7690  -47.9826 S.3       23 UNK        -0.2404 
      8 C8          3.1330  -14.3767  -49.6694 C.3       23 UNK        -0.0205 
      9 C9          3.2198  -15.6070  -50.5668 C.ar      23 UNK        -0.0193 
     10 C10         2.6505  -15.5852  -51.8449 C.ar      23 UNK        -0.1150 
     11 C11         2.8019  -16.6730  -52.7108 C.ar      23 UNK        -0.0193 
     12 C12         3.5264  -17.7893  -52.2866 C.ar      23 UNK        -0.1150 
     13 C13         4.0733  -17.8413  -51.0027 C.ar      23 UNK        -0.0193 
     14 C14         3.9235  -16.7444  -50.1500 C.ar      23 UNK        -0.1150 
     15 C15         4.8595  -19.0691  -50.5665 C.3       23 UNK        -0.0205 
     16 S16         3.7954  -20.5384  -50.3971 S.3       23 UNK        -0.2404 
     17 C17         3.1833  -20.3659  -48.6879 C.3       23 UNK        -0.0398 
     18 CA          2.4857  -21.6555  -48.1819 C.3       11 UNK         0.1400 
     19 N           2.4911  -21.7216  -46.7198 N.am      11 UNK        -0.5000 
     20 C           2.6116  -22.8490  -46.0055 C.2       10 UNK         0.5000 
     21 O           2.7829  -23.9613  -46.5050 O.2       10 UNK        -0.5000 
     22 CA          2.5096  -22.7209  -44.4709 C.3       10 UNK         0.1400 
     23 CB          3.9019  -22.5310  -43.8506 C.3       10 UNK        -0.1800 
     24 N           1.6377  -21.6289  -44.0353 N.am      10 UNK        -0.5000 
     25 C           0.3248  -21.5579  -44.2921 C.2       9 UNK         0.5000 
     26 O          -0.3056  -22.4419  -44.8695 O.2       9 UNK        -0.5000 
     27 CA         -0.3911  -20.2564  -43.8969 C.3       9 UNK         0.1400 
     28 CB         -0.9028  -20.3317  -42.4517 C.3       9 UNK        -0.1800 
     29 N           0.4465  -19.0661  -44.0563 N.am      9 UNK        -0.5000 
     30 C           0.9713  -18.6256  -45.2085 C.2       8 UNK         0.5000 
     31 O           0.8141  -19.1823  -46.2923 O.2       8 UNK        -0.5000 
     32 CA          1.8451  -17.3674  -45.1313 C.3       8 UNK         0.1400 
     33 CB          0.9701  -16.1119  -45.0185 C.3       8 UNK        -0.1800 
     34 N           2.7720  -17.4351  -44.0052 N.am      8 UNK        -0.5000 
     35 C           3.8489  -18.2324  -43.9652 C.2       7 UNK         0.5000 
     36 O           4.2143  -18.9368  -44.9066 O.2       7 UNK        -0.5000 
     37 CA          4.6285  -18.2701  -42.6372 C.3       7 UNK         0.1400 
     38 CB          5.7054  -17.1753  -42.6129 C.3       7 UNK        -0.1800 
     39 N           3.7608  -18.1194  -41.4664 N.am      7 UNK        -0.5000 
     40 C           2.8630  -19.0314  -41.0668 C.2       6 UNK         0.5000 
     41 O           2.6904  -20.1127  -41.6299 O.2       6 UNK        -0.5000 
     42 CA          1.9719  -18.6407  -39.8704 C.3       6 UNK         0.1400 
     43 CB          2.6899  -18.9303  -38.5439 C.3       6 UNK        -0.1800 
     44 N           1.5370  -17.2381  -39.8953 N.am      6 UNK        -0.5000 
     45 C           0.8058  -16.6932  -40.8760 C.2       5 UNK         0.5000 
     46 O           0.4455  -17.3176  -41.8769 O.2       5 UNK        -0.5000 
     47 CA          0.4515  -15.2044  -40.7494 C.3       5 UNK         0.1400 
     48 CB          1.6979  -14.3195  -40.9300 C.3       5 UNK        -0.1800 
     49 N          -0.5225  -14.8895  -41.7877 N.am      5 UNK        -0.5000 
     50 C          -1.4406  -13.9203  -41.7662 C.2       4 UNK         0.5000 
     51 O          -1.5537  -13.1118  -40.8437 O.2       4 UNK        -0.5000 
     52 CA         -2.3929  -13.8267  -42.9798 C.3       4 UNK         0.1400 
     53 CB         -2.0358  -12.6081  -43.8451 C.3       4 UNK        -0.1800 
     54 N          -2.4143  -15.0157  -43.8411 N.am      4 UNK        -0.5000 
     55 C          -2.9222  -16.2103  -43.4986 C.2       3 UNK         0.5000 
     56 O          -3.3953  -16.4494  -42.3869 O.2       3 UNK        -0.5000 
     57 CA         -2.8822  -17.3162  -44.5791 C.3       3 UNK         0.1400 
     58 CB         -3.8481  -18.4842  -44.2920 C.3       3 UNK        -0.1800 
     59 N          -3.0643  -16.8084  -45.9440 N.am      3 UNK        -0.5000 
     60 C          -4.1173  -16.1262  -46.4223 C.2       2 UNK         0.5000 
     61 O          -5.1437  -15.9137  -45.7757 O.2       2 UNK        -0.5000 
     62 CA         -3.9983  -15.5815  -47.8654 C.3       2 UNK         0.1400 
     63 CB         -4.7309  -14.2355  -48.0392 C.3       2 UNK        -0.1800 
     64 N          -2.6216  -15.4740  -48.3744 N.am      2 UNK        -0.5000 
     65 C          -1.6053  -14.7615  -47.8642 C.2       1 UNK         0.5000 
     66 O          -1.6969  -14.1312  -46.8095 O.2       1 UNK        -0.5000 
     67 C           1.0498  -21.8075  -48.7344 C.2       11 UNK         0.5000 
     68 O           0.8488  -22.5168  -49.7203 O.2       11 UNK        -0.5000 
     69 N           0.0765  -21.1498  -48.0865 N.am      12 UNK        -0.5000 
     70 CA         -1.3318  -21.1086  -48.4872 C.3       12 UNK         0.1400 
     71 CB         -2.0267  -19.9469  -47.7596 C.3       12 UNK        -0.1800 
     72 C          -2.0930  -22.4248  -48.2464 C.2       12 UNK         0.5000 
     73 O          -3.0955  -22.6594  -48.9207 O.2       12 UNK        -0.5000 
     74 N          -1.6114  -23.2473  -47.3059 N.am      13 UNK        -0.5000 
     75 CA         -2.1699  -24.5301  -46.8733 C.3       13 UNK         0.1400 
     76 CB         -2.2455  -25.5262  -48.0533 C.3       13 UNK        -0.1800 
     77 C          -3.5118  -24.3801  -46.1236 C.2       13 UNK         0.5000 
     78 O          -3.9071  -23.2696  -45.7543 O.2       13 UNK        -0.5000 
     79 N          -4.1729  -25.5191  -45.8723 N.am      14 UNK        -0.5000 
     80 CA         -5.4517  -25.6265  -45.1679 C.3       14 UNK         0.1400 
     81 CB         -5.8551  -27.1059  -45.0762 C.3       14 UNK        -0.1800 
     82 C          -6.5579  -24.8037  -45.8510 C.2       14 UNK         0.5000 
     83 O          -6.7266  -24.9041  -47.0679 O.2       14 UNK        -0.5000 
     84 N          -7.2508  -23.9738  -45.0577 N.am      15 UNK        -0.5000 
     85 CA         -8.2987  -23.0257  -45.4652 C.3       15 UNK         0.1400 
     86 CB         -9.5504  -23.7862  -45.9516 C.3       15 UNK        -0.1800 
     87 C          -7.8303  -21.9600  -46.4851 C.2       15 UNK         0.5000 
     88 O          -8.6684  -21.3456  -47.1468 O.2       15 UNK        -0.5000 
     89 N          -6.5058  -21.7704  -46.6011 N.am      16 UNK        -0.5000 
     90 CA         -5.8066  -20.9430  -47.5866 C.3       16 UNK         0.1400 
     91 CB         -6.0819  -19.4433  -47.3486 C.3       16 UNK        -0.1800 
     92 C          -6.0733  -21.3787  -49.0451 C.2       16 UNK         0.5000 
     93 O          -6.0957  -20.5341  -49.9401 O.2       16 UNK        -0.5000 
     94 N          -6.2746  -22.6866  -49.2667 N.am      17 UNK        -0.5000 
     95 CA         -6.6610  -23.2774  -50.5506 C.3       17 UNK         0.1400 
     96 CB         -6.8497  -24.7909  -50.3710 C.3       17 UNK        -0.1800 
     97 C          -5.7030  -22.9947  -51.7254 C.2       17 UNK         0.5000 
     98 O          -6.1685  -22.8778  -52.8601 O.2       17 UNK        -0.5000 
     99 N          -4.3965  -22.8790  -51.4503 N.am      18 UNK        -0.5000 
    100 CA        -3.3774  -22.6079  -52.4652 C.3       18 UNK         0.1400 
    101 CB        -2.0300  -23.1952  -52.0192 C.3       18 UNK        -0.1800 
    102 C         -3.2326  -21.1109  -52.7921 C.2       18 UNK         0.5000 
    103 O         -2.6522  -20.7903  -53.8288 O.2       18 UNK        -0.5000 
    104 N         -3.7695  -20.2149  -51.9468 N.am      19 UNK        -0.5000 
    105 CA        -3.6695  -18.7542  -52.0940 C.3       19 UNK         0.1400 
    106 CB        -4.1708  -18.0700  -50.8136 C.3       19 UNK        -0.1800 
    107 C         -4.3990  -18.1822  -53.3274 C.2       19 UNK         0.5000 
    108 O         -4.1851  -17.0207  -53.6747 O.2       19 UNK        -0.5000 
    109 N         -5.2289  -19.0060  -53.9811 N.am      20 UNK        -0.5000 
    110 CA        -5.9118  -18.7077  -55.2393 C.3       20 UNK         0.1400 
    111 CB        -6.9293  -19.8252  -55.5172 C.3       20 UNK        -0.1800 
    112 C         -4.9625  -18.5306  -56.4448 C.2       20 UNK         0.5000 
    113 O         -5.3816  -17.9507  -57.4478 O.2       20 UNK        -0.5000 
    114 N         -3.7192  -19.0219  -56.3404 N.am      21 UNK        -0.5000 
    115 CA        -2.6910  -18.8868  -57.3735 C.3       21 UNK         0.1400 
    116 CB        -2.7784  -20.0642  -58.3606 C.3       21 UNK        -0.1800 
    117 C         -1.2814  -18.7693  -56.7729 C.2       21 UNK         0.5000 
    118 O         -0.5110  -17.9245  -57.2300 O.2       21 UNK        -0.5000 
    119 N         -0.9913  -19.6091  -55.7682 N.am      22 UNK        -0.5000 
    120 CA         0.2763  -19.7821  -55.0361 C.3       22 UNK         0.1400 
    121 C          1.5670  -19.9794  -55.8939 C.2       22 UNK         0.5000 
    122 N          2.7346  -20.0827  -55.2718 N.am      22 UNK        -0.7600 
    123 O          1.5301  -20.1248  -57.1134 O.2       22 UNK        -0.5000 
    124 C124        0.4195  -18.8258  -53.8139 C.3       23 UNK        -0.0398 
    125 S125        0.4470  -17.0322  -54.1641 S.3       23 UNK        -0.2404 
    126 C126        2.2222  -16.6268  -54.1180 C.3       23 UNK        -0.0205 
    127 H127        1.0570  -18.2435  -50.8925 H         1 UNK         0.0600 
    128 H128       -0.5369  -18.9689  -50.6551 H         1 UNK         0.0600 
    129 H129        0.5396  -18.7319  -49.2771 H         1 UNK         0.0600 
    130 H130        0.8664  -16.5928  -48.4242 H         1 UNK         0.3000 
    131 H131       -0.4393  -14.3145  -49.5780 H         1 UNK         0.0600 
    132 H132        0.7042  -13.8697  -46.8717 H         1 UNK         0.0800 
    133 H133        0.9462  -13.0218  -48.3492 H         1 UNK         0.0800 
    134 H134        2.4856  -13.6182  -50.1116 H         1 UNK         0.0800 
    135 H135        4.1256  -13.9293  -49.6060 H         1 UNK         0.0800 
    136 H136        2.1073  -14.7124  -52.1789 H         1 UNK         0.1150 
    137 H137        3.6689  -18.6251  -52.9549 H         1 UNK         0.1150 
    138 H138        4.3716  -16.7659  -49.1666 H         1 UNK         0.1150 
    139 H139        5.6233  -19.2785  -51.3166 H         1 UNK         0.0800 
    140 H140        5.3949  -18.8846  -49.6340 H         1 UNK         0.0800 
    141 H141        2.5412  -19.4898  -48.6041 H         1 UNK         0.0800 
    142 H142        4.0494  -20.1549  -48.0585 H         1 UNK         0.0800 
    143 H143        3.0619  -22.5045  -48.5570 H         1 UNK         0.0600 
    144 H144        2.3243  -20.8530  -46.2291 H         1 UNK         0.3000 
    145 H145        2.0899  -23.6540  -44.0897 H         1 UNK         0.0600 
    146 H146        3.8494  -22.5126  -42.7618 H         1 UNK         0.0600 
    147 H147        4.5696  -23.3467  -44.1304 H         1 UNK         0.0600 
    148 H148        4.3645  -21.5998  -44.1787 H         1 UNK         0.0600 
    149 H149        2.0660  -20.8894  -43.4894 H         1 UNK         0.3000 
    150 H150       -1.2541  -20.1452  -44.5535 H         1 UNK         0.0600 
    151 H151       -1.5868  -21.1716  -42.3239 H         1 UNK         0.0600 
    152 H152       -1.4427  -19.4262  -42.1745 H         1 UNK         0.0600 
    153 H153       -0.0851  -20.4625  -41.7431 H         1 UNK         0.0600 
    154 H154        0.6027  -18.5165  -43.2136 H         1 UNK         0.3000 
    155 H155        2.4231  -17.2991  -46.0555 H         1 UNK         0.0600 
    156 H156        1.5778  -15.2075  -44.9975 H         1 UNK         0.0600 
    157 H157        0.3532  -16.1186  -44.1243 H         1 UNK         0.0600 
    158 H158        0.2948  -16.0393  -45.8696 H         1 UNK         0.0600 
    159 H159        2.5175  -16.9261  -43.1725 H         1 UNK         0.3000 
    160 H160        5.1246  -19.2410  -42.5718 H         1 UNK         0.0600 
    161 H161        5.2676  -16.1771  -42.6546 H         1 UNK         0.0600 
    162 H162        6.3806  -17.2735  -43.4641 H         1 UNK         0.0600 
    163 H163        6.3122  -17.2390  -41.7095 H         1 UNK         0.0600 
    164 H164        3.8376  -17.2577  -40.9465 H         1 UNK         0.3000 
    165 H165        1.0765  -19.2640  -39.9127 H         1 UNK         0.0600 
    166 H166        2.0330  -18.7507  -37.6926 H         1 UNK         0.0600 
    167 H167        3.0088  -19.9722  -38.4920 H         1 UNK         0.0600 
    168 H168        3.5775  -18.3085  -38.4209 H         1 UNK         0.0600 
    169 H169        1.8048  -16.6683  -39.1056 H         1 UNK         0.3000 
    170 H170        0.0093  -15.0370  -39.7653 H         1 UNK         0.0600 
    171 H171        2.4455  -14.5253  -40.1633 H         1 UNK         0.0600 
    172 H172        2.1672  -14.4803  -41.9015 H         1 UNK         0.0600 
    173 H173        1.4441  -13.2620  -40.8548 H         1 UNK         0.0600 
    174 H174       -0.5494  -15.5666  -42.5376 H         1 UNK         0.3000 
    175 H175       -3.4009  -13.6806  -42.5862 H         1 UNK         0.0600 
    176 H176       -1.0445  -12.7093  -44.2891 H         1 UNK         0.0600 
    177 H177       -2.7529  -12.4768  -44.6560 H         1 UNK         0.0600 
    178 H178       -2.0414  -11.6903  -43.2559 H         1 UNK         0.0600 
    179 H179       -2.0884  -14.8780  -44.7911 H         1 UNK         0.3000 
    180 H180       -1.8710  -17.7163  -44.5445 H         1 UNK         0.0600 
    181 H181       -3.7667  -19.2610  -45.0518 H         1 UNK         0.0600 
    182 H182       -4.8857  -18.1514  -44.2599 H         1 UNK         0.0600 
    183 H183       -3.6270  -18.9502  -43.3315 H         1 UNK         0.0600 
    184 H184       -2.2751  -16.9159  -46.5633 H         1 UNK         0.3000 
    185 H185       -4.5017  -16.3128  -48.4978 H         1 UNK         0.0600 
    186 H186       -5.7924  -14.3309  -47.8080 H         1 UNK         0.0600 
    187 H187       -4.3210  -13.4661  -47.3841 H         1 UNK         0.0600 
    188 H188       -4.6570  -13.8766  -49.0658 H         1 UNK         0.0600 
    189 H189       -2.4287  -15.9622  -49.2453 H         1 UNK         0.3000 
    190 H190        0.3354  -20.5449  -47.3095 H         1 UNK         0.3000 
    191 H191       -1.3692  -20.9043  -49.5582 H         1 UNK         0.0600 
    192 H192       -3.0325  -19.7939  -48.1460 H         1 UNK         0.0600 
    193 H193       -1.4890  -19.0087  -47.8886 H         1 UNK         0.0600 
    194 H194       -2.1115  -20.1397  -46.6911 H         1 UNK         0.0600 
    195 H195       -0.8567  -22.9011  -46.7226 H         1 UNK         0.3000 
    196 H196       -1.4578  -24.9259  -46.1480 H         1 UNK         0.0600 
    197 H197       -3.0622  -25.2883  -48.7360 H         1 UNK         0.0600 
    198 H198       -1.3197  -25.5246  -48.6291 H         1 UNK         0.0600 
    199 H199       -2.3994  -26.5471  -47.7033 H         1 UNK         0.0600 
    200 H200       -3.7910  -26.3832  -46.2264 H         1 UNK         0.3000 
    201 H201       -5.3005  -25.2479  -44.1550 H         1 UNK         0.0600 
    202 H202       -5.9859  -27.5487  -46.0645 H         1 UNK         0.0600 
    203 H203       -6.7970  -27.2208  -44.5382 H         1 UNK         0.0600 
    204 H204       -5.1040  -27.6888  -44.5428 H         1 UNK         0.0600 
    205 H205       -7.0156  -23.9510  -44.0749 H         1 UNK         0.3000 
    206 H206       -8.5765  -22.4753  -44.5653 H         1 UNK         0.0600 
    207 H207       -9.8704  -24.5283  -45.2203 H         1 UNK         0.0600 
    208 H208      -10.3883  -23.1057  -46.1071 H         1 UNK         0.0600 
    209 H209       -9.3695  -24.3012  -46.8956 H         1 UNK         0.0600 
    210 H210       -5.8958  -22.3410  -46.0269 H         1 UNK         0.3000 
    211 H211       -4.7478  -21.1174  -47.4042 H         1 UNK         0.0600 
    212 H212       -5.4215  -18.8232  -47.9551 H         1 UNK         0.0600 
    213 H213       -5.9175  -19.1694  -46.3075 H         1 UNK         0.0600 
    214 H214       -7.1069  -19.1747  -47.6055 H         1 UNK         0.0600 
    215 H215       -6.2419  -23.3216  -48.4772 H         1 UNK         0.3000 
    216 H216       -7.6279  -22.8477  -50.8195 H         1 UNK         0.0600 
    217 H217       -5.9368  -25.2680  -50.0118 H         1 UNK         0.0600 
    218 H218       -7.1246  -25.2692  -51.3121 H         1 UNK         0.0600 
    219 H219       -7.6440  -25.0060  -49.6561 H         1 UNK         0.0600 
    220 H220       -4.0770  -22.9391  -50.4850 H         1 UNK         0.3000 
    221 H221       -3.6597  -23.1139  -53.3910 H         1 UNK         0.0600 
    222 H222       -1.2950  -23.1322  -52.8225 H         1 UNK         0.0600 
    223 H223       -2.1246  -24.2463  -51.7463 H         1 UNK         0.0600 
    224 H224       -1.6160  -22.6628  -51.1649 H         1 UNK         0.0600 
    225 H225       -4.3176  -20.5506  -51.1631 H         1 UNK         0.3000 
    226 H226       -2.6128  -18.5085  -52.2117 H         1 UNK         0.0600 
    227 H227       -3.6394  -18.4323  -49.9354 H         1 UNK         0.0600 
    228 H228       -4.0113  -16.9925  -50.8664 H         1 UNK         0.0600 
    229 H229       -5.2380  -18.2275  -50.6607 H         1 UNK         0.0600 
    230 H230       -5.3510  -19.9382  -53.6126 H         1 UNK         0.3000 
    231 H231       -6.4562  -17.7698  -55.1123 H         1 UNK         0.0600 
    232 H232       -6.4406  -20.7940  -55.6296 H         1 UNK         0.0600 
    233 H233       -7.4866  -19.6295  -56.4342 H         1 UNK         0.0600 
    234 H234       -7.6558  -19.9082  -54.7086 H         1 UNK         0.0600 
    235 H235       -3.4419  -19.4554  -55.4689 H         1 UNK         0.3000 
    236 H236       -2.8647  -17.9634  -57.9308 H         1 UNK         0.0600 
    237 H237       -3.7396  -20.0779  -58.8745 H         1 UNK         0.0600 
    238 H238       -2.0026  -19.9924  -59.1240 H         1 UNK         0.0600 
    239 H239       -2.6552  -21.0223  -57.8545 H         1 UNK         0.0600 
    240 H240       -1.7158  -20.2402  -55.4460 H         1 UNK         0.3000 
    241 H241        0.1479  -20.7737  -54.6001 H         1 UNK         0.0600 
    242 H242        3.5615  -20.2429  -55.8260 H         1 UNK         0.3800 
    243 H243        2.8084  -20.0700  -54.2689 H         1 UNK         0.3800 
    244 H244        1.2794  -19.0990  -53.2057 H         1 UNK         0.0800 
    245 H245       -0.4358  -18.9903  -53.1588 H         1 UNK         0.0800 
    246 H246        2.7683  -17.2952  -54.7845 H         1 UNK         0.0800 
    247 H247        2.3575  -15.6246  -54.5269 H         1 UNK         0.0800 
@<TRIPOS>BOND
     1    1    2 1    
     2    1  127 1    
     3    1  128 1    
     4    1  129 1    
     5    2    3 2    
     6    2    4 am   BACKBONE|DICT|INTERRES
     7    4    5 1    
     8    4  130 1    
     9    5    6 1    
    10    5   65 1    
    11    5  131 1    
    12    6    7 1    
    13    6  132 1    
    14    6  133 1    
    15    7    8 1    
    16    8    9 1    
    17    8  134 1    
    18    8  135 1    
    19    9   10 ar   
    20    9   14 ar   
    21   10   11 ar   
    22   10  136 1    
    23   11   12 ar   
    24   11  126 1    
    25   12   13 ar   
    26   12  137 1    
    27   13   14 ar   
    28   13   15 1    
    29   14  138 1    
    30   15   16 1    
    31   15  139 1    
    32   15  140 1    
    33   16   17 1    
    34   17   18 1    
    35   17  141 1    
    36   17  142 1    
    37   18   19 1    
    38   18   67 1    
    39   18  143 1    
    40   19   20 am   BACKBONE|DICT|INTERRES
    41   19  144 1    
    42   20   21 2    
    43   20   22 1    
    44   22   23 1    
    45   22   24 1    
    46   22  145 1    
    47   23  146 1    
    48   23  147 1    
    49   23  148 1    
    50   24   25 am   BACKBONE|DICT|INTERRES
    51   24  149 1    
    52   25   26 2    
    53   25   27 1    
    54   27   28 1    
    55   27   29 1    
    56   27  150 1    
    57   28  151 1    
    58   28  152 1    
    59   28  153 1    
    60   29   30 am   BACKBONE|DICT|INTERRES
    61   29  154 1    
    62   30   31 2    
    63   30   32 1    
    64   32   33 1    
    65   32   34 1    
    66   32  155 1    
    67   33  156 1    
    68   33  157 1    
    69   33  158 1    
    70   34   35 am   BACKBONE|DICT|INTERRES
    71   34  159 1    
    72   35   36 2    
    73   35   37 1    
    74   37   38 1    
    75   37   39 1    
    76   37  160 1    
    77   38  161 1    
    78   38  162 1    
    79   38  163 1    
    80   39   40 am   BACKBONE|DICT|INTERRES
    81   39  164 1    
    82   40   41 2    
    83   40   42 1    
    84   42   43 1    
    85   42   44 1    
    86   42  165 1    
    87   43  166 1    
    88   43  167 1    
    89   43  168 1    
    90   44   45 am   BACKBONE|DICT|INTERRES
    91   44  169 1    
    92   45   46 2    
    93   45   47 1    
    94   47   48 1    
    95   47   49 1    
    96   47  170 1    
    97   48  171 1    
    98   48  172 1    
    99   48  173 1    
   100   49   50 am   BACKBONE|DICT|INTERRES
   101   49  174 1    
   102   50   51 2    
   103   50   52 1    
   104   52   53 1    
   105   52   54 1    
   106   52  175 1    
   107   53  176 1    
   108   53  177 1    
   109   53  178 1    
   110   54   55 am   BACKBONE|DICT|INTERRES
   111   54  179 1    
   112   55   56 2    
   113   55   57 1    
   114   57   58 1    
   115   57   59 1    
   116   57  180 1    
   117   58  181 1    
   118   58  182 1    
   119   58  183 1    
   120   59   60 am   BACKBONE|DICT|INTERRES
   121   59  184 1    
   122   60   61 2    
   123   60   62 1    
   124   62   63 1    
   125   62   64 1    
   126   62  185 1    
   127   63  186 1    
   128   63  187 1    
   129   63  188 1    
   130   64   65 am   BACKBONE|DICT|INTERRES
   131   64  189 1    
   132   65   66 2    
   133   67   68 2    
   134   67   69 am   BACKBONE|DICT|INTERRES
   135   69   70 1    
   136   69  190 1    
   137   70   71 1    
   138   70   72 1    
   139   70  191 1    
   140   71  192 1    
   141   71  193 1    
   142   71  194 1    
   143   72   73 2    
   144   72   74 am   BACKBONE|DICT|INTERRES
   145   74   75 1    
   146   74  195 1    
   147   75   76 1    
   148   75   77 1    
   149   75  196 1    
   150   76  197 1    
   151   76  198 1    
   152   76  199 1    
   153   77   78 2    
   154   77   79 am   BACKBONE|DICT|INTERRES
   155   79   80 1    
   156   79  200 1    
   157   80   81 1    
   158   80   82 1    
   159   80  201 1    
   160   81  202 1    
   161   81  203 1    
   162   81  204 1    
   163   82   83 2    
   164   82   84 am   BACKBONE|DICT|INTERRES
   165   84   85 1    
   166   84  205 1    
   167   85   86 1    
   168   85   87 1    
   169   85  206 1    
   170   86  207 1    
   171   86  208 1    
   172   86  209 1    
   173   87   88 2    
   174   87   89 am   BACKBONE|DICT|INTERRES
   175   89   90 1    
   176   89  210 1    
   177   90   91 1    
   178   90   92 1    
   179   90  211 1    
   180   91  212 1    
   181   91  213 1    
   182   91  214 1    
   183   92   93 2    
   184   92   94 am   BACKBONE|DICT|INTERRES
   185   94   95 1    
   186   94  215 1    
   187   95   96 1    
   188   95   97 1    
   189   95  216 1    
   190   96  217 1    
   191   96  218 1    
   192   96  219 1    
   193   97   98 2    
   194   97   99 am   BACKBONE|DICT|INTERRES
   195   99  100 1    
   196   99  220 1    
   197  100  101 1    
   198  100  102 1    
   199  100  221 1    
   200  101  222 1    
   201  101  223 1    
   202  101  224 1    
   203  102  103 2    
   204  102  104 am   BACKBONE|DICT|INTERRES
   205  104  105 1    
   206  104  225 1    
   207  105  106 1    
   208  105  107 1    
   209  105  226 1    
   210  106  227 1    
   211  106  228 1    
   212  106  229 1    
   213  107  108 2    
   214  107  109 am   BACKBONE|DICT|INTERRES
   215  109  110 1    
   216  109  230 1    
   217  110  111 1    
   218  110  112 1    
   219  110  231 1    
   220  111  232 1    
   221  111  233 1    
   222  111  234 1    
   223  112  113 2    
   224  112  114 am   BACKBONE|DICT|INTERRES
   225  114  115 1    
   226  114  235 1    
   227  115  116 1    
   228  115  117 1    
   229  115  236 1    
   230  116  237 1    
   231  116  238 1    
   232  116  239 1    
   233  117  118 2    
   234  117  119 am   BACKBONE|DICT|INTERRES
   235  119  120 1    
   236  119  240 1    
   237  120  121 1    
   238  120  124 1    
   239  120  241 1    
   240  121  122 am   BACKBONE|DICT|INTERRES
   241  121  123 2    
   242  122  242 1    
   243  122  243 1    
   244  124  125 1    
   245  124  244 1    
   246  124  245 1    
   247  125  126 1    
   248  126  246 1    
   249  126  247 1    
@<TRIPOS>SUBSTRUCTURE
     1 UNK         1 GROUP             0       ****    0 ROOT    
