@<TRIPOS>MOLECULE
3R540
247   249    1
SMALL
USER_CHARGES


@<TRIPOS>ATOM
      1 CA          2.4385  -13.3004  -50.1975 C.3       0 UNK        -0.1800 
      2 C           3.5443  -13.0137  -49.1937 C.2       0 UNK         0.5000 
      3 O           3.7120  -11.8650  -48.7854 O.2       0 UNK        -0.5000 
      4 N           4.2842  -14.0538  -48.7842 N.am      1 UNK        -0.5000 
      5 CA          5.4569  -13.9992  -47.8947 C.3       1 UNK         0.1400 
      6 C6          6.0646  -15.4026  -47.6561 C.3       23 UNK        -0.0398 
      7 S7          6.6944  -16.1791  -49.1835 S.3       23 UNK        -0.2404 
      8 C8          5.6903  -17.6937  -49.2980 C.3       23 UNK        -0.0205 
      9 C9          4.4326  -17.4774  -50.1245 C.ar      23 UNK        -0.0193 
     10 C10         4.4656  -17.6915  -51.5066 C.ar      23 UNK        -0.1150 
     11 C11         3.3107  -17.5316  -52.2761 C.ar      23 UNK        -0.0193 
     12 C12         2.1238  -17.1361  -51.6581 C.ar      23 UNK        -0.1150 
     13 C13         2.0734  -16.9304  -50.2784 C.ar      23 UNK        -0.0193 
     14 C14         3.2325  -17.0987  -49.5134 C.ar      23 UNK        -0.1150 
     15 C15         0.7540  -16.5431  -49.6307 C.3       23 UNK        -0.0205 
     16 S16        -0.4148  -17.9378  -49.6253 S.3       23 UNK        -0.2404 
     17 C17         0.2873  -18.9795  -48.3077 C.3       23 UNK        -0.0398 
     18 CA          0.1854  -20.5023  -48.5418 C.3       11 UNK         0.1400 
     19 N           0.9340  -21.1910  -47.4899 N.am      11 UNK        -0.5000 
     20 C           1.0917  -22.5103  -47.3305 C.2       10 UNK         0.5000 
     21 O           0.6575  -23.3622  -48.1027 O.2       10 UNK        -0.5000 
     22 CA          1.8165  -22.9380  -46.0410 C.3       10 UNK         0.1400 
     23 CB          3.3351  -22.9779  -46.2641 C.3       10 UNK        -0.1800 
     24 N           1.5191  -22.0575  -44.9069 N.am      10 UNK        -0.5000 
     25 C           0.3052  -21.8491  -44.3804 C.2       9 UNK         0.5000 
     26 O          -0.7195  -22.3929  -44.7934 O.2       9 UNK        -0.5000 
     27 CA          0.2075  -20.8246  -43.2393 C.3       9 UNK         0.1400 
     28 CB          0.8447  -21.3504  -41.9397 C.3       9 UNK        -0.1800 
     29 N           0.7152  -19.4962  -43.5969 N.am      9 UNK        -0.5000 
     30 C           1.9694  -19.0887  -43.8403 C.2       8 UNK         0.5000 
     31 O           2.9469  -19.8373  -43.8605 O.2       8 UNK        -0.5000 
     32 CA          2.1624  -17.5801  -44.0991 C.3       8 UNK         0.1400 
     33 CB          2.1324  -17.2652  -45.6019 C.3       8 UNK        -0.1800 
     34 N           1.1580  -16.7600  -43.4190 N.am      8 UNK        -0.5000 
     35 C           1.1162  -16.5635  -42.0928 C.2       7 UNK         0.5000 
     36 O           1.9663  -16.9844  -41.3078 O.2       7 UNK        -0.5000 
     37 CA         -0.1005  -15.7938  -41.5530 C.3       7 UNK         0.1400 
     38 CB          0.1135  -14.2770  -41.6695 C.3       7 UNK        -0.1800 
     39 N          -1.3314  -16.1784  -42.2462 N.am      7 UNK        -0.5000 
     40 C          -1.9784  -17.3365  -42.0442 C.2       6 UNK         0.5000 
     41 O          -1.6359  -18.1750  -41.2109 O.2       6 UNK        -0.5000 
     42 CA         -3.2034  -17.6188  -42.9344 C.3       6 UNK         0.1400 
     43 CB         -4.4875  -17.1125  -42.2609 C.3       6 UNK        -0.1800 
     44 N          -3.0906  -17.0176  -44.2632 N.am      6 UNK        -0.5000 
     45 C          -2.2535  -17.4409  -45.2195 C.2       5 UNK         0.5000 
     46 O          -1.5042  -18.4092  -45.0969 O.2       5 UNK        -0.5000 
     47 CA         -2.2226  -16.6173  -46.5178 C.3       5 UNK         0.1400 
     48 CB         -3.2625  -17.1449  -47.5146 C.3       5 UNK        -0.1800 
     49 N          -2.4361  -15.1860  -46.2983 N.am      5 UNK        -0.5000 
     50 C          -1.5786  -14.3921  -45.6456 C.2       4 UNK         0.5000 
     51 O          -0.5348  -14.7953  -45.1234 O.2       4 UNK        -0.5000 
     52 CA         -1.9879  -12.9183  -45.5081 C.3       4 UNK         0.1400 
     53 CB         -2.5812  -12.6527  -44.1166 C.3       4 UNK        -0.1800 
     54 N          -0.8331  -12.0510  -45.7078 N.am      4 UNK        -0.5000 
     55 C          -0.3874  -11.6263  -46.8944 C.2       3 UNK         0.5000 
     56 O          -0.9485  -11.8728  -47.9625 O.2       3 UNK        -0.5000 
     57 CA          0.9114  -10.7970  -46.8952 C.3       3 UNK         0.1400 
     58 CB          0.7087   -9.4131  -46.2478 C.3       3 UNK        -0.1800 
     59 N           2.0591  -11.5081  -46.3199 N.am      3 UNK        -0.5000 
     60 C           2.2563  -11.9147  -45.0556 C.2       2 UNK         0.5000 
     61 O           1.4833  -11.6644  -44.1292 O.2       2 UNK        -0.5000 
     62 CA          3.5114  -12.7686  -44.7889 C.3       2 UNK         0.1400 
     63 CB          3.2528  -13.8468  -43.7244 C.3       2 UNK        -0.1800 
     64 N           3.9725  -13.4202  -46.0173 N.am      2 UNK        -0.5000 
     65 C           5.2021  -13.3097  -46.5344 C.2       1 UNK         0.5000 
     66 O           6.1190  -12.6891  -45.9944 O.2       1 UNK        -0.5000 
     67 C          -1.2847  -20.9714  -48.6074 C.2       11 UNK         0.5000 
     68 O          -1.7804  -21.2833  -49.6912 O.2       11 UNK        -0.5000 
     69 N          -1.9415  -21.0333  -47.4403 N.am      12 UNK        -0.5000 
     70 CA         -3.3061  -21.5301  -47.2972 C.3       12 UNK         0.1400 
     71 CB         -3.8991  -21.0306  -45.9706 C.3       12 UNK        -0.1800 
     72 C          -3.3602  -23.0633  -47.3837 C.2       12 UNK         0.5000 
     73 O          -4.2052  -23.5976  -48.1011 O.2       12 UNK        -0.5000 
     74 N          -2.4528  -23.7467  -46.6699 N.am      13 UNK        -0.5000 
     75 CA         -2.3940  -25.2084  -46.5678 C.3       13 UNK         0.1400 
     76 CB         -1.3091  -25.6143  -45.5616 C.3       13 UNK        -0.1800 
     77 C          -2.1757  -25.9221  -47.9144 C.2       13 UNK         0.5000 
     78 O          -2.7785  -26.9706  -48.1447 O.2       13 UNK        -0.5000 
     79 N          -1.3767  -25.3186  -48.8052 N.am      14 UNK        -0.5000 
     80 CA         -1.1499  -25.7829  -50.1776 C.3       14 UNK         0.1400 
     81 CB         -0.0097  -24.9641  -50.7996 C.3       14 UNK        -0.1800 
     82 C          -2.4079  -25.7356  -51.0717 C.2       14 UNK         0.5000 
     83 O          -2.4608  -26.4486  -52.0740 O.2       14 UNK        -0.5000 
     84 N          -3.4007  -24.9264  -50.6820 N.am      15 UNK        -0.5000 
     85 CA         -4.7213  -24.8273  -51.3013 C.3       15 UNK         0.1400 
     86 CB         -4.9932  -23.3485  -51.6167 C.3       15 UNK        -0.1800 
     87 C          -5.8140  -25.4333  -50.3940 C.2       15 UNK         0.5000 
     88 O          -6.9918  -25.1119  -50.5625 O.2       15 UNK        -0.5000 
     89 N          -5.4112  -26.2738  -49.4251 N.am      16 UNK        -0.5000 
     90 CA         -6.2424  -26.9887  -48.4462 C.3       16 UNK         0.1400 
     91 CB         -7.0869  -28.0667  -49.1568 C.3       16 UNK        -0.1800 
     92 C          -7.1014  -26.0694  -47.5486 C.2       16 UNK         0.5000 
     93 O          -8.1293  -26.5085  -47.0310 O.2       16 UNK        -0.5000 
     94 N          -6.6820  -24.8027  -47.4087 N.am      17 UNK        -0.5000 
     95 CA         -7.3737  -23.6853  -46.7576 C.3       17 UNK         0.1400 
     96 CB         -7.5189  -23.9322  -45.2425 C.3       17 UNK        -0.1800 
     97 C          -8.7083  -23.2837  -47.4281 C.2       17 UNK         0.5000 
     98 O          -9.4615  -22.4990  -46.8493 O.2       17 UNK        -0.5000 
     99 N          -8.9753  -23.7929  -48.6400 N.am      18 UNK        -0.5000 
    100 CA       -10.1433  -23.4447  -49.4522 C.3       18 UNK         0.1400 
    101 CB       -10.4713  -24.6236  -50.3815 C.3       18 UNK        -0.1800 
    102 C         -9.9114  -22.1597  -50.2693 C.2       18 UNK         0.5000 
    103 O        -10.8764  -21.5183  -50.6870 O.2       18 UNK        -0.5000 
    104 N         -8.6383  -21.8083  -50.4712 N.am      19 UNK        -0.5000 
    105 CA        -8.1525  -20.6095  -51.1393 C.3       19 UNK         0.1400 
    106 CB        -8.2463  -20.7787  -52.6717 C.3       19 UNK        -0.1800 
    107 C         -6.7257  -20.3415  -50.6263 C.2       19 UNK         0.5000 
    108 O         -6.4093  -20.7103  -49.4917 O.2       19 UNK        -0.5000 
    109 N         -5.8839  -19.7348  -51.4666 N.am      20 UNK        -0.5000 
    110 CA        -4.4611  -19.5265  -51.2297 C.3       20 UNK         0.1400 
    111 CB        -4.2212  -18.0544  -50.8659 C.3       20 UNK        -0.1800 
    112 C         -3.7095  -19.9067  -52.5110 C.2       20 UNK         0.5000 
    113 O         -4.1771  -19.5825  -53.6064 O.2       20 UNK        -0.5000 
    114 N         -2.5725  -20.5903  -52.3575 N.am      21 UNK        -0.5000 
    115 CA        -1.6833  -20.9696  -53.4532 C.3       21 UNK         0.1400 
    116 CB        -0.7914  -22.1258  -52.9797 C.3       21 UNK        -0.1800 
    117 C         -0.8239  -19.7808  -53.9210 C.2       21 UNK         0.5000 
    118 O         -0.5710  -18.8680  -53.1334 O.2       21 UNK        -0.5000 
    119 N         -0.3881  -19.8390  -55.1881 N.am      22 UNK        -0.5000 
    120 CA         0.5349  -18.9443  -55.9275 C.3       22 UNK         0.1400 
    121 C          0.3204  -17.3974  -55.8775 C.2       22 UNK         0.5000 
    122 N         -0.4915  -16.8493  -54.9886 N.am      22 UNK        -0.7600 
    123 O          0.8828  -16.6788  -56.6996 O.2       22 UNK        -0.5000 
    124 C124        2.0359  -19.3425  -55.7858 C.3       23 UNK        -0.0398 
    125 S125        2.6621  -19.4903  -54.0777 S.3       23 UNK        -0.2404 
    126 C126        3.3180  -17.8224  -53.7666 C.3       23 UNK        -0.0205 
    127 H127        2.3377  -12.4698  -50.8961 H         1 UNK         0.0600 
    128 H128        2.6494  -14.1984  -50.7773 H         1 UNK         0.0600 
    129 H129        1.4869  -13.4304  -49.6822 H         1 UNK         0.0600 
    130 H130        4.1048  -14.9614  -49.1912 H         1 UNK         0.3000 
    131 H131        6.2050  -13.3923  -48.4091 H         1 UNK         0.0600 
    132 H132        5.3355  -16.0547  -47.1727 H         1 UNK         0.0800 
    133 H133        6.9103  -15.3397  -46.9682 H         1 UNK         0.0800 
    134 H134        6.2976  -18.4728  -49.7614 H         1 UNK         0.0800 
    135 H135        5.4404  -18.0690  -48.3046 H         1 UNK         0.0800 
    136 H136        5.3864  -18.0020  -51.9804 H         1 UNK         0.1150 
    137 H137        1.2242  -17.0267  -52.2485 H         1 UNK         0.1150 
    138 H138        3.1981  -16.9505  -48.4437 H         1 UNK         0.1150 
    139 H139        0.9032  -16.1795  -48.6126 H         1 UNK         0.0800 
    140 H140        0.3098  -15.7183  -50.1896 H         1 UNK         0.0800 
    141 H141       -0.1967  -18.7158  -47.3695 H         1 UNK         0.0800 
    142 H142        1.3371  -18.7144  -48.1867 H         1 UNK         0.0800 
    143 H143        0.6585  -20.7443  -49.4959 H         1 UNK         0.0600 
    144 H144        1.3327  -20.6026  -46.7747 H         1 UNK         0.3000 
    145 H145        1.4833  -23.9433  -45.7824 H         1 UNK         0.0600 
    146 H146        3.8529  -23.3531  -45.3812 H         1 UNK         0.0600 
    147 H147        3.5908  -23.6371  -47.0949 H         1 UNK         0.0600 
    148 H148        3.7356  -21.9892  -46.4923 H         1 UNK         0.0600 
    149 H149        2.2890  -21.5146  -44.5250 H         1 UNK         0.3000 
    150 H150       -0.8562  -20.6816  -43.0411 H         1 UNK         0.0600 
    151 H151        0.3888  -22.2943  -41.6389 H         1 UNK         0.0600 
    152 H152        0.7008  -20.6443  -41.1216 H         1 UNK         0.0600 
    153 H153        1.9154  -21.5258  -42.0459 H         1 UNK         0.0600 
    154 H154       -0.0146  -18.8061  -43.7320 H         1 UNK         0.3000 
    155 H155        3.1485  -17.3082  -43.7166 H         1 UNK         0.0600 
    156 H156        2.4466  -16.2395  -45.7939 H         1 UNK         0.0600 
    157 H157        1.1305  -17.3833  -46.0113 H         1 UNK         0.0600 
    158 H158        2.8048  -17.9207  -46.1566 H         1 UNK         0.0600 
    159 H159        0.4511  -16.3212  -43.9982 H         1 UNK         0.3000 
    160 H160       -0.2083  -16.0369  -40.4937 H         1 UNK         0.0600 
    161 H161        0.2431  -13.9610  -42.7046 H         1 UNK         0.0600 
    162 H162        1.0052  -13.9681  -41.1228 H         1 UNK         0.0600 
    163 H163       -0.7290  -13.7264  -41.2512 H         1 UNK         0.0600 
    164 H164       -1.6556  -15.5596  -42.9740 H         1 UNK         0.3000 
    165 H165       -3.2839  -18.7017  -43.0543 H         1 UNK         0.0600 
    166 H166       -4.4746  -16.0297  -42.1298 H         1 UNK         0.0600 
    167 H167       -5.3687  -17.3699  -42.8487 H         1 UNK         0.0600 
    168 H168       -4.6139  -17.5612  -41.2747 H         1 UNK         0.0600 
    169 H169       -3.6764  -16.2184  -44.4541 H         1 UNK         0.3000 
    170 H170       -1.2323  -16.7297  -46.9592 H         1 UNK         0.0600 
    171 H171       -3.0886  -18.1977  -47.7421 H         1 UNK         0.0600 
    172 H172       -4.2788  -17.0541  -47.1296 H         1 UNK         0.0600 
    173 H173       -3.2082  -16.5976  -48.4554 H         1 UNK         0.0600 
    174 H174       -3.2752  -14.7875  -46.6949 H         1 UNK         0.3000 
    175 H175       -2.7493  -12.6848  -46.2555 H         1 UNK         0.0600 
    176 H176       -2.9228  -11.6213  -44.0275 H         1 UNK         0.0600 
    177 H177       -3.4404  -13.2966  -43.9246 H         1 UNK         0.0600 
    178 H178       -1.8526  -12.8294  -43.3258 H         1 UNK         0.0600 
    179 H179       -0.2381  -11.8833  -44.9008 H         1 UNK         0.3000 
    180 H180        1.1714  -10.6263  -47.9412 H         1 UNK         0.0600 
    181 H181        0.4320   -9.4840  -45.1958 H         1 UNK         0.0600 
    182 H182       -0.0847   -8.8623  -46.7542 H         1 UNK         0.0600 
    183 H183        1.6154   -8.8119  -46.3153 H         1 UNK         0.0600 
    184 H184        2.7766  -11.7414  -46.9992 H         1 UNK         0.3000 
    185 H185        4.2717  -12.0854  -44.4057 H         1 UNK         0.0600 
    186 H186        4.1249  -14.4844  -43.5799 H         1 UNK         0.0600 
    187 H187        3.0124  -13.4001  -42.7592 H         1 UNK         0.0600 
    188 H188        2.4151  -14.4791  -44.0123 H         1 UNK         0.0600 
    189 H189        3.2769  -13.9365  -46.5364 H         1 UNK         0.3000 
    190 H190       -1.4570  -20.7955  -46.5861 H         1 UNK         0.3000 
    191 H191       -3.9156  -21.1280  -48.1094 H         1 UNK         0.0600 
    192 H192       -3.9512  -19.9423  -45.9493 H         1 UNK         0.0600 
    193 H193       -4.9136  -21.4051  -45.8298 H         1 UNK         0.0600 
    194 H194       -3.3070  -21.3528  -45.1133 H         1 UNK         0.0600 
    195 H195       -1.7980  -23.2282  -46.0892 H         1 UNK         0.3000 
    196 H196       -3.3577  -25.5410  -46.1763 H         1 UNK         0.0600 
    197 H197       -1.3065  -26.6938  -45.4054 H         1 UNK         0.0600 
    198 H198       -1.4715  -25.1452  -44.5910 H         1 UNK         0.0600 
    199 H199       -0.3171  -25.3327  -45.9112 H         1 UNK         0.0600 
    200 H200       -0.8718  -24.4815  -48.5255 H         1 UNK         0.3000 
    201 H201       -0.8313  -26.8261  -50.1301 H         1 UNK         0.0600 
    202 H202        0.9306  -25.1443  -50.2784 H         1 UNK         0.0600 
    203 H203       -0.2160  -23.8950  -50.7483 H         1 UNK         0.0600 
    204 H204        0.1447  -25.2250  -51.8475 H         1 UNK         0.0600 
    205 H205       -3.2867  -24.3957  -49.8256 H         1 UNK         0.3000 
    206 H206       -4.7500  -25.3844  -52.2393 H         1 UNK         0.0600 
    207 H207       -4.2536  -22.9591  -52.3157 H         1 UNK         0.0600 
    208 H208       -5.9731  -23.2096  -52.0738 H         1 UNK         0.0600 
    209 H209       -4.9539  -22.7391  -50.7138 H         1 UNK         0.0600 
    210 H210       -4.4163  -26.4448  -49.3330 H         1 UNK         0.3000 
    211 H211       -5.5499  -27.4991  -47.7758 H         1 UNK         0.0600 
    212 H212       -7.8496  -27.6238  -49.7982 H         1 UNK         0.0600 
    213 H213       -7.5969  -28.7065  -48.4358 H         1 UNK         0.0600 
    214 H214       -6.4626  -28.7124  -49.7743 H         1 UNK         0.0600 
    215 H215       -5.8085  -24.5426  -47.8617 H         1 UNK         0.3000 
    216 H216       -6.7170  -22.8238  -46.8853 H         1 UNK         0.0600 
    217 H217       -6.5602  -24.1909  -44.7927 H         1 UNK         0.0600 
    218 H218       -8.2205  -24.7384  -45.0276 H         1 UNK         0.0600 
    219 H219       -7.8834  -23.0395  -44.7332 H         1 UNK         0.0600 
    220 H220       -8.2987  -24.4136  -49.0715 H         1 UNK         0.3000 
    221 H221      -11.0022  -23.2772  -48.7990 H         1 UNK         0.0600 
    222 H222       -9.6604  -24.8217  -51.0834 H         1 UNK         0.0600 
    223 H223      -10.6522  -25.5358  -49.8126 H         1 UNK         0.0600 
    224 H224      -11.3691  -24.4208  -50.9667 H         1 UNK         0.0600 
    225 H225       -7.9149  -22.3625  -50.0323 H         1 UNK         0.3000 
    226 H226       -8.7686  -19.7614  -50.8345 H         1 UNK         0.0600 
    227 H227       -9.2607  -21.0305  -52.9809 H         1 UNK         0.0600 
    228 H228       -7.9806  -19.8583  -53.1924 H         1 UNK         0.0600 
    229 H229       -7.5867  -21.5695  -53.0306 H         1 UNK         0.0600 
    230 H230       -6.1887  -19.5159  -52.4060 H         1 UNK         0.3000 
    231 H231       -4.1108  -20.1608  -50.4133 H         1 UNK         0.0600 
    232 H232       -3.1639  -17.8677  -50.6812 H         1 UNK         0.0600 
    233 H233       -4.7690  -17.7809  -49.9646 H         1 UNK         0.0600 
    234 H234       -4.5378  -17.3843  -51.6660 H         1 UNK         0.0600 
    235 H235       -2.2414  -20.7988  -51.4175 H         1 UNK         0.3000 
    236 H236       -2.2882  -21.3195  -54.2925 H         1 UNK         0.0600 
    237 H237       -0.1199  -22.4580  -53.7722 H         1 UNK         0.0600 
    238 H238       -0.1754  -21.8316  -52.1286 H         1 UNK         0.0600 
    239 H239       -1.3934  -22.9843  -52.6813 H         1 UNK         0.0600 
    240 H240       -0.6984  -20.6304  -55.7328 H         1 UNK         0.3000 
    241 H241        0.2838  -19.1684  -56.9652 H         1 UNK         0.0600 
    242 H242       -0.8294  -17.4340  -54.2282 H         1 UNK         0.3800 
    243 H243       -0.6346  -15.8526  -54.9748 H         1 UNK         0.3800 
    244 H244        2.1778  -20.3193  -56.2494 H         1 UNK         0.0800 
    245 H245        2.6821  -18.6687  -56.3513 H         1 UNK         0.0800 
    246 H246        2.7141  -17.0740  -54.2803 H         1 UNK         0.0800 
    247 H247        4.3263  -17.7437  -54.1754 H         1 UNK         0.0800 
@<TRIPOS>BOND
     1    1    2 1    
     2    1  127 1    
     3    1  128 1    
     4    1  129 1    
     5    2    3 2    
     6    2    4 am   BACKBONE|DICT|INTERRES
     7    4    5 1    
     8    4  130 1    
     9    5    6 1    
    10    5   65 1    
    11    5  131 1    
    12    6    7 1    
    13    6  132 1    
    14    6  133 1    
    15    7    8 1    
    16    8    9 1    
    17    8  134 1    
    18    8  135 1    
    19    9   10 ar   
    20    9   14 ar   
    21   10   11 ar   
    22   10  136 1    
    23   11   12 ar   
    24   11  126 1    
    25   12   13 ar   
    26   12  137 1    
    27   13   14 ar   
    28   13   15 1    
    29   14  138 1    
    30   15   16 1    
    31   15  139 1    
    32   15  140 1    
    33   16   17 1    
    34   17   18 1    
    35   17  141 1    
    36   17  142 1    
    37   18   19 1    
    38   18   67 1    
    39   18  143 1    
    40   19   20 am   BACKBONE|DICT|INTERRES
    41   19  144 1    
    42   20   21 2    
    43   20   22 1    
    44   22   23 1    
    45   22   24 1    
    46   22  145 1    
    47   23  146 1    
    48   23  147 1    
    49   23  148 1    
    50   24   25 am   BACKBONE|DICT|INTERRES
    51   24  149 1    
    52   25   26 2    
    53   25   27 1    
    54   27   28 1    
    55   27   29 1    
    56   27  150 1    
    57   28  151 1    
    58   28  152 1    
    59   28  153 1    
    60   29   30 am   BACKBONE|DICT|INTERRES
    61   29  154 1    
    62   30   31 2    
    63   30   32 1    
    64   32   33 1    
    65   32   34 1    
    66   32  155 1    
    67   33  156 1    
    68   33  157 1    
    69   33  158 1    
    70   34   35 am   BACKBONE|DICT|INTERRES
    71   34  159 1    
    72   35   36 2    
    73   35   37 1    
    74   37   38 1    
    75   37   39 1    
    76   37  160 1    
    77   38  161 1    
    78   38  162 1    
    79   38  163 1    
    80   39   40 am   BACKBONE|DICT|INTERRES
    81   39  164 1    
    82   40   41 2    
    83   40   42 1    
    84   42   43 1    
    85   42   44 1    
    86   42  165 1    
    87   43  166 1    
    88   43  167 1    
    89   43  168 1    
    90   44   45 am   BACKBONE|DICT|INTERRES
    91   44  169 1    
    92   45   46 2    
    93   45   47 1    
    94   47   48 1    
    95   47   49 1    
    96   47  170 1    
    97   48  171 1    
    98   48  172 1    
    99   48  173 1    
   100   49   50 am   BACKBONE|DICT|INTERRES
   101   49  174 1    
   102   50   51 2    
   103   50   52 1    
   104   52   53 1    
   105   52   54 1    
   106   52  175 1    
   107   53  176 1    
   108   53  177 1    
   109   53  178 1    
   110   54   55 am   BACKBONE|DICT|INTERRES
   111   54  179 1    
   112   55   56 2    
   113   55   57 1    
   114   57   58 1    
   115   57   59 1    
   116   57  180 1    
   117   58  181 1    
   118   58  182 1    
   119   58  183 1    
   120   59   60 am   BACKBONE|DICT|INTERRES
   121   59  184 1    
   122   60   61 2    
   123   60   62 1    
   124   62   63 1    
   125   62   64 1    
   126   62  185 1    
   127   63  186 1    
   128   63  187 1    
   129   63  188 1    
   130   64   65 am   BACKBONE|DICT|INTERRES
   131   64  189 1    
   132   65   66 2    
   133   67   68 2    
   134   67   69 am   BACKBONE|DICT|INTERRES
   135   69   70 1    
   136   69  190 1    
   137   70   71 1    
   138   70   72 1    
   139   70  191 1    
   140   71  192 1    
   141   71  193 1    
   142   71  194 1    
   143   72   73 2    
   144   72   74 am   BACKBONE|DICT|INTERRES
   145   74   75 1    
   146   74  195 1    
   147   75   76 1    
   148   75   77 1    
   149   75  196 1    
   150   76  197 1    
   151   76  198 1    
   152   76  199 1    
   153   77   78 2    
   154   77   79 am   BACKBONE|DICT|INTERRES
   155   79   80 1    
   156   79  200 1    
   157   80   81 1    
   158   80   82 1    
   159   80  201 1    
   160   81  202 1    
   161   81  203 1    
   162   81  204 1    
   163   82   83 2    
   164   82   84 am   BACKBONE|DICT|INTERRES
   165   84   85 1    
   166   84  205 1    
   167   85   86 1    
   168   85   87 1    
   169   85  206 1    
   170   86  207 1    
   171   86  208 1    
   172   86  209 1    
   173   87   88 2    
   174   87   89 am   BACKBONE|DICT|INTERRES
   175   89   90 1    
   176   89  210 1    
   177   90   91 1    
   178   90   92 1    
   179   90  211 1    
   180   91  212 1    
   181   91  213 1    
   182   91  214 1    
   183   92   93 2    
   184   92   94 am   BACKBONE|DICT|INTERRES
   185   94   95 1    
   186   94  215 1    
   187   95   96 1    
   188   95   97 1    
   189   95  216 1    
   190   96  217 1    
   191   96  218 1    
   192   96  219 1    
   193   97   98 2    
   194   97   99 am   BACKBONE|DICT|INTERRES
   195   99  100 1    
   196   99  220 1    
   197  100  101 1    
   198  100  102 1    
   199  100  221 1    
   200  101  222 1    
   201  101  223 1    
   202  101  224 1    
   203  102  103 2    
   204  102  104 am   BACKBONE|DICT|INTERRES
   205  104  105 1    
   206  104  225 1    
   207  105  106 1    
   208  105  107 1    
   209  105  226 1    
   210  106  227 1    
   211  106  228 1    
   212  106  229 1    
   213  107  108 2    
   214  107  109 am   BACKBONE|DICT|INTERRES
   215  109  110 1    
   216  109  230 1    
   217  110  111 1    
   218  110  112 1    
   219  110  231 1    
   220  111  232 1    
   221  111  233 1    
   222  111  234 1    
   223  112  113 2    
   224  112  114 am   BACKBONE|DICT|INTERRES
   225  114  115 1    
   226  114  235 1    
   227  115  116 1    
   228  115  117 1    
   229  115  236 1    
   230  116  237 1    
   231  116  238 1    
   232  116  239 1    
   233  117  118 2    
   234  117  119 am   BACKBONE|DICT|INTERRES
   235  119  120 1    
   236  119  240 1    
   237  120  121 1    
   238  120  124 1    
   239  120  241 1    
   240  121  122 am   BACKBONE|DICT|INTERRES
   241  121  123 2    
   242  122  242 1    
   243  122  243 1    
   244  124  125 1    
   245  124  244 1    
   246  124  245 1    
   247  125  126 1    
   248  126  246 1    
   249  126  247 1    
@<TRIPOS>SUBSTRUCTURE
     1 UNK         1 GROUP             0       ****    0 ROOT    
