@<TRIPOS>MOLECULE
3R540
247   249    1
SMALL
USER_CHARGES


@<TRIPOS>ATOM
      1 CA         -3.0637  -16.2344  -51.5004 C.3       0 UNK        -0.1800 
      2 C          -2.3742  -14.9979  -50.9438 C.2       0 UNK         0.5000 
      3 O          -2.7131  -13.8807  -51.3354 O.2       0 UNK        -0.5000 
      4 N          -1.4118  -15.1939  -50.0353 N.am      1 UNK        -0.5000 
      5 CA         -0.7376  -14.1299  -49.2862 C.3       1 UNK         0.1400 
      6 C6          0.7262  -14.5169  -48.9430 C.3       23 UNK        -0.0398 
      7 S7          0.9025  -15.9678  -47.8446 S.3       23 UNK        -0.2404 
      8 C8          2.3120  -16.8529  -48.5842 C.3       23 UNK        -0.0205 
      9 C9          1.8715  -18.0507  -49.4152 C.ar      23 UNK        -0.0193 
     10 C10         1.0576  -17.8800  -50.5383 C.ar      23 UNK        -0.1150 
     11 C11         0.6653  -18.9775  -51.3110 C.ar      23 UNK        -0.0193 
     12 C12         1.0898  -20.2582  -50.9441 C.ar      23 UNK        -0.1150 
     13 C13         1.9035  -20.4489  -49.8221 C.ar      23 UNK        -0.0193 
     14 C14         2.2977  -19.3362  -49.0697 C.ar      23 UNK        -0.1150 
     15 C15         2.3612  -21.8605  -49.4541 C.3       23 UNK        -0.0205 
     16 S16         2.3566  -22.2105  -47.6605 S.3       23 UNK        -0.2404 
     17 C17         0.6440  -21.7776  -47.2165 C.3       23 UNK        -0.0398 
     18 CA          0.0416  -22.6924  -46.1223 C.3       11 UNK         0.1400 
     19 N           0.7750  -22.5842  -44.8605 N.am      11 UNK        -0.5000 
     20 C           1.1749  -23.6043  -44.0934 C.2       10 UNK         0.5000 
     21 O           0.9308  -24.7860  -44.3432 O.2       10 UNK        -0.5000 
     22 CA          1.9758  -23.2201  -42.8300 C.3       10 UNK         0.1400 
     23 CB          2.7654  -24.3977  -42.2219 C.3       10 UNK        -0.1800 
     24 N           2.8389  -22.0533  -43.0461 N.am      10 UNK        -0.5000 
     25 C           3.8867  -21.9441  -43.8781 C.2       9 UNK         0.5000 
     26 O           4.3484  -22.8806  -44.5306 O.2       9 UNK        -0.5000 
     27 CA          4.5257  -20.5461  -44.0208 C.3       9 UNK         0.1400 
     28 CB          4.1558  -19.9254  -45.3775 C.3       9 UNK        -0.1800 
     29 N           4.1366  -19.6145  -42.9604 N.am      9 UNK        -0.5000 
     30 C           4.5868  -19.6541  -41.6994 C.2       8 UNK         0.5000 
     31 O           5.4366  -20.4512  -41.3006 O.2       8 UNK        -0.5000 
     32 CA          3.9515  -18.6590  -40.7092 C.3       8 UNK         0.1400 
     33 CB          4.6488  -17.2926  -40.7865 C.3       8 UNK        -0.1800 
     34 N           2.5099  -18.4896  -40.9148 N.am      8 UNK        -0.5000 
     35 C           1.5993  -19.4591  -40.7399 C.2       7 UNK         0.5000 
     36 O           1.8761  -20.5974  -40.3626 O.2       7 UNK        -0.5000 
     37 CA          0.1393  -19.1204  -41.0861 C.3       7 UNK         0.1400 
     38 CB         -0.5261  -18.3370  -39.9453 C.3       7 UNK        -0.1800 
     39 N           0.0217  -18.3738  -42.3377 N.am      7 UNK        -0.5000 
     40 C           0.3209  -18.8679  -43.5473 C.2       6 UNK         0.5000 
     41 O           0.6566  -20.0352  -43.7430 O.2       6 UNK        -0.5000 
     42 CA          0.2686  -17.8931  -44.7345 C.3       6 UNK         0.1400 
     43 CB         -1.1666  -17.7507  -45.2585 C.3       6 UNK        -0.1800 
     44 N           0.8025  -16.5773  -44.3945 N.am      6 UNK        -0.5000 
     45 C           2.0765  -16.3356  -44.0592 C.2       5 UNK         0.5000 
     46 O           2.9480  -17.2020  -44.0048 O.2       5 UNK        -0.5000 
     47 CA          2.4195  -14.8909  -43.6643 C.3       5 UNK         0.1400 
     48 CB          2.6265  -14.0114  -44.9076 C.3       5 UNK        -0.1800 
     49 N           1.3885  -14.3062  -42.8071 N.am      5 UNK        -0.5000 
     50 C           1.1483  -14.6889  -41.5451 C.2       4 UNK         0.5000 
     51 O           1.7958  -15.5554  -40.9572 O.2       4 UNK        -0.5000 
     52 CA         -0.0403  -14.0150  -40.8354 C.3       4 UNK         0.1400 
     53 CB          0.3675  -12.6445  -40.2744 C.3       4 UNK        -0.1800 
     54 N          -1.2031  -13.8563  -41.7105 N.am      4 UNK        -0.5000 
     55 C          -1.9266  -14.8765  -42.1921 C.2       3 UNK         0.5000 
     56 O          -1.7016  -16.0573  -41.9314 O.2       3 UNK        -0.5000 
     57 CA         -3.0654  -14.5230  -43.1663 C.3       3 UNK         0.1400 
     58 CB         -4.3404  -14.1529  -42.3938 C.3       3 UNK        -0.1800 
     59 N          -2.7423  -13.4517  -44.1155 N.am      3 UNK        -0.5000 
     60 C          -1.7093  -13.4716  -44.9679 C.2       2 UNK         0.5000 
     61 O          -0.8303  -14.3342  -44.9563 O.2       2 UNK        -0.5000 
     62 CA         -1.6263  -12.3207  -45.9887 C.3       2 UNK         0.1400 
     63 CB         -0.7691  -11.1771  -45.4250 C.3       2 UNK        -0.1800 
     64 N          -1.0520  -12.7584  -47.2645 N.am      2 UNK        -0.5000 
     65 C          -1.5738  -13.7121  -48.0506 C.2       1 UNK         0.5000 
     66 O          -2.6664  -14.2438  -47.8284 O.2       1 UNK        -0.5000 
     67 C          -1.4438  -22.3277  -45.9468 C.2       11 UNK         0.5000 
     68 O          -2.2001  -22.5296  -46.8932 O.2       11 UNK        -0.5000 
     69 N          -1.8371  -21.7692  -44.7904 N.am      12 UNK        -0.5000 
     70 CA         -3.1240  -21.1080  -44.5218 C.3       12 UNK         0.1400 
     71 CB         -3.2138  -20.7739  -43.0253 C.3       12 UNK        -0.1800 
     72 C          -4.3943  -21.8460  -44.9904 C.2       12 UNK         0.5000 
     73 O          -5.3105  -21.2025  -45.5034 O.2       12 UNK        -0.5000 
     74 N          -4.4142  -23.1768  -44.8415 N.am      13 UNK        -0.5000 
     75 CA         -5.5173  -24.0397  -45.2723 C.3       13 UNK         0.1400 
     76 CB         -5.3216  -25.4374  -44.6654 C.3       13 UNK        -0.1800 
     77 C          -5.6710  -24.1367  -46.8047 C.2       13 UNK         0.5000 
     78 O          -6.7828  -24.3587  -47.2853 O.2       13 UNK        -0.5000 
     79 N          -4.5626  -23.9754  -47.5378 N.am      14 UNK        -0.5000 
     80 CA         -4.5045  -24.0190  -48.9972 C.3       14 UNK         0.1400 
     81 CB         -3.2273  -24.7614  -49.4214 C.3       14 UNK        -0.1800 
     82 C          -4.5290  -22.6026  -49.5915 C.2       14 UNK         0.5000 
     83 O          -5.2181  -22.3715  -50.5857 O.2       14 UNK        -0.5000 
     84 N          -3.7993  -21.6684  -48.9636 N.am      15 UNK        -0.5000 
     85 CA         -3.6566  -20.2647  -49.3629 C.3       15 UNK         0.1400 
     86 CB         -2.6381  -19.5714  -48.4469 C.3       15 UNK        -0.1800 
     87 C          -4.9840  -19.4853  -49.3913 C.2       15 UNK         0.5000 
     88 O          -5.1053  -18.5367  -50.1649 O.2       15 UNK        -0.5000 
     89 N          -5.9813  -19.9460  -48.6230 N.am      16 UNK        -0.5000 
     90 CA         -7.3743  -19.4925  -48.6772 C.3       16 UNK         0.1400 
     91 CB         -8.1721  -20.2283  -47.5901 C.3       16 UNK        -0.1800 
     92 C          -8.0429  -19.6837  -50.0587 C.2       16 UNK         0.5000 
     93 O          -8.9736  -18.9464  -50.3845 O.2       16 UNK        -0.5000 
     94 N          -7.5419  -20.6431  -50.8487 N.am      17 UNK        -0.5000 
     95 CA         -7.9238  -20.9101  -52.2355 C.3       17 UNK         0.1400 
     96 CB         -8.4223  -22.3631  -52.3309 C.3       17 UNK        -0.1800 
     97 C          -6.7410  -20.6448  -53.1933 C.2       17 UNK         0.5000 
     98 O          -6.6968  -21.2197  -54.2821 O.2       17 UNK        -0.5000 
     99 N          -5.7823  -19.8067  -52.7629 N.am      18 UNK        -0.5000 
    100 CA        -4.5433  -19.4158  -53.4513 C.3       18 UNK         0.1400 
    101 CB        -4.8592  -18.6672  -54.7620 C.3       18 UNK        -0.1800 
    102 C         -3.5376  -20.5682  -53.6674 C.2       18 UNK         0.5000 
    103 O         -2.5893  -20.4108  -54.4404 O.2       18 UNK        -0.5000 
    104 N         -3.7607  -21.7103  -52.9992 N.am      19 UNK        -0.5000 
    105 CA        -2.9753  -22.9519  -53.0140 C.3       19 UNK         0.1400 
    106 CB        -1.6290  -22.7260  -52.2973 C.3       19 UNK        -0.1800 
    107 C         -2.7874  -23.5935  -54.4069 C.2       19 UNK         0.5000 
    108 O         -1.9258  -24.4598  -54.5612 O.2       19 UNK        -0.5000 
    109 N         -3.5678  -23.1337  -55.3986 N.am      20 UNK        -0.5000 
    110 CA        -3.4149  -23.3758  -56.8385 C.3       20 UNK         0.1400 
    111 CB        -3.7422  -24.8434  -57.1839 C.3       20 UNK        -0.1800 
    112 C         -2.0408  -22.9197  -57.3890 C.2       20 UNK         0.5000 
    113 O         -1.5755  -23.4611  -58.3937 O.2       20 UNK        -0.5000 
    114 N         -1.4133  -21.9443  -56.7158 N.am      21 UNK        -0.5000 
    115 CA        -0.0537  -21.4755  -56.9828 C.3       21 UNK         0.1400 
    116 CB         0.8720  -21.9555  -55.8525 C.3       21 UNK        -0.1800 
    117 C          0.0037  -19.9471  -57.1095 C.2       21 UNK         0.5000 
    118 O          0.7109  -19.4420  -57.9825 O.2       21 UNK        -0.5000 
    119 N         -0.7417  -19.2390  -56.2526 N.am      22 UNK        -0.5000 
    120 CA        -0.8157  -17.7693  -56.2271 C.3       22 UNK         0.1400 
    121 C         -1.9086  -17.1788  -57.1669 C.2       22 UNK         0.5000 
    122 N         -2.7027  -17.9861  -57.8602 N.am      22 UNK        -0.7600 
    123 O         -2.0312  -15.9623  -57.2806 O.2       22 UNK        -0.5000 
    124 C124       -0.9686  -17.2373  -54.7797 C.3       23 UNK        -0.0398 
    125 S125        0.4761  -17.6150  -53.7289 S.3       23 UNK        -0.2404 
    126 C126       -0.2362  -18.7798  -52.5228 C.3       23 UNK        -0.0205 
    127 H127       -2.7572  -17.1383  -50.9747 H         1 UNK         0.0600 
    128 H128       -4.1446  -16.1392  -51.3968 H         1 UNK         0.0600 
    129 H129       -2.8323  -16.3489  -52.5581 H         1 UNK         0.0600 
    130 H130       -1.2099  -16.1293  -49.7143 H         1 UNK         0.3000 
    131 H131       -0.6830  -13.2450  -49.9237 H         1 UNK         0.0600 
    132 H132        1.2495  -13.6795  -48.4798 H         1 UNK         0.0800 
    133 H133        1.2617  -14.7039  -49.8742 H         1 UNK         0.0800 
    134 H134        2.9616  -17.1774  -47.7696 H         1 UNK         0.0800 
    135 H135        2.9143  -16.1819  -49.1974 H         1 UNK         0.0800 
    136 H136        0.7344  -16.8888  -50.8199 H         1 UNK         0.1150 
    137 H137        0.7891  -21.1109  -51.5353 H         1 UNK         0.1150 
    138 H138        2.9374  -19.4723  -48.2094 H         1 UNK         0.1150 
    139 H139        1.7330  -22.6039  -49.9475 H         1 UNK         0.0800 
    140 H140        3.3718  -22.0084  -49.8361 H         1 UNK         0.0800 
    141 H141        0.0414  -21.8312  -48.1256 H         1 UNK         0.0800 
    142 H142        0.6287  -20.7326  -46.9006 H         1 UNK         0.0800 
    143 H143        0.0726  -23.7214  -46.4860 H         1 UNK         0.0600 
    144 H144        0.9825  -21.6391  -44.5439 H         1 UNK         0.3000 
    145 H145        1.2363  -22.9087  -42.0910 H         1 UNK         0.0600 
    146 H146        3.3186  -24.0845  -41.3363 H         1 UNK         0.0600 
    147 H147        2.0937  -25.2008  -41.9168 H         1 UNK         0.0600 
    148 H148        3.4771  -24.8210  -42.9310 H         1 UNK         0.0600 
    149 H149        2.5464  -21.2128  -42.5655 H         1 UNK         0.3000 
    150 H150        5.6095  -20.6740  -43.9878 H         1 UNK         0.0600 
    151 H151        4.4887  -20.5584  -46.2006 H         1 UNK         0.0600 
    152 H152        4.6258  -18.9507  -45.5091 H         1 UNK         0.0600 
    153 H153        3.0776  -19.7936  -45.4778 H         1 UNK         0.0600 
    154 H154        3.4969  -18.8700  -43.2263 H         1 UNK         0.3000 
    155 H155        4.0988  -19.0563  -39.7028 H         1 UNK         0.0600 
    156 H156        4.5098  -16.8233  -41.7606 H         1 UNK         0.0600 
    157 H157        5.7220  -17.3911  -40.6189 H         1 UNK         0.0600 
    158 H158        4.2629  -16.6103  -40.0289 H         1 UNK         0.0600 
    159 H159        2.1975  -17.5649  -41.1925 H         1 UNK         0.3000 
    160 H160       -0.3986  -20.0632  -41.2052 H         1 UNK         0.0600 
    161 H161       -0.4432  -18.8747  -39.0001 H         1 UNK         0.0600 
    162 H162       -1.5878  -18.1860  -40.1407 H         1 UNK         0.0600 
    163 H163       -0.0685  -17.3567  -39.8086 H         1 UNK         0.0600 
    164 H164       -0.3186  -17.4195  -42.2664 H         1 UNK         0.3000 
    165 H165        0.8862  -18.3023  -45.5369 H         1 UNK         0.0600 
    166 H166       -1.2335  -17.0039  -46.0494 H         1 UNK         0.0600 
    167 H167       -1.5086  -18.6940  -45.6798 H         1 UNK         0.0600 
    168 H168       -1.8614  -17.4612  -44.4695 H         1 UNK         0.0600 
    169 H169        0.1633  -15.7883  -44.4717 H         1 UNK         0.3000 
    170 H170        3.3569  -14.9111  -43.1046 H         1 UNK         0.0600 
    171 H171        3.4084  -14.4223  -45.5475 H         1 UNK         0.0600 
    172 H172        1.7212  -13.9366  -45.5101 H         1 UNK         0.0600 
    173 H173        2.9290  -13.0015  -44.6307 H         1 UNK         0.0600 
    174 H174        0.7573  -13.6504  -43.2432 H         1 UNK         0.3000 
    175 H175       -0.3309  -14.6527  -39.9976 H         1 UNK         0.0600 
    176 H176       -0.4440  -12.1963  -39.7007 H         1 UNK         0.0600 
    177 H177        1.2245  -12.7365  -39.6058 H         1 UNK         0.0600 
    178 H178        0.6428  -11.9483  -41.0676 H         1 UNK         0.0600 
    179 H179       -1.4512  -12.9168  -41.9831 H         1 UNK         0.3000 
    180 H180       -3.2751  -15.4193  -43.7535 H         1 UNK         0.0600 
    181 H181       -4.2124  -13.2335  -41.8212 H         1 UNK         0.0600 
    182 H182       -4.6147  -14.9417  -41.6918 H         1 UNK         0.0600 
    183 H183       -5.1850  -14.0140  -43.0690 H         1 UNK         0.0600 
    184 H184       -3.4084  -12.6953  -44.1761 H         1 UNK         0.3000 
    185 H185       -2.6338  -11.9473  -46.1823 H         1 UNK         0.0600 
    186 H186        0.2549  -11.4999  -45.2307 H         1 UNK         0.0600 
    187 H187       -0.7303  -10.3346  -46.1158 H         1 UNK         0.0600 
    188 H188       -1.1796  -10.8053  -44.4852 H         1 UNK         0.0600 
    189 H189       -0.1507  -12.3703  -47.4968 H         1 UNK         0.3000 
    190 H190       -1.1294  -21.6511  -44.0794 H         1 UNK         0.3000 
    191 H191       -3.1112  -20.1639  -45.0653 H         1 UNK         0.0600 
    192 H192       -2.4210  -20.0895  -42.7254 H         1 UNK         0.0600 
    193 H193       -3.1372  -21.6699  -42.4083 H         1 UNK         0.0600 
    194 H194       -4.1615  -20.2894  -42.7861 H         1 UNK         0.0600 
    195 H195       -3.6119  -23.6285  -44.4277 H         1 UNK         0.3000 
    196 H196       -6.4464  -23.6240  -44.8764 H         1 UNK         0.0600 
    197 H197       -6.1408  -26.1022  -44.9427 H         1 UNK         0.0600 
    198 H198       -5.2942  -25.3947  -43.5764 H         1 UNK         0.0600 
    199 H199       -4.3943  -25.8983  -45.0080 H         1 UNK         0.0600 
    200 H200       -3.7015  -23.7185  -47.0660 H         1 UNK         0.3000 
    201 H201       -5.3623  -24.5674  -49.3923 H         1 UNK         0.0600 
    202 H202       -3.1884  -25.7573  -48.9800 H         1 UNK         0.0600 
    203 H203       -2.3252  -24.2280  -49.1185 H         1 UNK         0.0600 
    204 H204       -3.1868  -24.8894  -50.5024 H         1 UNK         0.0600 
    205 H205       -3.2456  -21.9601  -48.1597 H         1 UNK         0.3000 
    206 H206       -3.2568  -20.2545  -50.3787 H         1 UNK         0.0600 
    207 H207       -1.6599  -20.0474  -48.5114 H         1 UNK         0.0600 
    208 H208       -2.5055  -18.5246  -48.7236 H         1 UNK         0.0600 
    209 H209       -2.9602  -19.5984  -47.4065 H         1 UNK         0.0600 
    210 H210       -5.7819  -20.7121  -47.9941 H         1 UNK         0.3000 
    211 H211       -7.3851  -18.4243  -48.4523 H         1 UNK         0.0600 
    212 H212       -8.1629  -21.3080  -47.7471 H         1 UNK         0.0600 
    213 H213       -9.2138  -19.9051  -47.5810 H         1 UNK         0.0600 
    214 H214       -7.7625  -20.0313  -46.5990 H         1 UNK         0.0600 
    215 H215       -6.7653  -21.2022  -50.5071 H         1 UNK         0.3000 
    216 H216       -8.7344  -20.2481  -52.5452 H         1 UNK         0.0600 
    217 H217       -8.7782  -22.5942  -53.3356 H         1 UNK         0.0600 
    218 H218       -9.2522  -22.5395  -51.6465 H         1 UNK         0.0600 
    219 H219       -7.6313  -23.0741  -52.0882 H         1 UNK         0.0600 
    220 H220       -5.9010  -19.3868  -51.8469 H         1 UNK         0.3000 
    221 H221       -4.0427  -18.7126  -52.7858 H         1 UNK         0.0600 
    222 H222       -5.2943  -19.3260  -55.5137 H         1 UNK         0.0600 
    223 H223       -5.5567  -17.8478  -54.5892 H         1 UNK         0.0600 
    224 H224       -3.9602  -18.2348  -55.1977 H         1 UNK         0.0600 
    225 H225       -4.5644  -21.7405  -52.3806 H         1 UNK         0.3000 
    226 H226       -3.5505  -23.6740  -52.4358 H         1 UNK         0.0600 
    227 H227       -1.7697  -22.2620  -51.3210 H         1 UNK         0.0600 
    228 H228       -0.9702  -22.0864  -52.8837 H         1 UNK         0.0600 
    229 H229       -1.1070  -23.6692  -52.1333 H         1 UNK         0.0600 
    230 H230       -4.2563  -22.4368  -55.1483 H         1 UNK         0.3000 
    231 H231       -4.1584  -22.7478  -57.3312 H         1 UNK         0.0600 
    232 H232       -4.7125  -25.1357  -56.7825 H         1 UNK         0.0600 
    233 H233       -2.9941  -25.5302  -56.7872 H         1 UNK         0.0600 
    234 H234       -3.7816  -24.9924  -58.2635 H         1 UNK         0.0600 
    235 H235       -1.8803  -21.5395  -55.9111 H         1 UNK         0.3000 
    236 H236        0.3147  -21.8890  -57.9238 H         1 UNK         0.0600 
    237 H237        1.8994  -21.6319  -56.0235 H         1 UNK         0.0600 
    238 H238        0.5603  -21.5646  -54.8830 H         1 UNK         0.0600 
    239 H239        0.8787  -23.0437  -55.7860 H         1 UNK         0.0600 
    240 H240       -1.3174  -19.7172  -55.5652 H         1 UNK         0.3000 
    241 H241        0.1264  -17.3715  -56.6093 H         1 UNK         0.0600 
    242 H242       -3.4004  -17.5920  -58.4714 H         1 UNK         0.3800 
    243 H243       -2.6020  -18.9852  -57.7892 H         1 UNK         0.3800 
    244 H244       -1.0839  -16.1520  -54.7775 H         1 UNK         0.0800 
    245 H245       -1.8735  -17.6376  -54.3246 H         1 UNK         0.0800 
    246 H246       -0.4189  -19.7285  -53.0273 H         1 UNK         0.0800 
    247 H247       -1.2035  -18.4175  -52.1788 H         1 UNK         0.0800 
@<TRIPOS>BOND
     1    1    2 1    
     2    1  127 1    
     3    1  128 1    
     4    1  129 1    
     5    2    3 2    
     6    2    4 am   BACKBONE|DICT|INTERRES
     7    4    5 1    
     8    4  130 1    
     9    5    6 1    
    10    5   65 1    
    11    5  131 1    
    12    6    7 1    
    13    6  132 1    
    14    6  133 1    
    15    7    8 1    
    16    8    9 1    
    17    8  134 1    
    18    8  135 1    
    19    9   10 ar   
    20    9   14 ar   
    21   10   11 ar   
    22   10  136 1    
    23   11   12 ar   
    24   11  126 1    
    25   12   13 ar   
    26   12  137 1    
    27   13   14 ar   
    28   13   15 1    
    29   14  138 1    
    30   15   16 1    
    31   15  139 1    
    32   15  140 1    
    33   16   17 1    
    34   17   18 1    
    35   17  141 1    
    36   17  142 1    
    37   18   19 1    
    38   18   67 1    
    39   18  143 1    
    40   19   20 am   BACKBONE|DICT|INTERRES
    41   19  144 1    
    42   20   21 2    
    43   20   22 1    
    44   22   23 1    
    45   22   24 1    
    46   22  145 1    
    47   23  146 1    
    48   23  147 1    
    49   23  148 1    
    50   24   25 am   BACKBONE|DICT|INTERRES
    51   24  149 1    
    52   25   26 2    
    53   25   27 1    
    54   27   28 1    
    55   27   29 1    
    56   27  150 1    
    57   28  151 1    
    58   28  152 1    
    59   28  153 1    
    60   29   30 am   BACKBONE|DICT|INTERRES
    61   29  154 1    
    62   30   31 2    
    63   30   32 1    
    64   32   33 1    
    65   32   34 1    
    66   32  155 1    
    67   33  156 1    
    68   33  157 1    
    69   33  158 1    
    70   34   35 am   BACKBONE|DICT|INTERRES
    71   34  159 1    
    72   35   36 2    
    73   35   37 1    
    74   37   38 1    
    75   37   39 1    
    76   37  160 1    
    77   38  161 1    
    78   38  162 1    
    79   38  163 1    
    80   39   40 am   BACKBONE|DICT|INTERRES
    81   39  164 1    
    82   40   41 2    
    83   40   42 1    
    84   42   43 1    
    85   42   44 1    
    86   42  165 1    
    87   43  166 1    
    88   43  167 1    
    89   43  168 1    
    90   44   45 am   BACKBONE|DICT|INTERRES
    91   44  169 1    
    92   45   46 2    
    93   45   47 1    
    94   47   48 1    
    95   47   49 1    
    96   47  170 1    
    97   48  171 1    
    98   48  172 1    
    99   48  173 1    
   100   49   50 am   BACKBONE|DICT|INTERRES
   101   49  174 1    
   102   50   51 2    
   103   50   52 1    
   104   52   53 1    
   105   52   54 1    
   106   52  175 1    
   107   53  176 1    
   108   53  177 1    
   109   53  178 1    
   110   54   55 am   BACKBONE|DICT|INTERRES
   111   54  179 1    
   112   55   56 2    
   113   55   57 1    
   114   57   58 1    
   115   57   59 1    
   116   57  180 1    
   117   58  181 1    
   118   58  182 1    
   119   58  183 1    
   120   59   60 am   BACKBONE|DICT|INTERRES
   121   59  184 1    
   122   60   61 2    
   123   60   62 1    
   124   62   63 1    
   125   62   64 1    
   126   62  185 1    
   127   63  186 1    
   128   63  187 1    
   129   63  188 1    
   130   64   65 am   BACKBONE|DICT|INTERRES
   131   64  189 1    
   132   65   66 2    
   133   67   68 2    
   134   67   69 am   BACKBONE|DICT|INTERRES
   135   69   70 1    
   136   69  190 1    
   137   70   71 1    
   138   70   72 1    
   139   70  191 1    
   140   71  192 1    
   141   71  193 1    
   142   71  194 1    
   143   72   73 2    
   144   72   74 am   BACKBONE|DICT|INTERRES
   145   74   75 1    
   146   74  195 1    
   147   75   76 1    
   148   75   77 1    
   149   75  196 1    
   150   76  197 1    
   151   76  198 1    
   152   76  199 1    
   153   77   78 2    
   154   77   79 am   BACKBONE|DICT|INTERRES
   155   79   80 1    
   156   79  200 1    
   157   80   81 1    
   158   80   82 1    
   159   80  201 1    
   160   81  202 1    
   161   81  203 1    
   162   81  204 1    
   163   82   83 2    
   164   82   84 am   BACKBONE|DICT|INTERRES
   165   84   85 1    
   166   84  205 1    
   167   85   86 1    
   168   85   87 1    
   169   85  206 1    
   170   86  207 1    
   171   86  208 1    
   172   86  209 1    
   173   87   88 2    
   174   87   89 am   BACKBONE|DICT|INTERRES
   175   89   90 1    
   176   89  210 1    
   177   90   91 1    
   178   90   92 1    
   179   90  211 1    
   180   91  212 1    
   181   91  213 1    
   182   91  214 1    
   183   92   93 2    
   184   92   94 am   BACKBONE|DICT|INTERRES
   185   94   95 1    
   186   94  215 1    
   187   95   96 1    
   188   95   97 1    
   189   95  216 1    
   190   96  217 1    
   191   96  218 1    
   192   96  219 1    
   193   97   98 2    
   194   97   99 am   BACKBONE|DICT|INTERRES
   195   99  100 1    
   196   99  220 1    
   197  100  101 1    
   198  100  102 1    
   199  100  221 1    
   200  101  222 1    
   201  101  223 1    
   202  101  224 1    
   203  102  103 2    
   204  102  104 am   BACKBONE|DICT|INTERRES
   205  104  105 1    
   206  104  225 1    
   207  105  106 1    
   208  105  107 1    
   209  105  226 1    
   210  106  227 1    
   211  106  228 1    
   212  106  229 1    
   213  107  108 2    
   214  107  109 am   BACKBONE|DICT|INTERRES
   215  109  110 1    
   216  109  230 1    
   217  110  111 1    
   218  110  112 1    
   219  110  231 1    
   220  111  232 1    
   221  111  233 1    
   222  111  234 1    
   223  112  113 2    
   224  112  114 am   BACKBONE|DICT|INTERRES
   225  114  115 1    
   226  114  235 1    
   227  115  116 1    
   228  115  117 1    
   229  115  236 1    
   230  116  237 1    
   231  116  238 1    
   232  116  239 1    
   233  117  118 2    
   234  117  119 am   BACKBONE|DICT|INTERRES
   235  119  120 1    
   236  119  240 1    
   237  120  121 1    
   238  120  124 1    
   239  120  241 1    
   240  121  122 am   BACKBONE|DICT|INTERRES
   241  121  123 2    
   242  122  242 1    
   243  122  243 1    
   244  124  125 1    
   245  124  244 1    
   246  124  245 1    
   247  125  126 1    
   248  126  246 1    
   249  126  247 1    
@<TRIPOS>SUBSTRUCTURE
     1 UNK         1 GROUP             0       ****    0 ROOT    
