@<TRIPOS>MOLECULE
3R540
247   249    1
SMALL
USER_CHARGES


@<TRIPOS>ATOM
      1 CA         -3.9352   -7.5568  -45.0166 C.3       0 UNK        -0.1800 
      2 C          -2.9789   -8.6748  -45.4081 C.2       0 UNK         0.5000 
      3 O          -1.8222   -8.4059  -45.7344 O.2       0 UNK        -0.5000 
      4 N          -3.4590   -9.9238  -45.3865 N.am      1 UNK        -0.5000 
      5 CA         -2.6790  -11.1309  -45.6861 C.3       1 UNK         0.1400 
      6 C6         -3.5928  -12.3513  -45.9645 C.3       23 UNK        -0.0398 
      7 S7         -4.8604  -12.0434  -47.2454 S.3       23 UNK        -0.2404 
      8 C8         -3.9877  -12.4733  -48.7892 C.3       23 UNK        -0.0205 
      9 C9         -3.4832  -13.9110  -48.8262 C.ar      23 UNK        -0.0193 
     10 C10        -2.1559  -14.1726  -49.1795 C.ar      23 UNK        -0.1150 
     11 C11        -1.6712  -15.4829  -49.1985 C.ar      23 UNK        -0.0193 
     12 C12        -2.5237  -16.5360  -48.8621 C.ar      23 UNK        -0.1150 
     13 C13        -3.8524  -16.2907  -48.5136 C.ar      23 UNK        -0.0193 
     14 C14        -4.3310  -14.9781  -48.5094 C.ar      23 UNK        -0.1150 
     15 C15        -4.7655  -17.4441  -48.1336 C.3       23 UNK        -0.0205 
     16 S16        -4.8224  -17.7010  -46.3302 S.3       23 UNK        -0.2404 
     17 C17        -3.1741  -18.4057  -45.9737 C.3       23 UNK        -0.0398 
     18 CA         -3.0898  -19.9148  -46.3068 C.3       11 UNK         0.1400 
     19 N          -1.7133  -20.3687  -46.5266 N.am      11 UNK        -0.5000 
     20 C          -1.3727  -21.5962  -46.9491 C.2       10 UNK         0.5000 
     21 O          -2.1880  -22.4679  -47.2489 O.2       10 UNK        -0.5000 
     22 CA          0.1284  -21.9380  -46.9607 C.3       10 UNK         0.1400 
     23 CB          0.8173  -21.3810  -48.2157 C.3       10 UNK        -0.1800 
     24 N           0.8096  -21.4655  -45.7530 N.am      10 UNK        -0.5000 
     25 C           0.5317  -21.9008  -44.5143 C.2       9 UNK         0.5000 
     26 O          -0.2577  -22.8139  -44.2763 O.2       9 UNK        -0.5000 
     27 CA          1.1961  -21.1589  -43.3395 C.3       9 UNK         0.1400 
     28 CB          2.5972  -21.7189  -43.0555 C.3       9 UNK        -0.1800 
     29 N           1.2667  -19.7120  -43.5526 N.am      9 UNK        -0.5000 
     30 C           0.1980  -18.9092  -43.6636 C.2       8 UNK         0.5000 
     31 O          -0.9622  -19.2987  -43.5356 O.2       8 UNK        -0.5000 
     32 CA          0.4633  -17.4387  -44.0339 C.3       8 UNK         0.1400 
     33 CB          0.8339  -16.6190  -42.7887 C.3       8 UNK        -0.1800 
     34 N           1.5107  -17.3060  -45.0470 N.am      8 UNK        -0.5000 
     35 C           1.4140  -17.7523  -46.3075 C.2       7 UNK         0.5000 
     36 O           0.3864  -18.2423  -46.7755 O.2       7 UNK        -0.5000 
     37 CA          2.6976  -17.6980  -47.1618 C.3       7 UNK         0.1400 
     38 CB          2.9181  -16.3154  -47.8013 C.3       7 UNK        -0.1800 
     39 N           3.8745  -18.0363  -46.3647 N.am      7 UNK        -0.5000 
     40 C           4.1804  -19.2682  -45.9389 C.2       6 UNK         0.5000 
     41 O           3.5130  -20.2666  -46.2059 O.2       6 UNK        -0.5000 
     42 CA          5.4230  -19.3923  -45.0360 C.3       6 UNK         0.1400 
     43 CB          6.6836  -19.6154  -45.8841 C.3       6 UNK        -0.1800 
     44 N           5.6167  -18.2159  -44.1839 N.am      6 UNK        -0.5000 
     45 C           4.8068  -17.8775  -43.1705 C.2       5 UNK         0.5000 
     46 O           3.8445  -18.5561  -42.8149 O.2       5 UNK        -0.5000 
     47 CA          5.0821  -16.5254  -42.4836 C.3       5 UNK         0.1400 
     48 CB          6.1354  -16.6849  -41.3775 C.3       5 UNK        -0.1800 
     49 N           5.5105  -15.4808  -43.4208 N.am      5 UNK        -0.5000 
     50 C           4.7604  -15.0153  -44.4279 C.2       4 UNK         0.5000 
     51 O           3.6149  -15.4097  -44.6626 O.2       4 UNK        -0.5000 
     52 CA          5.4148  -13.9886  -45.3616 C.3       4 UNK         0.1400 
     53 CB          6.5156  -14.6538  -46.2123 C.3       4 UNK        -0.1800 
     54 N           4.3829  -13.4291  -46.2289 N.am      4 UNK        -0.5000 
     55 C           4.4837  -12.3148  -46.9604 C.2       3 UNK         0.5000 
     56 O           5.4881  -11.6019  -46.9799 O.2       3 UNK        -0.5000 
     57 CA          3.2690  -11.9264  -47.8304 C.3       3 UNK         0.1400 
     58 CB          3.4872  -12.3932  -49.2785 C.3       3 UNK        -0.1800 
     59 N           1.9755  -12.4420  -47.3675 N.am      3 UNK        -0.5000 
     60 C           1.3739  -12.1036  -46.2198 C.2       2 UNK         0.5000 
     61 O           1.8847  -11.3651  -45.3741 O.2       2 UNK        -0.5000 
     62 CA         -0.0349  -12.6867  -45.9938 C.3       2 UNK         0.1400 
     63 CB          0.0156  -14.2198  -45.8882 C.3       2 UNK        -0.1800 
     64 N          -0.5827  -12.1587  -44.7433 N.am      2 UNK        -0.5000 
     65 C          -1.6976  -11.4486  -44.5270 C.2       1 UNK         0.5000 
     66 O          -1.9775  -11.0666  -43.3887 O.2       1 UNK        -0.5000 
     67 C          -3.8280  -20.7835  -45.2663 C.2       11 UNK         0.5000 
     68 O          -4.9288  -21.2611  -45.5481 O.2       11 UNK        -0.5000 
     69 N          -3.1787  -21.0198  -44.1162 N.am      12 UNK        -0.5000 
     70 CA         -3.6653  -21.8724  -43.0290 C.3       12 UNK         0.1400 
     71 CB         -2.7012  -21.7849  -41.8370 C.3       12 UNK        -0.1800 
     72 C          -3.8855  -23.3385  -43.4499 C.2       12 UNK         0.5000 
     73 O          -4.8427  -23.9616  -42.9903 O.2       12 UNK        -0.5000 
     74 N          -3.0515  -23.8440  -44.3685 N.am      13 UNK        -0.5000 
     75 CA         -3.1754  -25.1489  -45.0253 C.3       13 UNK         0.1400 
     76 CB         -1.7885  -25.5806  -45.5353 C.3       13 UNK        -0.1800 
     77 C          -4.2444  -25.1601  -46.1447 C.2       13 UNK         0.5000 
     78 O          -4.0218  -25.7481  -47.2055 O.2       13 UNK        -0.5000 
     79 N          -5.3869  -24.5056  -45.8897 N.am      14 UNK        -0.5000 
     80 CA         -6.5601  -24.3620  -46.7562 C.3       14 UNK         0.1400 
     81 CB         -7.3100  -25.7068  -46.8574 C.3       14 UNK        -0.1800 
     82 C          -6.2210  -23.7620  -48.1356 C.2       14 UNK         0.5000 
     83 O          -6.6772  -24.2781  -49.1551 O.2       14 UNK        -0.5000 
     84 N          -5.3964  -22.7048  -48.1425 N.am      15 UNK        -0.5000 
     85 CA         -4.8381  -22.0449  -49.3299 C.3       15 UNK         0.1400 
     86 CB         -5.9328  -21.2727  -50.0944 C.3       15 UNK        -0.1800 
     87 C          -4.0412  -23.0209  -50.2210 C.2       15 UNK         0.5000 
     88 O          -4.2918  -23.1120  -51.4250 O.2       15 UNK        -0.5000 
     89 N          -3.1124  -23.7479  -49.5847 N.am      16 UNK        -0.5000 
     90 CA         -2.2600  -24.8033  -50.1367 C.3       16 UNK         0.1400 
     91 CB         -1.1989  -24.1989  -51.0773 C.3       16 UNK        -0.1800 
     92 C          -3.0828  -25.9371  -50.7831 C.2       16 UNK         0.5000 
     93 O          -2.8116  -26.3378  -51.9162 O.2       16 UNK        -0.5000 
     94 N          -4.0962  -26.4078  -50.0403 N.am      17 UNK        -0.5000 
     95 CA         -5.1220  -27.3734  -50.4499 C.3       17 UNK         0.1400 
     96 CB         -4.5075  -28.7737  -50.6548 C.3       17 UNK        -0.1800 
     97 C          -5.9494  -26.8845  -51.6606 C.2       17 UNK         0.5000 
     98 O          -6.2408  -27.6630  -52.5707 O.2       17 UNK        -0.5000 
     99 N          -6.3125  -25.5946  -51.6269 N.am      18 UNK        -0.5000 
    100 CA        -7.0949  -24.8383  -52.6052 C.3       18 UNK         0.1400 
    101 CB        -8.5732  -25.2753  -52.5493 C.3       18 UNK        -0.1800 
    102 C         -6.5004  -24.8840  -54.0275 C.2       18 UNK         0.5000 
    103 O         -7.2183  -25.1790  -54.9864 O.2       18 UNK        -0.5000 
    104 N         -5.1975  -24.6026  -54.1437 N.am      19 UNK        -0.5000 
    105 CA        -4.4619  -24.6377  -55.4045 C.3       19 UNK         0.1400 
    106 CB        -3.9220  -26.0586  -55.6439 C.3       19 UNK        -0.1800 
    107 C         -3.3196  -23.6145  -55.3885 C.2       19 UNK         0.5000 
    108 O         -2.7183  -23.3888  -54.3379 O.2       19 UNK        -0.5000 
    109 N         -3.0246  -23.0568  -56.5726 N.am      20 UNK        -0.5000 
    110 CA        -1.9617  -22.0885  -56.8743 C.3       20 UNK         0.1400 
    111 CB        -0.5755  -22.7228  -56.6233 C.3       20 UNK        -0.1800 
    112 C         -2.1178  -20.7317  -56.1505 C.2       20 UNK         0.5000 
    113 O         -3.1007  -20.4973  -55.4408 O.2       20 UNK        -0.5000 
    114 N         -1.1410  -19.8384  -56.3605 N.am      21 UNK        -0.5000 
    115 CA        -1.0158  -18.5669  -55.6478 C.3       21 UNK         0.1400 
    116 CB         0.1152  -17.7373  -56.2753 C.3       21 UNK        -0.1800 
    117 C         -0.7522  -18.8239  -54.1536 C.2       21 UNK         0.5000 
    118 O          0.1745  -19.5689  -53.8267 O.2       21 UNK        -0.5000 
    119 N         -1.5964  -18.2401  -53.2950 N.am      22 UNK        -0.5000 
    120 CA        -1.6610  -18.4932  -51.8431 C.3       22 UNK         0.1400 
    121 C         -2.1847  -19.9124  -51.4596 C.2       22 UNK         0.5000 
    122 N         -2.7585  -20.6845  -52.3768 N.am      22 UNK        -0.7600 
    123 O         -2.1104  -20.3016  -50.2986 O.2       22 UNK        -0.5000 
    124 C124       -0.3544  -18.1126  -51.0865 C.3       23 UNK        -0.0398 
    125 S125        0.0394  -16.3343  -51.2321 S.3       23 UNK        -0.2404 
    126 C126       -0.2139  -15.7558  -49.5253 C.3       23 UNK        -0.0205 
    127 H127       -4.9242   -7.9396  -44.7628 H         1 UNK         0.0600 
    128 H128       -4.0450   -6.8510  -45.8401 H         1 UNK         0.0600 
    129 H129       -3.5475   -7.0171  -44.1524 H         1 UNK         0.0600 
    130 H130       -4.4140  -10.0840  -45.1005 H         1 UNK         0.3000 
    131 H131       -2.1116  -10.9064  -46.5894 H         1 UNK         0.0600 
    132 H132       -3.0004  -13.2224  -46.2458 H         1 UNK         0.0800 
    133 H133       -4.1215  -12.6394  -45.0539 H         1 UNK         0.0800 
    134 H134       -4.6670  -12.3219  -49.6289 H         1 UNK         0.0800 
    135 H135       -3.1655  -11.7697  -48.9289 H         1 UNK         0.0800 
    136 H136       -1.4952  -13.3548  -49.4305 H         1 UNK         0.1150 
    137 H137       -2.1515  -17.5500  -48.8527 H         1 UNK         0.1150 
    138 H138       -5.3591  -14.7850  -48.2367 H         1 UNK         0.1150 
    139 H139       -5.7764  -17.2384  -48.4885 H         1 UNK         0.0800 
    140 H140       -4.4529  -18.3611  -48.6352 H         1 UNK         0.0800 
    141 H141       -2.9438  -18.2218  -44.9235 H         1 UNK         0.0800 
    142 H142       -2.4219  -17.8478  -46.5284 H         1 UNK         0.0800 
    143 H143       -3.5961  -20.0634  -47.2584 H         1 UNK         0.0600 
    144 H144       -0.9733  -19.7005  -46.3387 H         1 UNK         0.3000 
    145 H145        0.2189  -23.0259  -46.9863 H         1 UNK         0.0600 
    146 H146        1.8687  -21.6666  -48.2492 H         1 UNK         0.0600 
    147 H147        0.3440  -21.7653  -49.1196 H         1 UNK         0.0600 
    148 H148        0.7635  -20.2948  -48.2650 H         1 UNK         0.0600 
    149 H149        1.5237  -20.7563  -45.8745 H         1 UNK         0.3000 
    150 H150        0.5831  -21.3292  -42.4524 H         1 UNK         0.0600 
    151 H151        2.5503  -22.7850  -42.8301 H         1 UNK         0.0600 
    152 H152        3.0540  -21.2249  -42.1978 H         1 UNK         0.0600 
    153 H153        3.2634  -21.5953  -43.9082 H         1 UNK         0.0600 
    154 H154        2.1934  -19.2993  -43.5898 H         1 UNK         0.3000 
    155 H155       -0.4587  -17.0275  -44.4501 H         1 UNK         0.0600 
    156 H156        0.0330  -16.6545  -42.0493 H         1 UNK         0.0600 
    157 H157        1.0024  -15.5711  -43.0346 H         1 UNK         0.0600 
    158 H158        1.7368  -16.9960  -42.3095 H         1 UNK         0.0600 
    159 H159        2.3693  -16.8448  -44.7610 H         1 UNK         0.3000 
    160 H160        2.6094  -18.4350  -47.9630 H         1 UNK         0.0600 
    161 H161        2.5929  -15.5038  -47.1520 H         1 UNK         0.0600 
    162 H162        2.3767  -16.2298  -48.7401 H         1 UNK         0.0600 
    163 H163        3.9672  -16.1449  -48.0438 H         1 UNK         0.0600 
    164 H164        4.4455  -17.2658  -46.0536 H         1 UNK         0.3000 
    165 H165        5.2845  -20.2637  -44.3928 H         1 UNK         0.0600 
    166 H166        7.5595  -19.7729  -45.2545 H         1 UNK         0.0600 
    167 H167        6.5766  -20.4978  -46.5166 H         1 UNK         0.0600 
    168 H168        6.8870  -18.7658  -46.5372 H         1 UNK         0.0600 
    169 H169        6.3921  -17.6098  -44.4074 H         1 UNK         0.3000 
    170 H170        4.1495  -16.1961  -42.0207 H         1 UNK         0.0600 
    171 H171        5.8312  -17.4444  -40.6559 H         1 UNK         0.0600 
    172 H172        7.1034  -16.9843  -41.7812 H         1 UNK         0.0600 
    173 H173        6.2737  -15.7538  -40.8277 H         1 UNK         0.0600 
    174 H174        6.4419  -15.1128  -43.2900 H         1 UNK         0.3000 
    175 H175        5.8430  -13.1914  -44.7510 H         1 UNK         0.0600 
    176 H176        6.1141  -15.4536  -46.8355 H         1 UNK         0.0600 
    177 H177        7.0007  -13.9332  -46.8705 H         1 UNK         0.0600 
    178 H178        7.2967  -15.0852  -45.5856 H         1 UNK         0.0600 
    179 H179        3.5069  -13.9338  -46.2022 H         1 UNK         0.3000 
    180 H180        3.2092  -10.8360  -47.8298 H         1 UNK         0.0600 
    181 H181        3.5250  -13.4812  -49.3486 H         1 UNK         0.0600 
    182 H182        4.4259  -12.0066  -49.6778 H         1 UNK         0.0600 
    183 H183        2.6896  -12.0410  -49.9329 H         1 UNK         0.0600 
    184 H184        1.4907  -13.0469  -48.0123 H         1 UNK         0.3000 
    185 H185       -0.6449  -12.4237  -46.8562 H         1 UNK         0.0600 
    186 H186        0.7333  -14.5422  -45.1343 H         1 UNK         0.0600 
    187 H187        0.3076  -14.6751  -46.8333 H         1 UNK         0.0600 
    188 H188       -0.9574  -14.6349  -45.6244 H         1 UNK         0.0600 
    189 H189        0.0453  -12.2671  -43.9599 H         1 UNK         0.3000 
    190 H190       -2.2865  -20.5557  -43.9614 H         1 UNK         0.3000 
    191 H191       -4.6315  -21.4741  -42.7131 H         1 UNK         0.0600 
    192 H192       -1.7159  -22.1776  -42.0865 H         1 UNK         0.0600 
    193 H193       -2.5765  -20.7543  -41.5039 H         1 UNK         0.0600 
    194 H194       -3.0770  -22.3586  -40.9890 H         1 UNK         0.0600 
    195 H195       -2.2721  -23.2696  -44.6702 H         1 UNK         0.3000 
    196 H196       -3.4938  -25.8803  -44.2802 H         1 UNK         0.0600 
    197 H197       -1.0558  -25.5864  -44.7282 H         1 UNK         0.0600 
    198 H198       -1.4215  -24.9121  -46.3142 H         1 UNK         0.0600 
    199 H199       -1.8178  -26.5878  -45.9526 H         1 UNK         0.0600 
    200 H200       -5.4588  -24.0593  -44.9829 H         1 UNK         0.3000 
    201 H201       -7.2218  -23.6467  -46.2660 H         1 UNK         0.0600 
    202 H202       -8.2409  -25.5959  -47.4147 H         1 UNK         0.0600 
    203 H203       -7.5682  -26.0889  -45.8699 H         1 UNK         0.0600 
    204 H204       -6.7130  -26.4655  -47.3643 H         1 UNK         0.0600 
    205 H205       -5.0737  -22.3539  -47.2460 H         1 UNK         0.3000 
    206 H206       -4.1175  -21.3143  -48.9716 H         1 UNK         0.0600 
    207 H207       -6.6859  -21.9401  -50.5136 H         1 UNK         0.0600 
    208 H208       -5.5017  -20.7059  -50.9206 H         1 UNK         0.0600 
    209 H209       -6.4390  -20.5608  -49.4426 H         1 UNK         0.0600 
    210 H210       -2.9580  -23.5363  -48.6017 H         1 UNK         0.3000 
    211 H211       -1.7362  -25.2478  -49.2892 H         1 UNK         0.0600 
    212 H212       -0.6130  -23.4341  -50.5690 H         1 UNK         0.0600 
    213 H213       -0.5047  -24.9626  -51.4289 H         1 UNK         0.0600 
    214 H214       -1.6526  -23.7390  -51.9544 H         1 UNK         0.0600 
    215 H215       -4.2006  -26.0315  -49.1003 H         1 UNK         0.3000 
    216 H216       -5.8207  -27.4412  -49.6149 H         1 UNK         0.0600 
    217 H217       -5.2848  -29.5189  -50.8271 H         1 UNK         0.0600 
    218 H218       -3.8342  -28.8007  -51.5120 H         1 UNK         0.0600 
    219 H219       -3.9454  -29.0895  -49.7760 H         1 UNK         0.0600 
    220 H220       -6.0637  -25.0632  -50.7970 H         1 UNK         0.3000 
    221 H221       -7.0478  -23.7955  -52.2888 H         1 UNK         0.0600 
    222 H222       -9.1906  -24.6525  -53.1976 H         1 UNK         0.0600 
    223 H223       -8.7011  -26.3103  -52.8678 H         1 UNK         0.0600 
    224 H224       -8.9708  -25.1837  -51.5384 H         1 UNK         0.0600 
    225 H225       -4.6612  -24.3175  -53.3290 H         1 UNK         0.3000 
    226 H226       -5.1340  -24.3720  -56.2234 H         1 UNK         0.0600 
    227 H227       -4.7330  -26.7839  -55.7129 H         1 UNK         0.0600 
    228 H228       -3.3556  -26.1129  -56.5743 H         1 UNK         0.0600 
    229 H229       -3.2607  -26.3738  -54.8354 H         1 UNK         0.0600 
    230 H230       -3.6037  -23.3034  -57.3628 H         1 UNK         0.3000 
    231 H231       -2.0450  -21.8784  -57.9416 H         1 UNK         0.0600 
    232 H232        0.2258  -22.1125  -57.0404 H         1 UNK         0.0600 
    233 H233       -0.5013  -23.7053  -57.0896 H         1 UNK         0.0600 
    234 H234       -0.3726  -22.8427  -55.5583 H         1 UNK         0.0600 
    235 H235       -0.3581  -20.1017  -56.9402 H         1 UNK         0.3000 
    236 H236       -1.9516  -18.0156  -55.7630 H         1 UNK         0.0600 
    237 H237       -0.0846  -17.5281  -57.3264 H         1 UNK         0.0600 
    238 H238        0.2209  -16.7780  -55.7669 H         1 UNK         0.0600 
    239 H239        1.0758  -18.2501  -56.2109 H         1 UNK         0.0600 
    240 H240       -2.3317  -17.6531  -53.6619 H         1 UNK         0.3000 
    241 H241       -2.4425  -17.8260  -51.4789 H         1 UNK         0.0600 
    242 H242       -3.1082  -21.5994  -52.1186 H         1 UNK         0.3800 
    243 H243       -2.8223  -20.4010  -53.3464 H         1 UNK         0.3800 
    244 H244        0.4941  -18.6849  -51.4603 H         1 UNK         0.0800 
    245 H245       -0.4212  -18.3760  -50.0308 H         1 UNK         0.0800 
    246 H246        0.1701  -16.4925  -48.8219 H         1 UNK         0.0800 
    247 H247        0.3782  -14.8519  -49.3788 H         1 UNK         0.0800 
@<TRIPOS>BOND
     1    1    2 1    
     2    1  127 1    
     3    1  128 1    
     4    1  129 1    
     5    2    3 2    
     6    2    4 am   BACKBONE|DICT|INTERRES
     7    4    5 1    
     8    4  130 1    
     9    5    6 1    
    10    5   65 1    
    11    5  131 1    
    12    6    7 1    
    13    6  132 1    
    14    6  133 1    
    15    7    8 1    
    16    8    9 1    
    17    8  134 1    
    18    8  135 1    
    19    9   10 ar   
    20    9   14 ar   
    21   10   11 ar   
    22   10  136 1    
    23   11   12 ar   
    24   11  126 1    
    25   12   13 ar   
    26   12  137 1    
    27   13   14 ar   
    28   13   15 1    
    29   14  138 1    
    30   15   16 1    
    31   15  139 1    
    32   15  140 1    
    33   16   17 1    
    34   17   18 1    
    35   17  141 1    
    36   17  142 1    
    37   18   19 1    
    38   18   67 1    
    39   18  143 1    
    40   19   20 am   BACKBONE|DICT|INTERRES
    41   19  144 1    
    42   20   21 2    
    43   20   22 1    
    44   22   23 1    
    45   22   24 1    
    46   22  145 1    
    47   23  146 1    
    48   23  147 1    
    49   23  148 1    
    50   24   25 am   BACKBONE|DICT|INTERRES
    51   24  149 1    
    52   25   26 2    
    53   25   27 1    
    54   27   28 1    
    55   27   29 1    
    56   27  150 1    
    57   28  151 1    
    58   28  152 1    
    59   28  153 1    
    60   29   30 am   BACKBONE|DICT|INTERRES
    61   29  154 1    
    62   30   31 2    
    63   30   32 1    
    64   32   33 1    
    65   32   34 1    
    66   32  155 1    
    67   33  156 1    
    68   33  157 1    
    69   33  158 1    
    70   34   35 am   BACKBONE|DICT|INTERRES
    71   34  159 1    
    72   35   36 2    
    73   35   37 1    
    74   37   38 1    
    75   37   39 1    
    76   37  160 1    
    77   38  161 1    
    78   38  162 1    
    79   38  163 1    
    80   39   40 am   BACKBONE|DICT|INTERRES
    81   39  164 1    
    82   40   41 2    
    83   40   42 1    
    84   42   43 1    
    85   42   44 1    
    86   42  165 1    
    87   43  166 1    
    88   43  167 1    
    89   43  168 1    
    90   44   45 am   BACKBONE|DICT|INTERRES
    91   44  169 1    
    92   45   46 2    
    93   45   47 1    
    94   47   48 1    
    95   47   49 1    
    96   47  170 1    
    97   48  171 1    
    98   48  172 1    
    99   48  173 1    
   100   49   50 am   BACKBONE|DICT|INTERRES
   101   49  174 1    
   102   50   51 2    
   103   50   52 1    
   104   52   53 1    
   105   52   54 1    
   106   52  175 1    
   107   53  176 1    
   108   53  177 1    
   109   53  178 1    
   110   54   55 am   BACKBONE|DICT|INTERRES
   111   54  179 1    
   112   55   56 2    
   113   55   57 1    
   114   57   58 1    
   115   57   59 1    
   116   57  180 1    
   117   58  181 1    
   118   58  182 1    
   119   58  183 1    
   120   59   60 am   BACKBONE|DICT|INTERRES
   121   59  184 1    
   122   60   61 2    
   123   60   62 1    
   124   62   63 1    
   125   62   64 1    
   126   62  185 1    
   127   63  186 1    
   128   63  187 1    
   129   63  188 1    
   130   64   65 am   BACKBONE|DICT|INTERRES
   131   64  189 1    
   132   65   66 2    
   133   67   68 2    
   134   67   69 am   BACKBONE|DICT|INTERRES
   135   69   70 1    
   136   69  190 1    
   137   70   71 1    
   138   70   72 1    
   139   70  191 1    
   140   71  192 1    
   141   71  193 1    
   142   71  194 1    
   143   72   73 2    
   144   72   74 am   BACKBONE|DICT|INTERRES
   145   74   75 1    
   146   74  195 1    
   147   75   76 1    
   148   75   77 1    
   149   75  196 1    
   150   76  197 1    
   151   76  198 1    
   152   76  199 1    
   153   77   78 2    
   154   77   79 am   BACKBONE|DICT|INTERRES
   155   79   80 1    
   156   79  200 1    
   157   80   81 1    
   158   80   82 1    
   159   80  201 1    
   160   81  202 1    
   161   81  203 1    
   162   81  204 1    
   163   82   83 2    
   164   82   84 am   BACKBONE|DICT|INTERRES
   165   84   85 1    
   166   84  205 1    
   167   85   86 1    
   168   85   87 1    
   169   85  206 1    
   170   86  207 1    
   171   86  208 1    
   172   86  209 1    
   173   87   88 2    
   174   87   89 am   BACKBONE|DICT|INTERRES
   175   89   90 1    
   176   89  210 1    
   177   90   91 1    
   178   90   92 1    
   179   90  211 1    
   180   91  212 1    
   181   91  213 1    
   182   91  214 1    
   183   92   93 2    
   184   92   94 am   BACKBONE|DICT|INTERRES
   185   94   95 1    
   186   94  215 1    
   187   95   96 1    
   188   95   97 1    
   189   95  216 1    
   190   96  217 1    
   191   96  218 1    
   192   96  219 1    
   193   97   98 2    
   194   97   99 am   BACKBONE|DICT|INTERRES
   195   99  100 1    
   196   99  220 1    
   197  100  101 1    
   198  100  102 1    
   199  100  221 1    
   200  101  222 1    
   201  101  223 1    
   202  101  224 1    
   203  102  103 2    
   204  102  104 am   BACKBONE|DICT|INTERRES
   205  104  105 1    
   206  104  225 1    
   207  105  106 1    
   208  105  107 1    
   209  105  226 1    
   210  106  227 1    
   211  106  228 1    
   212  106  229 1    
   213  107  108 2    
   214  107  109 am   BACKBONE|DICT|INTERRES
   215  109  110 1    
   216  109  230 1    
   217  110  111 1    
   218  110  112 1    
   219  110  231 1    
   220  111  232 1    
   221  111  233 1    
   222  111  234 1    
   223  112  113 2    
   224  112  114 am   BACKBONE|DICT|INTERRES
   225  114  115 1    
   226  114  235 1    
   227  115  116 1    
   228  115  117 1    
   229  115  236 1    
   230  116  237 1    
   231  116  238 1    
   232  116  239 1    
   233  117  118 2    
   234  117  119 am   BACKBONE|DICT|INTERRES
   235  119  120 1    
   236  119  240 1    
   237  120  121 1    
   238  120  124 1    
   239  120  241 1    
   240  121  122 am   BACKBONE|DICT|INTERRES
   241  121  123 2    
   242  122  242 1    
   243  122  243 1    
   244  124  125 1    
   245  124  244 1    
   246  124  245 1    
   247  125  126 1    
   248  126  246 1    
   249  126  247 1    
@<TRIPOS>SUBSTRUCTURE
     1 UNK         1 GROUP             0       ****    0 ROOT    
