@<TRIPOS>MOLECULE
3R540
247   249    1
SMALL
USER_CHARGES


@<TRIPOS>ATOM
      1 CA          5.4475  -12.3294  -48.1397 C.3       0 UNK        -0.1800 
      2 C           5.3130  -13.8325  -48.3391 C.2       0 UNK         0.5000 
      3 O           5.4344  -14.3148  -49.4647 O.2       0 UNK        -0.5000 
      4 N           5.0641  -14.5676  -47.2503 N.am      1 UNK        -0.5000 
      5 CA          4.9316  -16.0218  -47.2225 C.3       1 UNK         0.1400 
      6 C6          3.5273  -16.4874  -47.7144 C.3       23 UNK        -0.0398 
      7 S7          3.6029  -18.0057  -48.7303 S.3       23 UNK        -0.2404 
      8 C8          3.4291  -17.3475  -50.4203 C.3       23 UNK        -0.0205 
      9 C9          2.0037  -17.4835  -50.9361 C.ar      23 UNK        -0.0193 
     10 C10         1.6834  -18.4778  -51.8659 C.ar      23 UNK        -0.1150 
     11 C11         0.3771  -18.6105  -52.3476 C.ar      23 UNK        -0.0193 
     12 C12        -0.6161  -17.7444  -51.8832 C.ar      23 UNK        -0.1150 
     13 C13        -0.3080  -16.7459  -50.9544 C.ar      23 UNK        -0.0193 
     14 C14         1.0044  -16.6139  -50.4922 C.ar      23 UNK        -0.1150 
     15 C15        -1.3966  -15.8202  -50.4358 C.3       23 UNK        -0.0205 
     16 S16        -2.5464  -16.6869  -49.3228 S.3       23 UNK        -0.2404 
     17 C17        -1.4396  -17.2243  -47.9685 C.3       23 UNK        -0.0398 
     18 CA         -0.9465  -18.6929  -48.0655 C.3       11 UNK         0.1400 
     19 N          -0.0703  -19.0411  -46.9459 N.am      11 UNK        -0.5000 
     20 C           0.5914  -20.1984  -46.8028 C.2       10 UNK         0.5000 
     21 O           0.5883  -21.1010  -47.6381 O.2       10 UNK        -0.5000 
     22 CA          1.3307  -20.4155  -45.4717 C.3       10 UNK         0.1400 
     23 CB          2.6945  -19.7156  -45.4799 C.3       10 UNK        -0.1800 
     24 N           0.5525  -19.9719  -44.3145 N.am      10 UNK        -0.5000 
     25 C          -0.6128  -20.5173  -43.9360 C.2       9 UNK         0.5000 
     26 O          -1.1389  -21.4720  -44.5086 O.2       9 UNK        -0.5000 
     27 CA         -1.3325  -19.8630  -42.7429 C.3       9 UNK         0.1400 
     28 CB         -0.6648  -20.2579  -41.4175 C.3       9 UNK        -0.1800 
     29 N          -1.3924  -18.4050  -42.8503 N.am      9 UNK        -0.5000 
     30 C          -2.0319  -17.7418  -43.8248 C.2       8 UNK         0.5000 
     31 O          -2.6732  -18.2891  -44.7217 O.2       8 UNK        -0.5000 
     32 CA         -1.8837  -16.2101  -43.8318 C.3       8 UNK         0.1400 
     33 CB         -2.8052  -15.5586  -42.7902 C.3       8 UNK        -0.1800 
     34 N          -0.5048  -15.7833  -43.6021 N.am      8 UNK        -0.5000 
     35 C           0.5321  -16.0810  -44.3976 C.2       7 UNK         0.5000 
     36 O           0.4420  -16.7195  -45.4433 O.2       7 UNK        -0.5000 
     37 CA          1.9123  -15.6182  -43.9160 C.3       7 UNK         0.1400 
     38 CB          2.0939  -14.1162  -44.2009 C.3       7 UNK        -0.1800 
     39 N           2.0956  -15.9115  -42.4932 N.am      7 UNK        -0.5000 
     40 C           2.2061  -17.1528  -41.9913 C.2       6 UNK         0.5000 
     41 O           2.2256  -18.1674  -42.6868 O.2       6 UNK        -0.5000 
     42 CA          2.2253  -17.3031  -40.4587 C.3       6 UNK         0.1400 
     43 CB          3.6572  -17.3459  -39.9086 C.3       6 UNK        -0.1800 
     44 N           1.4676  -16.2472  -39.7905 N.am      6 UNK        -0.5000 
     45 C           0.1284  -16.1838  -39.7928 C.2       5 UNK         0.5000 
     46 O          -0.5926  -17.0393  -40.3070 O.2       5 UNK        -0.5000 
     47 CA         -0.5107  -14.9281  -39.1710 C.3       5 UNK         0.1400 
     48 CB         -0.7422  -15.1277  -37.6662 C.3       5 UNK        -0.1800 
     49 N           0.2807  -13.7138  -39.3829 N.am      5 UNK        -0.5000 
     50 C           0.5810  -13.1964  -40.5820 C.2       4 UNK         0.5000 
     51 O           0.1937  -13.6865  -41.6422 O.2       4 UNK        -0.5000 
     52 CA          1.4731  -11.9391  -40.6154 C.3       4 UNK         0.1400 
     53 CB          1.4638  -11.1456  -39.2898 C.3       4 UNK        -0.1800 
     54 N           2.8586  -12.2122  -41.0242 N.am      4 UNK        -0.5000 
     55 C           3.7239  -13.0685  -40.4591 C.2       3 UNK         0.5000 
     56 O           3.4091  -13.9048  -39.6105 O.2       3 UNK        -0.5000 
     57 CA          5.1921  -12.9185  -40.9086 C.3       3 UNK         0.1400 
     58 CB          6.1981  -13.5983  -39.9535 C.3       3 UNK        -0.1800 
     59 N           5.4044  -13.3010  -42.3113 N.am      3 UNK        -0.5000 
     60 C           5.4756  -14.5366  -42.8281 C.2       2 UNK         0.5000 
     61 O           5.3863  -15.5749  -42.1711 O.2       2 UNK        -0.5000 
     62 CA          5.6914  -14.6242  -44.3519 C.3       2 UNK         0.1400 
     63 CB          7.0693  -14.0559  -44.7464 C.3       2 UNK        -0.1800 
     64 N           5.6121  -16.0315  -44.7396 N.am      2 UNK        -0.5000 
     65 C           5.3415  -16.6937  -45.8799 C.2       1 UNK         0.5000 
     66 O           5.4258  -17.9193  -45.8739 O.2       1 UNK        -0.5000 
     67 C          -2.1035  -19.7024  -48.1974 C.2       11 UNK         0.5000 
     68 O          -2.2841  -20.2679  -49.2741 O.2       11 UNK        -0.5000 
     69 N          -2.8285  -19.9510  -47.0961 N.am      12 UNK        -0.5000 
     70 CA         -3.9348  -20.9073  -47.0346 C.3       12 UNK         0.1400 
     71 CB         -4.5991  -20.8437  -45.6517 C.3       12 UNK        -0.1800 
     72 C          -3.5116  -22.3481  -47.3708 C.2       12 UNK         0.5000 
     73 O          -4.2352  -23.0346  -48.0928 O.2       12 UNK        -0.5000 
     74 N          -2.3393  -22.7671  -46.8757 N.am      13 UNK        -0.5000 
     75 CA         -1.7333  -24.0622  -47.1774 C.3       13 UNK         0.1400 
     76 CB         -0.5275  -24.2983  -46.2552 C.3       13 UNK        -0.1800 
     77 C          -1.3334  -24.1932  -48.6581 C.2       13 UNK         0.5000 
     78 O          -1.6992  -25.1795  -49.2978 O.2       13 UNK        -0.5000 
     79 N          -0.6200  -23.1890  -49.1861 N.am      14 UNK        -0.5000 
     80 CA         -0.1407  -23.1469  -50.5695 C.3       14 UNK         0.1400 
     81 CB          0.8750  -22.0066  -50.7192 C.3       14 UNK        -0.1800 
     82 C          -1.2749  -23.0178  -51.6043 C.2       14 UNK         0.5000 
     83 O          -1.1840  -23.6068  -52.6814 O.2       14 UNK        -0.5000 
     84 N          -2.3382  -22.2845  -51.2496 N.am      15 UNK        -0.5000 
     85 CA         -3.5679  -22.1511  -52.0314 C.3       15 UNK         0.1400 
     86 CB         -4.2814  -20.8537  -51.6223 C.3       15 UNK        -0.1800 
     87 C          -4.5210  -23.3552  -51.8912 C.2       15 UNK         0.5000 
     88 O          -5.5588  -23.3671  -52.5584 O.2       15 UNK        -0.5000 
     89 N          -4.1755  -24.3242  -51.0296 N.am      16 UNK        -0.5000 
     90 CA         -4.9063  -25.5575  -50.7253 C.3       16 UNK         0.1400 
     91 CB         -4.8934  -26.5033  -51.9444 C.3       16 UNK        -0.1800 
     92 C          -6.3254  -25.2774  -50.1956 C.2       16 UNK         0.5000 
     93 O          -7.2999  -25.8113  -50.7238 O.2       16 UNK        -0.5000 
     94 N          -6.4208  -24.3829  -49.2009 N.am      17 UNK        -0.5000 
     95 CA         -7.6590  -23.8554  -48.6109 C.3       17 UNK         0.1400 
     96 CB         -8.4089  -24.9552  -47.8309 C.3       17 UNK        -0.1800 
     97 C          -8.5484  -23.1341  -49.6489 C.2       17 UNK         0.5000 
     98 O          -9.7760  -23.2008  -49.5745 O.2       17 UNK        -0.5000 
     99 N          -7.8853  -22.4767  -50.6114 N.am      18 UNK        -0.5000 
    100 CA        -8.4280  -21.7789  -51.7793 C.3       18 UNK         0.1400 
    101 CB        -9.3928  -20.6468  -51.3701 C.3       18 UNK        -0.1800 
    102 C         -9.0184  -22.7088  -52.8616 C.2       18 UNK         0.5000 
    103 O         -9.6813  -22.2118  -53.7730 O.2       18 UNK        -0.5000 
    104 N         -8.7484  -24.0224  -52.7903 N.am      19 UNK        -0.5000 
    105 CA        -9.1302  -24.9836  -53.8289 C.3       19 UNK         0.1400 
    106 CB        -9.0968  -26.4128  -53.2684 C.3       19 UNK        -0.1800 
    107 C         -8.2319  -24.8716  -55.0739 C.2       19 UNK         0.5000 
    108 O         -8.7326  -24.9954  -56.1924 O.2       19 UNK        -0.5000 
    109 N         -6.9322  -24.6202  -54.8606 N.am      20 UNK        -0.5000 
    110 CA        -5.9653  -24.3361  -55.9228 C.3       20 UNK         0.1400 
    111 CB        -4.5918  -24.9066  -55.5352 C.3       20 UNK        -0.1800 
    112 C         -5.8667  -22.8249  -56.1929 C.2       20 UNK         0.5000 
    113 O         -5.5492  -22.4291  -57.3153 O.2       20 UNK        -0.5000 
    114 N         -6.1225  -22.0096  -55.1555 N.am      21 UNK        -0.5000 
    115 CA        -6.1901  -20.5398  -55.1658 C.3       21 UNK         0.1400 
    116 CB        -7.3918  -20.0675  -56.0090 C.3       21 UNK        -0.1800 
    117 C         -4.8729  -19.8459  -55.5808 C.2       21 UNK         0.5000 
    118 O         -4.8922  -18.6801  -55.9776 O.2       21 UNK        -0.5000 
    119 N         -3.7559  -20.5799  -55.4879 N.am      22 UNK        -0.5000 
    120 CA        -2.4285  -20.2077  -56.0000 C.3       22 UNK         0.1400 
    121 C         -2.3330  -20.1804  -57.5602 C.2       22 UNK         0.5000 
    122 N         -3.2492  -20.8071  -58.2915 N.am      22 UNK        -0.7600 
    123 O         -1.4062  -19.6073  -58.1258 O.2       22 UNK        -0.5000 
    124 C124       -1.8523  -18.9368  -55.3072 C.3       23 UNK        -0.0398 
    125 S125       -0.0481  -19.0481  -55.0516 S.3       23 UNK        -0.2404 
    126 C126        0.0423  -19.6998  -53.3554 C.3       23 UNK        -0.0205 
    127 H127        6.4340  -11.9957  -48.4613 H         1 UNK         0.0600 
    128 H128        5.3162  -12.0439  -47.0957 H         1 UNK         0.0600 
    129 H129        4.6987  -11.8041  -48.7325 H         1 UNK         0.0600 
    130 H130        4.9981  -14.1130  -46.3542 H         1 UNK         0.3000 
    131 H131        5.6751  -16.3934  -47.9315 H         1 UNK         0.0600 
    132 H132        2.8472  -16.6579  -46.8796 H         1 UNK         0.0800 
    133 H133        3.0483  -15.7069  -48.3049 H         1 UNK         0.0800 
    134 H134        4.1154  -17.8917  -51.0707 H         1 UNK         0.0800 
    135 H135        3.7453  -16.3044  -50.4629 H         1 UNK         0.0800 
    136 H136        2.4530  -19.1517  -52.2152 H         1 UNK         0.1150 
    137 H137       -1.6321  -17.8505  -52.2355 H         1 UNK         0.1150 
    138 H138        1.2449  -15.8435  -49.7744 H         1 UNK         0.1150 
    139 H139       -0.9666  -14.9631  -49.9152 H         1 UNK         0.0800 
    140 H140       -1.9572  -15.4162  -51.2799 H         1 UNK         0.0800 
    141 H141       -1.9752  -17.0719  -47.0315 H         1 UNK         0.0800 
    142 H142       -0.5824  -16.5513  -47.9279 H         1 UNK         0.0800 
    143 H143       -0.3415  -18.7844  -48.9693 H         1 UNK         0.0600 
    144 H144        0.0333  -18.3296  -46.2260 H         1 UNK         0.3000 
    145 H145        1.5051  -21.4879  -45.3632 H         1 UNK         0.0600 
    146 H146        3.2698  -19.9590  -44.5868 H         1 UNK         0.0600 
    147 H147        3.2888  -20.0217  -46.3416 H         1 UNK         0.0600 
    148 H148        2.5884  -18.6318  -45.5211 H         1 UNK         0.0600 
    149 H149        0.9452  -19.2075  -43.7734 H         1 UNK         0.3000 
    150 H150       -2.3586  -20.2361  -42.7295 H         1 UNK         0.0600 
    151 H151       -0.6433  -21.3420  -41.2997 H         1 UNK         0.0600 
    152 H152       -1.2070  -19.8483  -40.5650 H         1 UNK         0.0600 
    153 H153        0.3638  -19.9014  -41.3627 H         1 UNK         0.0600 
    154 H154       -0.9278  -17.8741  -42.1206 H         1 UNK         0.3000 
    155 H155       -2.1807  -15.8508  -44.8190 H         1 UNK         0.0600 
    156 H156       -2.5560  -15.8714  -41.7763 H         1 UNK         0.0600 
    157 H157       -3.8468  -15.8276  -42.9697 H         1 UNK         0.0600 
    158 H158       -2.7376  -14.4712  -42.8298 H         1 UNK         0.0600 
    159 H159       -0.3302  -15.2071  -42.7841 H         1 UNK         0.3000 
    160 H160        2.6764  -16.1697  -44.4657 H         1 UNK         0.0600 
    161 H161        2.8872  -13.6761  -43.6032 H         1 UNK         0.0600 
    162 H162        1.1901  -13.5419  -43.9977 H         1 UNK         0.0600 
    163 H163        2.3380  -13.9547  -45.2513 H         1 UNK         0.0600 
    164 H164        2.0130  -15.1364  -41.8514 H         1 UNK         0.3000 
    165 H165        1.7584  -18.2612  -40.2220 H         1 UNK         0.0600 
    166 H166        3.6625  -17.5934  -38.8472 H         1 UNK         0.0600 
    167 H167        4.2524  -18.1010  -40.4237 H         1 UNK         0.0600 
    168 H168        4.1655  -16.3909  -40.0286 H         1 UNK         0.0600 
    169 H169        2.0022  -15.4753  -39.4059 H         1 UNK         0.3000 
    170 H170       -1.4808  -14.7810  -39.6502 H         1 UNK         0.0600 
    171 H171       -1.3473  -16.0159  -37.4791 H         1 UNK         0.0600 
    172 H172        0.1980  -15.2509  -37.1270 H         1 UNK         0.0600 
    173 H173       -1.2705  -14.2787  -37.2320 H         1 UNK         0.0600 
    174 H174        0.6606  -13.2696  -38.5598 H         1 UNK         0.3000 
    175 H175        1.0468  -11.2927  -41.3841 H         1 UNK         0.0600 
    176 H176        1.9471  -11.6895  -38.4774 H         1 UNK         0.0600 
    177 H177        1.9877  -10.1964  -39.4036 H         1 UNK         0.0600 
    178 H178        0.4454  -10.9115  -38.9766 H         1 UNK         0.0600 
    179 H179        3.2109  -11.6020  -41.7478 H         1 UNK         0.3000 
    180 H180        5.4097  -11.8502  -40.8630 H         1 UNK         0.0600 
    181 H181        6.0253  -14.6702  -39.8599 H         1 UNK         0.0600 
    182 H182        6.1214  -13.1753  -38.9514 H         1 UNK         0.0600 
    183 H183        7.2241  -13.4511  -40.2905 H         1 UNK         0.0600 
    184 H184        5.4998  -12.5209  -42.9464 H         1 UNK         0.3000 
    185 H185        4.8886  -14.0520  -44.8110 H         1 UNK         0.0600 
    186 H186        7.1217  -12.9818  -44.5657 H         1 UNK         0.0600 
    187 H187        7.8694  -14.5226  -44.1700 H         1 UNK         0.0600 
    188 H188        7.2982  -14.2155  -45.7993 H         1 UNK         0.0600 
    189 H189        5.7718  -16.6120  -43.9245 H         1 UNK         0.3000 
    190 H190       -2.6268  -19.4371  -46.2420 H         1 UNK         0.3000 
    191 H191       -4.6725  -20.6017  -47.7793 H         1 UNK         0.0600 
    192 H192       -3.8968  -21.0948  -44.8561 H         1 UNK         0.0600 
    193 H193       -5.4354  -21.5408  -45.5863 H         1 UNK         0.0600 
    194 H194       -4.9898  -19.8465  -45.4487 H         1 UNK         0.0600 
    195 H195       -1.8255  -22.1557  -46.2482 H         1 UNK         0.3000 
    196 H196       -2.4749  -24.8351  -46.9645 H         1 UNK         0.0600 
    197 H197       -0.0677  -25.2673  -46.4531 H         1 UNK         0.0600 
    198 H198       -0.8267  -24.2876  -45.2069 H         1 UNK         0.0600 
    199 H199        0.2403  -23.5361  -46.3892 H         1 UNK         0.0600 
    200 H200       -0.3463  -22.4086  -48.5920 H         1 UNK         0.3000 
    201 H201        0.3788  -24.0867  -50.7676 H         1 UNK         0.0600 
    202 H202        1.6927  -22.1099  -50.0058 H         1 UNK         0.0600 
    203 H203        0.4122  -21.0323  -50.5553 H         1 UNK         0.0600 
    204 H204        1.3179  -22.0094  -51.7145 H         1 UNK         0.0600 
    205 H205       -2.3037  -21.7595  -50.3772 H         1 UNK         0.3000 
    206 H206       -3.3014  -22.0740  -53.0862 H         1 UNK         0.0600 
    207 H207       -3.6338  -19.9876  -51.7619 H         1 UNK         0.0600 
    208 H208       -5.1764  -20.6859  -52.2183 H         1 UNK         0.0600 
    209 H209       -4.5873  -20.8783  -50.5756 H         1 UNK         0.0600 
    210 H210       -3.3141  -24.2042  -50.5117 H         1 UNK         0.3000 
    211 H211       -4.3648  -26.0491  -49.9160 H         1 UNK         0.0600 
    212 H212       -5.3371  -27.4675  -51.6942 H         1 UNK         0.0600 
    213 H213       -3.8752  -26.6924  -52.2846 H         1 UNK         0.0600 
    214 H214       -5.4554  -26.0948  -52.7838 H         1 UNK         0.0600 
    215 H215       -5.5601  -23.9665  -48.8440 H         1 UNK         0.3000 
    216 H216       -7.3522  -23.0934  -47.8930 H         1 UNK         0.0600 
    217 H217       -9.2497  -24.5367  -47.2766 H         1 UNK         0.0600 
    218 H218       -7.7540  -25.4405  -47.1074 H         1 UNK         0.0600 
    219 H219       -8.8060  -25.7247  -48.4936 H         1 UNK         0.0600 
    220 H220       -6.8778  -22.5440  -50.5908 H         1 UNK         0.3000 
    221 H221       -7.5680  -21.3041  -52.2509 H         1 UNK         0.0600 
    222 H222      -10.3326  -21.0347  -50.9772 H         1 UNK         0.0600 
    223 H223       -8.9485  -20.0045  -50.6098 H         1 UNK         0.0600 
    224 H224       -9.6364  -20.0138  -52.2241 H         1 UNK         0.0600 
    225 H225       -8.2056  -24.3825  -52.0134 H         1 UNK         0.3000 
    226 H226      -10.1573  -24.7713  -54.1334 H         1 UNK         0.0600 
    227 H227       -9.6886  -26.4959  -52.3566 H         1 UNK         0.0600 
    228 H228       -9.5069  -27.1205  -53.9897 H         1 UNK         0.0600 
    229 H229       -8.0803  -26.7353  -53.0414 H         1 UNK         0.0600 
    230 H230       -6.6065  -24.4967  -53.9083 H         1 UNK         0.3000 
    231 H231       -6.2781  -24.8207  -56.8501 H         1 UNK         0.0600 
    232 H232       -4.6491  -25.9802  -55.3552 H         1 UNK         0.0600 
    233 H233       -4.1902  -24.4391  -54.6369 H         1 UNK         0.0600 
    234 H234       -3.8669  -24.7504  -56.3350 H         1 UNK         0.0600 
    235 H235       -6.2856  -22.4502  -54.2580 H         1 UNK         0.3000 
    236 H236       -6.3797  -20.2321  -54.1381 H         1 UNK         0.0600 
    237 H237       -7.2485  -20.2756  -57.0697 H         1 UNK         0.0600 
    238 H238       -8.3120  -20.5588  -55.6925 H         1 UNK         0.0600 
    239 H239       -7.5484  -18.9933  -55.9048 H         1 UNK         0.0600 
    240 H240       -3.8541  -21.5365  -55.1853 H         1 UNK         0.3000 
    241 H241       -1.8011  -21.0518  -55.7110 H         1 UNK         0.0600 
    242 H242       -4.0261  -21.3016  -57.8639 H         1 UNK         0.3800 
    243 H243       -3.1705  -20.7882  -59.2958 H         1 UNK         0.3800 
    244 H244       -2.0774  -18.0391  -55.8852 H         1 UNK         0.0800 
    245 H245       -2.3255  -18.7799  -54.3376 H         1 UNK         0.0800 
    246 H246        0.8110  -20.4720  -53.3407 H         1 UNK         0.0800 
    247 H247       -0.8885  -20.1970  -53.0777 H         1 UNK         0.0800 
@<TRIPOS>BOND
     1    1    2 1    
     2    1  127 1    
     3    1  128 1    
     4    1  129 1    
     5    2    3 2    
     6    2    4 am   BACKBONE|DICT|INTERRES
     7    4    5 1    
     8    4  130 1    
     9    5    6 1    
    10    5   65 1    
    11    5  131 1    
    12    6    7 1    
    13    6  132 1    
    14    6  133 1    
    15    7    8 1    
    16    8    9 1    
    17    8  134 1    
    18    8  135 1    
    19    9   10 ar   
    20    9   14 ar   
    21   10   11 ar   
    22   10  136 1    
    23   11   12 ar   
    24   11  126 1    
    25   12   13 ar   
    26   12  137 1    
    27   13   14 ar   
    28   13   15 1    
    29   14  138 1    
    30   15   16 1    
    31   15  139 1    
    32   15  140 1    
    33   16   17 1    
    34   17   18 1    
    35   17  141 1    
    36   17  142 1    
    37   18   19 1    
    38   18   67 1    
    39   18  143 1    
    40   19   20 am   BACKBONE|DICT|INTERRES
    41   19  144 1    
    42   20   21 2    
    43   20   22 1    
    44   22   23 1    
    45   22   24 1    
    46   22  145 1    
    47   23  146 1    
    48   23  147 1    
    49   23  148 1    
    50   24   25 am   BACKBONE|DICT|INTERRES
    51   24  149 1    
    52   25   26 2    
    53   25   27 1    
    54   27   28 1    
    55   27   29 1    
    56   27  150 1    
    57   28  151 1    
    58   28  152 1    
    59   28  153 1    
    60   29   30 am   BACKBONE|DICT|INTERRES
    61   29  154 1    
    62   30   31 2    
    63   30   32 1    
    64   32   33 1    
    65   32   34 1    
    66   32  155 1    
    67   33  156 1    
    68   33  157 1    
    69   33  158 1    
    70   34   35 am   BACKBONE|DICT|INTERRES
    71   34  159 1    
    72   35   36 2    
    73   35   37 1    
    74   37   38 1    
    75   37   39 1    
    76   37  160 1    
    77   38  161 1    
    78   38  162 1    
    79   38  163 1    
    80   39   40 am   BACKBONE|DICT|INTERRES
    81   39  164 1    
    82   40   41 2    
    83   40   42 1    
    84   42   43 1    
    85   42   44 1    
    86   42  165 1    
    87   43  166 1    
    88   43  167 1    
    89   43  168 1    
    90   44   45 am   BACKBONE|DICT|INTERRES
    91   44  169 1    
    92   45   46 2    
    93   45   47 1    
    94   47   48 1    
    95   47   49 1    
    96   47  170 1    
    97   48  171 1    
    98   48  172 1    
    99   48  173 1    
   100   49   50 am   BACKBONE|DICT|INTERRES
   101   49  174 1    
   102   50   51 2    
   103   50   52 1    
   104   52   53 1    
   105   52   54 1    
   106   52  175 1    
   107   53  176 1    
   108   53  177 1    
   109   53  178 1    
   110   54   55 am   BACKBONE|DICT|INTERRES
   111   54  179 1    
   112   55   56 2    
   113   55   57 1    
   114   57   58 1    
   115   57   59 1    
   116   57  180 1    
   117   58  181 1    
   118   58  182 1    
   119   58  183 1    
   120   59   60 am   BACKBONE|DICT|INTERRES
   121   59  184 1    
   122   60   61 2    
   123   60   62 1    
   124   62   63 1    
   125   62   64 1    
   126   62  185 1    
   127   63  186 1    
   128   63  187 1    
   129   63  188 1    
   130   64   65 am   BACKBONE|DICT|INTERRES
   131   64  189 1    
   132   65   66 2    
   133   67   68 2    
   134   67   69 am   BACKBONE|DICT|INTERRES
   135   69   70 1    
   136   69  190 1    
   137   70   71 1    
   138   70   72 1    
   139   70  191 1    
   140   71  192 1    
   141   71  193 1    
   142   71  194 1    
   143   72   73 2    
   144   72   74 am   BACKBONE|DICT|INTERRES
   145   74   75 1    
   146   74  195 1    
   147   75   76 1    
   148   75   77 1    
   149   75  196 1    
   150   76  197 1    
   151   76  198 1    
   152   76  199 1    
   153   77   78 2    
   154   77   79 am   BACKBONE|DICT|INTERRES
   155   79   80 1    
   156   79  200 1    
   157   80   81 1    
   158   80   82 1    
   159   80  201 1    
   160   81  202 1    
   161   81  203 1    
   162   81  204 1    
   163   82   83 2    
   164   82   84 am   BACKBONE|DICT|INTERRES
   165   84   85 1    
   166   84  205 1    
   167   85   86 1    
   168   85   87 1    
   169   85  206 1    
   170   86  207 1    
   171   86  208 1    
   172   86  209 1    
   173   87   88 2    
   174   87   89 am   BACKBONE|DICT|INTERRES
   175   89   90 1    
   176   89  210 1    
   177   90   91 1    
   178   90   92 1    
   179   90  211 1    
   180   91  212 1    
   181   91  213 1    
   182   91  214 1    
   183   92   93 2    
   184   92   94 am   BACKBONE|DICT|INTERRES
   185   94   95 1    
   186   94  215 1    
   187   95   96 1    
   188   95   97 1    
   189   95  216 1    
   190   96  217 1    
   191   96  218 1    
   192   96  219 1    
   193   97   98 2    
   194   97   99 am   BACKBONE|DICT|INTERRES
   195   99  100 1    
   196   99  220 1    
   197  100  101 1    
   198  100  102 1    
   199  100  221 1    
   200  101  222 1    
   201  101  223 1    
   202  101  224 1    
   203  102  103 2    
   204  102  104 am   BACKBONE|DICT|INTERRES
   205  104  105 1    
   206  104  225 1    
   207  105  106 1    
   208  105  107 1    
   209  105  226 1    
   210  106  227 1    
   211  106  228 1    
   212  106  229 1    
   213  107  108 2    
   214  107  109 am   BACKBONE|DICT|INTERRES
   215  109  110 1    
   216  109  230 1    
   217  110  111 1    
   218  110  112 1    
   219  110  231 1    
   220  111  232 1    
   221  111  233 1    
   222  111  234 1    
   223  112  113 2    
   224  112  114 am   BACKBONE|DICT|INTERRES
   225  114  115 1    
   226  114  235 1    
   227  115  116 1    
   228  115  117 1    
   229  115  236 1    
   230  116  237 1    
   231  116  238 1    
   232  116  239 1    
   233  117  118 2    
   234  117  119 am   BACKBONE|DICT|INTERRES
   235  119  120 1    
   236  119  240 1    
   237  120  121 1    
   238  120  124 1    
   239  120  241 1    
   240  121  122 am   BACKBONE|DICT|INTERRES
   241  121  123 2    
   242  122  242 1    
   243  122  243 1    
   244  124  125 1    
   245  124  244 1    
   246  124  245 1    
   247  125  126 1    
   248  126  246 1    
   249  126  247 1    
@<TRIPOS>SUBSTRUCTURE
     1 UNK         1 GROUP             0       ****    0 ROOT    
