@<TRIPOS>MOLECULE
3R540
247   249    1
SMALL
USER_CHARGES


@<TRIPOS>ATOM
      1 CA          5.9318  -14.7011  -43.5561 C.3       0 UNK        -0.1800 
      2 C           5.1760  -13.8289  -44.5489 C.2       0 UNK         0.5000 
      3 O           4.7186  -12.7426  -44.1902 O.2       0 UNK        -0.5000 
      4 N           5.0414  -14.2994  -45.7952 N.am      1 UNK        -0.5000 
      5 CA          4.4198  -13.5676  -46.9036 C.3       1 UNK         0.1400 
      6 C6          4.3168  -14.4383  -48.1789 C.3       23 UNK        -0.0398 
      7 S7          3.1082  -15.7936  -48.0338 S.3       23 UNK        -0.2404 
      8 C8          2.6686  -15.9705  -49.7916 C.3       23 UNK        -0.0205 
      9 C9          1.6964  -17.1137  -50.0227 C.ar      23 UNK        -0.0193 
     10 C10         0.3266  -16.8641  -50.1312 C.ar      23 UNK        -0.1150 
     11 C11        -0.5693  -17.9108  -50.3656 C.ar      23 UNK        -0.0193 
     12 C12        -0.0870  -19.2184  -50.4745 C.ar      23 UNK        -0.1150 
     13 C13         1.2823  -19.4815  -50.3645 C.ar      23 UNK        -0.0193 
     14 C14         2.1694  -18.4214  -50.1519 C.ar      23 UNK        -0.1150 
     15 C15         1.7947  -20.9139  -50.4629 C.3       23 UNK        -0.0205 
     16 S16         2.8673  -21.3997  -49.0652 S.3       23 UNK        -0.2404 
     17 C17         1.8487  -20.9577  -47.6140 C.3       23 UNK        -0.0398 
     18 CA          1.0915  -22.1476  -46.9859 C.3       11 UNK         0.1400 
     19 N           0.5498  -21.7914  -45.6748 N.am      11 UNK        -0.5000 
     20 C          -0.0126  -22.6476  -44.8128 C.2       10 UNK         0.5000 
     21 O          -0.0816  -23.8614  -45.0005 O.2       10 UNK        -0.5000 
     22 CA         -0.6497  -22.0371  -43.5523 C.3       10 UNK         0.1400 
     23 CB          0.4158  -21.7669  -42.4799 C.3       10 UNK        -0.1800 
     24 N          -1.3922  -20.8073  -43.8385 N.am      10 UNK        -0.5000 
     25 C          -2.4799  -20.7476  -44.6208 C.2       9 UNK         0.5000 
     26 O          -2.9957  -21.7347  -45.1441 O.2       9 UNK        -0.5000 
     27 CA         -3.0702  -19.3538  -44.9007 C.3       9 UNK         0.1400 
     28 CB         -3.9232  -18.8747  -43.7170 C.3       9 UNK        -0.1800 
     29 N          -2.0483  -18.3535  -45.2113 N.am      9 UNK        -0.5000 
     30 C          -1.2391  -18.3957  -46.2797 C.2       8 UNK         0.5000 
     31 O          -1.2926  -19.2739  -47.1399 O.2       8 UNK        -0.5000 
     32 CA         -0.1496  -17.3092  -46.3680 C.3       8 UNK         0.1400 
     33 CB         -0.7283  -15.9742  -46.8596 C.3       8 UNK        -0.1800 
     34 N           0.5303  -17.1000  -45.0896 N.am      8 UNK        -0.5000 
     35 C           1.2429  -18.0361  -44.4475 C.2       7 UNK         0.5000 
     36 O           1.4538  -19.1647  -44.8894 O.2       7 UNK        -0.5000 
     37 CA          1.7523  -17.6677  -43.0458 C.3       7 UNK         0.1400 
     38 CB          3.0386  -16.8336  -43.1333 C.3       7 UNK        -0.1800 
     39 N           0.7348  -16.9504  -42.2751 N.am      7 UNK        -0.5000 
     40 C          -0.3874  -17.5189  -41.8078 C.2       6 UNK         0.5000 
     41 O          -0.6575  -18.7105  -41.9502 O.2       6 UNK        -0.5000 
     42 CA         -1.3976  -16.5995  -41.0969 C.3       6 UNK         0.1400 
     43 CB         -1.0310  -16.4401  -39.6141 C.3       6 UNK        -0.1800 
     44 N          -1.4952  -15.2781  -41.7156 N.am      6 UNK        -0.5000 
     45 C          -1.9463  -15.0452  -42.9570 C.2       5 UNK         0.5000 
     46 O          -2.3863  -15.9226  -43.6977 O.2       5 UNK        -0.5000 
     47 CA         -1.8365  -13.5971  -43.4736 C.3       5 UNK         0.1400 
     48 CB         -3.1288  -12.8205  -43.1834 C.3       5 UNK        -0.1800 
     49 N          -0.6966  -12.8765  -42.8994 N.am      5 UNK        -0.5000 
     50 C           0.5843  -13.2163  -43.0903 C.2       4 UNK         0.5000 
     51 O           0.9449  -14.1337  -43.8316 O.2       4 UNK        -0.5000 
     52 CA          1.6229  -12.4303  -42.2787 C.3       4 UNK         0.1400 
     53 CB          2.6189  -13.3700  -41.5816 C.3       4 UNK        -0.1800 
     54 N           2.3425  -11.5058  -43.1471 N.am      4 UNK        -0.5000 
     55 C           1.9339  -10.2574  -43.4034 C.2       3 UNK         0.5000 
     56 O           0.9039   -9.7666  -42.9377 O.2       3 UNK        -0.5000 
     57 CA          2.8278   -9.4041  -44.3194 C.3       3 UNK         0.1400 
     58 CB          4.0700   -8.9125  -43.5596 C.3       3 UNK        -0.1800 
     59 N           3.2519  -10.0852  -45.5422 N.am      3 UNK        -0.5000 
     60 C           2.4408  -10.4652  -46.5396 C.2       2 UNK         0.5000 
     61 O           1.2145  -10.3687  -46.4962 O.2       2 UNK        -0.5000 
     62 CA          3.1063  -11.0041  -47.8243 C.3       2 UNK         0.1400 
     63 CB          2.8661  -10.0336  -48.9920 C.3       2 UNK        -0.1800 
     64 N           4.5557  -11.1889  -47.6791 N.am      2 UNK        -0.5000 
     65 C           5.2073  -12.2740  -47.2376 C.2       1 UNK         0.5000 
     66 O           6.4352  -12.2767  -47.1376 O.2       1 UNK        -0.5000 
     67 C          -0.0048  -22.7035  -47.9189 C.2       11 UNK         0.5000 
     68 O           0.2010  -23.7511  -48.5302 O.2       11 UNK        -0.5000 
     69 N          -1.1639  -22.0309  -47.9794 N.am      12 UNK        -0.5000 
     70 CA         -2.3339  -22.4766  -48.7384 C.3       12 UNK         0.1400 
     71 CB         -3.4213  -21.3939  -48.7069 C.3       12 UNK        -0.1800 
     72 C          -2.8882  -23.8262  -48.2453 C.2       12 UNK         0.5000 
     73 O          -3.2264  -24.6754  -49.0695 O.2       12 UNK        -0.5000 
     74 N          -2.9320  -24.0193  -46.9197 N.am      13 UNK        -0.5000 
     75 CA         -3.3175  -25.2760  -46.2771 C.3       13 UNK         0.1400 
     76 CB         -3.4691  -25.0639  -44.7636 C.3       13 UNK        -0.1800 
     77 C          -2.3335  -26.4207  -46.5812 C.2       13 UNK         0.5000 
     78 O          -2.7737  -27.5182  -46.9240 O.2       13 UNK        -0.5000 
     79 N          -1.0244  -26.1380  -46.5070 N.am      14 UNK        -0.5000 
     80 CA          0.0538  -27.0658  -46.8660 C.3       14 UNK         0.1400 
     81 CB          1.4085  -26.4585  -46.4723 C.3       14 UNK        -0.1800 
     82 C           0.0420  -27.4550  -48.3578 C.2       14 UNK         0.5000 
     83 O           0.3468  -28.6001  -48.6920 O.2       14 UNK        -0.5000 
     84 N          -0.3617  -26.5114  -49.2180 N.am      15 UNK        -0.5000 
     85 CA         -0.5985  -26.7015  -50.6496 C.3       15 UNK         0.1400 
     86 CB         -0.5178  -25.3334  -51.3493 C.3       15 UNK        -0.1800 
     87 C          -1.9366  -27.4048  -50.9700 C.2       15 UNK         0.5000 
     88 O          -2.2586  -27.5550  -52.1480 O.2       15 UNK        -0.5000 
     89 N          -2.7042  -27.8044  -49.9436 N.am      16 UNK        -0.5000 
     90 CA         -4.0006  -28.4877  -50.0159 C.3       16 UNK         0.1400 
     91 CB         -3.8447  -29.8989  -50.6205 C.3       16 UNK        -0.1800 
     92 C          -5.0882  -27.6436  -50.7127 C.2       16 UNK         0.5000 
     93 O          -5.9106  -28.1811  -51.4563 O.2       16 UNK        -0.5000 
     94 N          -5.0583  -26.3279  -50.4560 N.am      17 UNK        -0.5000 
     95 CA         -5.9523  -25.2882  -50.9723 C.3       17 UNK         0.1400 
     96 CB         -7.4160  -25.5433  -50.5564 C.3       17 UNK        -0.1800 
     97 C          -5.7996  -25.0143  -52.4825 C.2       17 UNK         0.5000 
     98 O          -6.6684  -24.3642  -53.0652 O.2       17 UNK        -0.5000 
     99 N          -4.6828  -25.4473  -53.0904 N.am      18 UNK        -0.5000 
    100 CA        -4.3564  -25.2216  -54.5053 C.3       18 UNK         0.1400 
    101 CB        -3.1062  -26.0316  -54.8764 C.3       18 UNK        -0.1800 
    102 C         -4.1639  -23.7359  -54.8758 C.2       18 UNK         0.5000 
    103 O         -4.3163  -23.3773  -56.0439 O.2       18 UNK        -0.5000 
    104 N         -3.8649  -22.8969  -53.8736 N.am      19 UNK        -0.5000 
    105 CA        -3.8141  -21.4378  -53.9810 C.3       19 UNK         0.1400 
    106 CB        -3.1252  -20.8771  -52.7258 C.3       19 UNK        -0.1800 
    107 C         -5.2025  -20.7867  -54.1661 C.2       19 UNK         0.5000 
    108 O         -5.2692  -19.6363  -54.6018 O.2       19 UNK        -0.5000 
    109 N         -6.2781  -21.5188  -53.8303 N.am      20 UNK        -0.5000 
    110 CA        -7.6807  -21.0989  -53.8521 C.3       20 UNK         0.1400 
    111 CB        -8.1723  -20.9365  -55.3086 C.3       20 UNK        -0.1800 
    112 C         -7.9066  -19.8632  -52.9553 C.2       20 UNK         0.5000 
    113 O         -7.5789  -19.9156  -51.7684 O.2       20 UNK        -0.5000 
    114 N         -8.4364  -18.7750  -53.5281 N.am      21 UNK        -0.5000 
    115 CA        -8.6232  -17.4861  -52.8583 C.3       21 UNK         0.1400 
    116 CB        -9.6273  -16.6518  -53.6694 C.3       21 UNK        -0.1800 
    117 C         -7.3088  -16.7019  -52.6569 C.2       21 UNK         0.5000 
    118 O         -7.2878  -15.7675  -51.8549 O.2       21 UNK        -0.5000 
    119 N         -6.2468  -17.0814  -53.3829 N.am      22 UNK        -0.5000 
    120 CA        -4.9114  -16.4619  -53.3626 C.3       22 UNK         0.1400 
    121 C         -4.8533  -15.0143  -53.9474 C.2       22 UNK         0.5000 
    122 N         -5.8224  -14.5927  -54.7515 N.am      22 UNK        -0.7600 
    123 O         -3.9141  -14.2643  -53.6959 O.2       22 UNK        -0.5000 
    124 C124       -4.2161  -16.6095  -51.9780 C.3       23 UNK        -0.0398 
    125 S125       -2.4202  -16.8864  -52.1276 S.3       23 UNK        -0.2404 
    126 C126       -2.0546  -17.6215  -50.5065 C.3       23 UNK        -0.0205 
    127 H127        5.3567  -14.8230  -42.6391 H         1 UNK         0.0600 
    128 H128        6.8830  -14.2347  -43.3004 H         1 UNK         0.0600 
    129 H129        6.1350  -15.6924  -43.9618 H         1 UNK         0.0600 
    130 H130        5.4423  -15.1943  -46.0344 H         1 UNK         0.3000 
    131 H131        3.4166  -13.3117  -46.5616 H         1 UNK         0.0600 
    132 H132        4.0235  -13.8231  -49.0321 H         1 UNK         0.0800 
    133 H133        5.2887  -14.8628  -48.4375 H         1 UNK         0.0800 
    134 H134        3.5745  -16.1393  -50.3763 H         1 UNK         0.0800 
    135 H135        2.2378  -15.0357  -50.1541 H         1 UNK         0.0800 
    136 H136       -0.0443  -15.8524  -50.0455 H         1 UNK         0.1150 
    137 H137       -0.7796  -20.0310  -50.6425 H         1 UNK         0.1150 
    138 H138        3.2294  -18.6168  -50.0687 H         1 UNK         0.1150 
    139 H139        0.9637  -21.6178  -50.5276 H         1 UNK         0.0800 
    140 H140        2.3577  -21.0214  -51.3907 H         1 UNK         0.0800 
    141 H141        1.1639  -20.1420  -47.8435 H         1 UNK         0.0800 
    142 H142        2.5420  -20.5484  -46.8785 H         1 UNK         0.0800 
    143 H143        1.8127  -22.9505  -46.8191 H         1 UNK         0.0600 
    144 H144        0.6111  -20.8105  -45.4156 H         1 UNK         0.3000 
    145 H145       -1.3557  -22.7670  -43.1513 H         1 UNK         0.0600 
    146 H146       -0.0392  -21.4198  -41.5521 H         1 UNK         0.0600 
    147 H147        0.9757  -22.6736  -42.2479 H         1 UNK         0.0600 
    148 H148        1.1319  -21.0115  -42.8043 H         1 UNK         0.0600 
    149 H149       -1.0546  -19.9586  -43.3939 H         1 UNK         0.3000 
    150 H150       -3.7217  -19.4406  -45.7725 H         1 UNK         0.0600 
    151 H151       -4.7071  -19.5960  -43.4832 H         1 UNK         0.0600 
    152 H152       -4.4105  -17.9257  -43.9415 H         1 UNK         0.0600 
    153 H153       -3.3234  -18.7376  -42.8173 H         1 UNK         0.0600 
    154 H154       -1.9791  -17.5635  -44.5755 H         1 UNK         0.3000 
    155 H155        0.5950  -17.6452  -47.0930 H         1 UNK         0.0600 
    156 H156       -1.4445  -15.5565  -46.1534 H         1 UNK         0.0600 
    157 H157       -1.2470  -16.0987  -47.8089 H         1 UNK         0.0600 
    158 H158        0.0603  -15.2372  -47.0132 H         1 UNK         0.0600 
    159 H159        0.4295  -16.1894  -44.6589 H         1 UNK         0.3000 
    160 H160        1.9877  -18.5944  -42.5180 H         1 UNK         0.0600 
    161 H161        2.8909  -15.9195  -43.7081 H         1 UNK         0.0600 
    162 H162        3.8321  -17.3979  -43.6246 H         1 UNK         0.0600 
    163 H163        3.4008  -16.5581  -42.1430 H         1 UNK         0.0600 
    164 H164        0.8595  -15.9543  -42.1734 H         1 UNK         0.3000 
    165 H165       -2.3794  -17.0734  -41.1575 H         1 UNK         0.0600 
    166 H166       -1.7820  -15.8552  -39.0828 H         1 UNK         0.0600 
    167 H167       -0.9692  -17.4114  -39.1214 H         1 UNK         0.0600 
    168 H168       -0.0672  -15.9455  -39.4867 H         1 UNK         0.0600 
    169 H169       -1.1639  -14.4953  -41.1720 H         1 UNK         0.3000 
    170 H170       -1.6974  -13.6404  -44.5557 H         1 UNK         0.0600 
    171 H171       -3.9925  -13.3240  -43.6200 H         1 UNK         0.0600 
    172 H172       -3.3110  -12.7253  -42.1122 H         1 UNK         0.0600 
    173 H173       -3.0900  -11.8174  -43.6086 H         1 UNK         0.0600 
    174 H174       -0.9113  -12.0890  -42.3040 H         1 UNK         0.3000 
    175 H175        1.1104  -11.8718  -41.4922 H         1 UNK         0.0600 
    176 H176        3.1669  -13.9784  -42.2979 H         1 UNK         0.0600 
    177 H177        3.3473  -12.8084  -40.9966 H         1 UNK         0.0600 
    178 H178        2.1056  -14.0490  -40.8998 H         1 UNK         0.0600 
    179 H179        3.1880  -11.8611  -43.5895 H         1 UNK         0.3000 
    180 H180        2.2484   -8.5272  -44.6158 H         1 UNK         0.0600 
    181 H181        4.7231   -9.7398  -43.2780 H         1 UNK         0.0600 
    182 H182        3.7877   -8.3903  -42.6444 H         1 UNK         0.0600 
    183 H183        4.6520   -8.2160  -44.1633 H         1 UNK         0.0600 
    184 H184        4.2445  -10.2332  -45.6522 H         1 UNK         0.3000 
    185 H185        2.6198  -11.9439  -48.0880 H         1 UNK         0.0600 
    186 H186        3.2980  -10.4153  -49.9174 H         1 UNK         0.0600 
    187 H187        1.7996   -9.8892  -49.1704 H         1 UNK         0.0600 
    188 H188        3.3016   -9.0525  -48.7979 H         1 UNK         0.0600 
    189 H189        5.1096  -10.3788  -47.9166 H         1 UNK         0.3000 
    190 H190       -1.2502  -21.1454  -47.4862 H         1 UNK         0.3000 
    191 H191       -2.0207  -22.6072  -49.7760 H         1 UNK         0.0600 
    192 H192       -3.7736  -21.2044  -47.6931 H         1 UNK         0.0600 
    193 H193       -4.2843  -21.6879  -49.3057 H         1 UNK         0.0600 
    194 H194       -3.0493  -20.4532  -49.1098 H         1 UNK         0.0600 
    195 H195       -2.6964  -23.2446  -46.3052 H         1 UNK         0.3000 
    196 H196       -4.2927  -25.5648  -46.6748 H         1 UNK         0.0600 
    197 H197       -3.7879  -25.9832  -44.2708 H         1 UNK         0.0600 
    198 H198       -4.2174  -24.3015  -44.5464 H         1 UNK         0.0600 
    199 H199       -2.5324  -24.7521  -44.3023 H         1 UNK         0.0600 
    200 H200       -0.7395  -25.2217  -46.1701 H         1 UNK         0.3000 
    201 H201       -0.0894  -27.9799  -46.2864 H         1 UNK         0.0600 
    202 H202        1.4509  -26.2498  -45.4032 H         1 UNK         0.0600 
    203 H203        1.6013  -25.5258  -47.0026 H         1 UNK         0.0600 
    204 H204        2.2258  -27.1428  -46.7031 H         1 UNK         0.0600 
    205 H205       -0.5127  -25.5724  -48.8614 H         1 UNK         0.3000 
    206 H206        0.1978  -27.3319  -51.0498 H         1 UNK         0.0600 
    207 H207        0.4309  -24.8385  -51.1406 H         1 UNK         0.0600 
    208 H208       -0.5937  -25.4387  -52.4318 H         1 UNK         0.0600 
    209 H209       -1.3191  -24.6689  -51.0270 H         1 UNK         0.0600 
    210 H210       -2.3818  -27.6052  -49.0040 H         1 UNK         0.3000 
    211 H211       -4.3343  -28.6110  -48.9849 H         1 UNK         0.0600 
    212 H212       -3.5732  -29.8616  -51.6759 H         1 UNK         0.0600 
    213 H213       -4.7754  -30.4621  -50.5430 H         1 UNK         0.0600 
    214 H214       -3.0775  -30.4689  -50.0964 H         1 UNK         0.0600 
    215 H215       -4.3101  -25.9723  -49.8634 H         1 UNK         0.3000 
    216 H216       -5.6379  -24.3671  -50.4798 H         1 UNK         0.0600 
    217 H217       -8.0430  -24.6802  -50.7834 H         1 UNK         0.0600 
    218 H218       -7.4955  -25.7258  -49.4848 H         1 UNK         0.0600 
    219 H219       -7.8442  -26.3999  -51.0771 H         1 UNK         0.0600 
    220 H220       -4.0220  -25.9979  -52.5573 H         1 UNK         0.3000 
    221 H221       -5.1919  -25.5962  -55.1001 H         1 UNK         0.0600 
    222 H222       -2.2378  -25.7179  -54.2965 H         1 UNK         0.0600 
    223 H223       -3.2606  -27.0966  -54.7023 H         1 UNK         0.0600 
    224 H224       -2.8581  -25.9093  -55.9315 H         1 UNK         0.0600 
    225 H225       -3.7404  -23.2881  -52.9523 H         1 UNK         0.3000 
    226 H226       -3.2093  -21.1771  -54.8519 H         1 UNK         0.0600 
    227 H227       -2.1213  -21.2854  -52.6074 H         1 UNK         0.0600 
    228 H228       -3.0272  -19.7930  -52.7888 H         1 UNK         0.0600 
    229 H229       -3.6905  -21.1020  -51.8208 H         1 UNK         0.0600 
    230 H230       -6.1310  -22.4640  -53.4942 H         1 UNK         0.3000 
    231 H231       -8.2518  -21.9110  -53.4000 H         1 UNK         0.0600 
    232 H232       -8.0162  -21.8566  -55.8722 H         1 UNK         0.0600 
    233 H233       -7.6499  -20.1381  -55.8367 H         1 UNK         0.0600 
    234 H234       -9.2408  -20.7207  -55.3438 H         1 UNK         0.0600 
    235 H235       -8.6717  -18.8132  -54.5093 H         1 UNK         0.3000 
    236 H236       -9.0504  -17.6668  -51.8697 H         1 UNK         0.0600 
    237 H237       -9.8184  -15.6919  -53.1877 H         1 UNK         0.0600 
    238 H238       -9.2610  -16.4467  -54.6760 H         1 UNK         0.0600 
    239 H239      -10.5853  -17.1644  -53.7581 H         1 UNK         0.0600 
    240 H240       -6.3308  -17.8901  -53.9879 H         1 UNK         0.3000 
    241 H241       -4.3448  -17.0588  -54.0780 H         1 UNK         0.0600 
    242 H242       -5.7797  -13.6609  -55.1337 H         1 UNK         0.3800 
    243 H243       -6.5966  -15.1946  -54.9814 H         1 UNK         0.3800 
    244 H244       -4.4052  -15.7434  -51.3415 H         1 UNK         0.0800 
    245 H245       -4.6300  -17.4674  -51.4457 H         1 UNK         0.0800 
    246 H246       -2.6357  -18.5360  -50.3867 H         1 UNK         0.0800 
    247 H247       -2.3768  -16.9425  -49.7167 H         1 UNK         0.0800 
@<TRIPOS>BOND
     1    1    2 1    
     2    1  127 1    
     3    1  128 1    
     4    1  129 1    
     5    2    3 2    
     6    2    4 am   BACKBONE|DICT|INTERRES
     7    4    5 1    
     8    4  130 1    
     9    5    6 1    
    10    5   65 1    
    11    5  131 1    
    12    6    7 1    
    13    6  132 1    
    14    6  133 1    
    15    7    8 1    
    16    8    9 1    
    17    8  134 1    
    18    8  135 1    
    19    9   10 ar   
    20    9   14 ar   
    21   10   11 ar   
    22   10  136 1    
    23   11   12 ar   
    24   11  126 1    
    25   12   13 ar   
    26   12  137 1    
    27   13   14 ar   
    28   13   15 1    
    29   14  138 1    
    30   15   16 1    
    31   15  139 1    
    32   15  140 1    
    33   16   17 1    
    34   17   18 1    
    35   17  141 1    
    36   17  142 1    
    37   18   19 1    
    38   18   67 1    
    39   18  143 1    
    40   19   20 am   BACKBONE|DICT|INTERRES
    41   19  144 1    
    42   20   21 2    
    43   20   22 1    
    44   22   23 1    
    45   22   24 1    
    46   22  145 1    
    47   23  146 1    
    48   23  147 1    
    49   23  148 1    
    50   24   25 am   BACKBONE|DICT|INTERRES
    51   24  149 1    
    52   25   26 2    
    53   25   27 1    
    54   27   28 1    
    55   27   29 1    
    56   27  150 1    
    57   28  151 1    
    58   28  152 1    
    59   28  153 1    
    60   29   30 am   BACKBONE|DICT|INTERRES
    61   29  154 1    
    62   30   31 2    
    63   30   32 1    
    64   32   33 1    
    65   32   34 1    
    66   32  155 1    
    67   33  156 1    
    68   33  157 1    
    69   33  158 1    
    70   34   35 am   BACKBONE|DICT|INTERRES
    71   34  159 1    
    72   35   36 2    
    73   35   37 1    
    74   37   38 1    
    75   37   39 1    
    76   37  160 1    
    77   38  161 1    
    78   38  162 1    
    79   38  163 1    
    80   39   40 am   BACKBONE|DICT|INTERRES
    81   39  164 1    
    82   40   41 2    
    83   40   42 1    
    84   42   43 1    
    85   42   44 1    
    86   42  165 1    
    87   43  166 1    
    88   43  167 1    
    89   43  168 1    
    90   44   45 am   BACKBONE|DICT|INTERRES
    91   44  169 1    
    92   45   46 2    
    93   45   47 1    
    94   47   48 1    
    95   47   49 1    
    96   47  170 1    
    97   48  171 1    
    98   48  172 1    
    99   48  173 1    
   100   49   50 am   BACKBONE|DICT|INTERRES
   101   49  174 1    
   102   50   51 2    
   103   50   52 1    
   104   52   53 1    
   105   52   54 1    
   106   52  175 1    
   107   53  176 1    
   108   53  177 1    
   109   53  178 1    
   110   54   55 am   BACKBONE|DICT|INTERRES
   111   54  179 1    
   112   55   56 2    
   113   55   57 1    
   114   57   58 1    
   115   57   59 1    
   116   57  180 1    
   117   58  181 1    
   118   58  182 1    
   119   58  183 1    
   120   59   60 am   BACKBONE|DICT|INTERRES
   121   59  184 1    
   122   60   61 2    
   123   60   62 1    
   124   62   63 1    
   125   62   64 1    
   126   62  185 1    
   127   63  186 1    
   128   63  187 1    
   129   63  188 1    
   130   64   65 am   BACKBONE|DICT|INTERRES
   131   64  189 1    
   132   65   66 2    
   133   67   68 2    
   134   67   69 am   BACKBONE|DICT|INTERRES
   135   69   70 1    
   136   69  190 1    
   137   70   71 1    
   138   70   72 1    
   139   70  191 1    
   140   71  192 1    
   141   71  193 1    
   142   71  194 1    
   143   72   73 2    
   144   72   74 am   BACKBONE|DICT|INTERRES
   145   74   75 1    
   146   74  195 1    
   147   75   76 1    
   148   75   77 1    
   149   75  196 1    
   150   76  197 1    
   151   76  198 1    
   152   76  199 1    
   153   77   78 2    
   154   77   79 am   BACKBONE|DICT|INTERRES
   155   79   80 1    
   156   79  200 1    
   157   80   81 1    
   158   80   82 1    
   159   80  201 1    
   160   81  202 1    
   161   81  203 1    
   162   81  204 1    
   163   82   83 2    
   164   82   84 am   BACKBONE|DICT|INTERRES
   165   84   85 1    
   166   84  205 1    
   167   85   86 1    
   168   85   87 1    
   169   85  206 1    
   170   86  207 1    
   171   86  208 1    
   172   86  209 1    
   173   87   88 2    
   174   87   89 am   BACKBONE|DICT|INTERRES
   175   89   90 1    
   176   89  210 1    
   177   90   91 1    
   178   90   92 1    
   179   90  211 1    
   180   91  212 1    
   181   91  213 1    
   182   91  214 1    
   183   92   93 2    
   184   92   94 am   BACKBONE|DICT|INTERRES
   185   94   95 1    
   186   94  215 1    
   187   95   96 1    
   188   95   97 1    
   189   95  216 1    
   190   96  217 1    
   191   96  218 1    
   192   96  219 1    
   193   97   98 2    
   194   97   99 am   BACKBONE|DICT|INTERRES
   195   99  100 1    
   196   99  220 1    
   197  100  101 1    
   198  100  102 1    
   199  100  221 1    
   200  101  222 1    
   201  101  223 1    
   202  101  224 1    
   203  102  103 2    
   204  102  104 am   BACKBONE|DICT|INTERRES
   205  104  105 1    
   206  104  225 1    
   207  105  106 1    
   208  105  107 1    
   209  105  226 1    
   210  106  227 1    
   211  106  228 1    
   212  106  229 1    
   213  107  108 2    
   214  107  109 am   BACKBONE|DICT|INTERRES
   215  109  110 1    
   216  109  230 1    
   217  110  111 1    
   218  110  112 1    
   219  110  231 1    
   220  111  232 1    
   221  111  233 1    
   222  111  234 1    
   223  112  113 2    
   224  112  114 am   BACKBONE|DICT|INTERRES
   225  114  115 1    
   226  114  235 1    
   227  115  116 1    
   228  115  117 1    
   229  115  236 1    
   230  116  237 1    
   231  116  238 1    
   232  116  239 1    
   233  117  118 2    
   234  117  119 am   BACKBONE|DICT|INTERRES
   235  119  120 1    
   236  119  240 1    
   237  120  121 1    
   238  120  124 1    
   239  120  241 1    
   240  121  122 am   BACKBONE|DICT|INTERRES
   241  121  123 2    
   242  122  242 1    
   243  122  243 1    
   244  124  125 1    
   245  124  244 1    
   246  124  245 1    
   247  125  126 1    
   248  126  246 1    
   249  126  247 1    
@<TRIPOS>SUBSTRUCTURE
     1 UNK         1 GROUP             0       ****    0 ROOT    
