@<TRIPOS>MOLECULE
3R540
247   249    1
SMALL
USER_CHARGES


@<TRIPOS>ATOM
      1 CA         -1.1392  -14.9351  -44.2379 C.3       0 UNK        -0.1800 
      2 C          -0.8808  -13.7788  -45.1948 C.2       0 UNK         0.5000 
      3 O          -1.0302  -12.6187  -44.8121 O.2       0 UNK        -0.5000 
      4 N          -0.5168  -14.0920  -46.4452 N.am      1 UNK        -0.5000 
      5 CA         -0.2916  -13.1112  -47.5152 C.3       1 UNK         0.1400 
      6 C6         -0.3270  -13.7560  -48.9231 C.3       23 UNK        -0.0398 
      7 S7         -1.9703  -14.4160  -49.3646 S.3       23 UNK        -0.2404 
      8 C8         -1.8174  -16.1854  -48.9638 C.3       23 UNK        -0.0205 
      9 C9         -0.8371  -16.9180  -49.8689 C.ar      23 UNK        -0.0193 
     10 C10        -1.1976  -17.2304  -51.1832 C.ar      23 UNK        -0.1150 
     11 C11        -0.3017  -17.8946  -52.0254 C.ar      23 UNK        -0.0193 
     12 C12         0.9574  -18.2578  -51.5395 C.ar      23 UNK        -0.1150 
     13 C13         1.3304  -17.9530  -50.2273 C.ar      23 UNK        -0.0193 
     14 C14         0.4250  -17.2911  -49.3923 C.ar      23 UNK        -0.1150 
     15 C15         2.7337  -18.2899  -49.7432 C.3       23 UNK        -0.0205 
     16 S16         2.8976  -20.0275  -49.2257 S.3       23 UNK        -0.2404 
     17 C17         2.2895  -19.9649  -47.5077 C.3       23 UNK        -0.0398 
     18 CA          1.2246  -21.0449  -47.2012 C.3       11 UNK         0.1400 
     19 N           1.1465  -21.3284  -45.7644 N.am      11 UNK        -0.5000 
     20 C           0.4593  -22.3407  -45.2159 C.2       10 UNK         0.5000 
     21 O          -0.1278  -23.2008  -45.8707 O.2       10 UNK        -0.5000 
     22 CA          0.3744  -22.3716  -43.6785 C.3       10 UNK         0.1400 
     23 CB          1.6143  -23.0454  -43.0722 C.3       10 UNK        -0.1800 
     24 N           0.2056  -21.0343  -43.1075 N.am      10 UNK        -0.5000 
     25 C          -0.8884  -20.2765  -43.2705 C.2       9 UNK         0.5000 
     26 O          -1.9080  -20.6714  -43.8353 O.2       9 UNK        -0.5000 
     27 CA         -0.8200  -18.8241  -42.7588 C.3       9 UNK         0.1400 
     28 CB         -1.1966  -18.7473  -41.2725 C.3       9 UNK        -0.1800 
     29 N           0.4944  -18.2122  -42.9621 N.am      9 UNK        -0.5000 
     30 C           1.0365  -17.9525  -44.1600 C.2       8 UNK         0.5000 
     31 O           0.4583  -18.1458  -45.2281 O.2       8 UNK        -0.5000 
     32 CA          2.4845  -17.4359  -44.1730 C.3       8 UNK         0.1400 
     33 CB          2.5339  -15.9224  -43.9369 C.3       8 UNK        -0.1800 
     34 N           3.3099  -18.1111  -43.1744 N.am      8 UNK        -0.5000 
     35 C           3.6990  -19.3898  -43.2603 C.2       7 UNK         0.5000 
     36 O           3.4302  -20.1217  -44.2127 O.2       7 UNK        -0.5000 
     37 CA          4.4799  -19.9513  -42.0583 C.3       7 UNK         0.1400 
     38 CB          5.9700  -19.5956  -42.1661 C.3       7 UNK        -0.1800 
     39 N           3.9561  -19.4701  -40.7779 N.am      7 UNK        -0.5000 
     40 C           2.7497  -19.7912  -40.2895 C.2       6 UNK         0.5000 
     41 O           1.9665  -20.5520  -40.8554 O.2       6 UNK        -0.5000 
     42 CA          2.3289  -19.1154  -38.9717 C.3       6 UNK         0.1400 
     43 CB          2.8367  -19.9209  -37.7667 C.3       6 UNK        -0.1800 
     44 N           2.7830  -17.7265  -38.8554 N.am      6 UNK        -0.5000 
     45 C           2.4112  -16.7311  -39.6705 C.2       5 UNK         0.5000 
     46 O           1.6766  -16.8845  -40.6495 O.2       5 UNK        -0.5000 
     47 CA          3.0017  -15.3488  -39.3664 C.3       5 UNK         0.1400 
     48 CB          4.3677  -15.1912  -40.0547 C.3       5 UNK        -0.1800 
     49 N           2.1076  -14.3096  -39.8663 N.am      5 UNK        -0.5000 
     50 C           1.6816  -13.2436  -39.1814 C.2       4 UNK         0.5000 
     51 O           1.9853  -13.0189  -38.0079 O.2       4 UNK        -0.5000 
     52 CA          0.8185  -12.2339  -39.9693 C.3       4 UNK         0.1400 
     53 CB          0.2069  -11.1428  -39.0718 C.3       4 UNK        -0.1800 
     54 N           1.6193  -11.5920  -41.0140 N.am      4 UNK        -0.5000 
     55 C           1.9107  -12.1503  -42.1938 C.2       3 UNK         0.5000 
     56 O           1.4361  -13.2241  -42.5704 O.2       3 UNK        -0.5000 
     57 CA          2.9503  -11.4307  -43.0632 C.3       3 UNK         0.1400 
     58 CB          4.3523  -11.5741  -42.4325 C.3       3 UNK        -0.1800 
     59 N           2.9225  -12.0369  -44.3903 N.am      3 UNK        -0.5000 
     60 C           3.5856  -11.6269  -45.4762 C.2       2 UNK         0.5000 
     61 O           4.2945  -10.6203  -45.5116 O.2       2 UNK        -0.5000 
     62 CA          3.4317  -12.4902  -46.7411 C.3       2 UNK         0.1400 
     63 CB          4.4539  -13.6377  -46.7422 C.3       2 UNK        -0.1800 
     64 N           2.0856  -13.0457  -46.8951 N.am      2 UNK        -0.5000 
     65 C           1.0295  -12.3396  -47.3234 C.2       1 UNK         0.5000 
     66 O           1.0722  -11.1367  -47.5857 O.2       1 UNK        -0.5000 
     67 C          -0.1552  -20.6767  -47.7887 C.2       11 UNK         0.5000 
     68 O          -0.5092  -21.1606  -48.8637 O.2       11 UNK        -0.5000 
     69 N          -0.9350  -19.8792  -47.0422 N.am      12 UNK        -0.5000 
     70 CA         -2.2745  -19.4133  -47.4081 C.3       12 UNK         0.1400 
     71 CB         -2.8014  -18.4427  -46.3405 C.3       12 UNK        -0.1800 
     72 C          -3.3010  -20.5274  -47.6696 C.2       12 UNK         0.5000 
     73 O          -4.2559  -20.2877  -48.4065 O.2       12 UNK        -0.5000 
     74 N          -3.0707  -21.7343  -47.1335 N.am      13 UNK        -0.5000 
     75 CA         -3.8608  -22.9403  -47.4011 C.3       13 UNK         0.1400 
     76 CB         -3.3595  -24.0790  -46.5012 C.3       13 UNK        -0.1800 
     77 C          -3.8634  -23.3796  -48.8827 C.2       13 UNK         0.5000 
     78 O          -4.7423  -24.1437  -49.2776 O.2       13 UNK        -0.5000 
     79 N          -2.9082  -22.8811  -49.6822 N.am      14 UNK        -0.5000 
     80 CA         -2.8705  -23.0387  -51.1362 C.3       14 UNK         0.1400 
     81 CB         -1.4589  -22.6888  -51.6308 C.3       14 UNK        -0.1800 
     82 C          -3.9301  -22.1922  -51.8762 C.2       14 UNK         0.5000 
     83 O          -4.2336  -22.5002  -53.0295 O.2       14 UNK        -0.5000 
     84 N          -4.4719  -21.1583  -51.2156 N.am      15 UNK        -0.5000 
     85 CA         -5.4855  -20.2520  -51.7559 C.3       15 UNK         0.1400 
     86 CB         -4.9445  -18.8132  -51.7103 C.3       15 UNK        -0.1800 
     87 C          -6.8086  -20.3455  -50.9772 C.2       15 UNK         0.5000 
     88 O          -7.8749  -20.3208  -51.5918 O.2       15 UNK        -0.5000 
     89 N          -6.7323  -20.4344  -49.6424 N.am      16 UNK        -0.5000 
     90 CA         -7.8733  -20.5088  -48.7318 C.3       16 UNK         0.1400 
     91 CB         -7.3809  -20.3027  -47.2893 C.3       16 UNK        -0.1800 
     92 C          -8.6285  -21.8400  -48.8926 C.2       16 UNK         0.5000 
     93 O          -8.1679  -22.8667  -48.3904 O.2       16 UNK        -0.5000 
     94 N          -9.7560  -21.7878  -49.6177 N.am      17 UNK        -0.5000 
     95 CA        -10.6089  -22.9154  -50.0143 C.3       17 UNK         0.1400 
     96 CB        -11.3024  -23.5397  -48.7848 C.3       17 UNK        -0.1800 
     97 C          -9.8609  -23.9514  -50.8827 C.2       17 UNK         0.5000 
     98 O         -10.0814  -25.1563  -50.7426 O.2       17 UNK        -0.5000 
     99 N          -8.9818  -23.4587  -51.7622 N.am      18 UNK        -0.5000 
    100 CA        -8.1255  -24.2483  -52.6394 C.3       18 UNK         0.1400 
    101 CB        -6.8343  -24.6119  -51.8862 C.3       18 UNK        -0.1800 
    102 C         -7.8367  -23.4626  -53.9276 C.2       18 UNK         0.5000 
    103 O         -8.2011  -22.2892  -54.0362 O.2       18 UNK        -0.5000 
    104 N         -7.1970  -24.1305  -54.8894 N.am      19 UNK        -0.5000 
    105 CA        -6.7969  -23.5849  -56.1805 C.3       19 UNK         0.1400 
    106 CB        -7.9865  -23.6371  -57.1579 C.3       19 UNK        -0.1800 
    107 C         -5.6026  -24.3929  -56.7075 C.2       19 UNK         0.5000 
    108 O         -5.2679  -25.4367  -56.1394 O.2       19 UNK        -0.5000 
    109 N         -4.9806  -23.8905  -57.7826 N.am      20 UNK        -0.5000 
    110 CA        -3.8587  -24.4538  -58.5510 C.3       20 UNK         0.1400 
    111 CB        -4.2120  -25.8365  -59.1315 C.3       20 UNK        -0.1800 
    112 C         -2.5056  -24.4946  -57.8120 C.2       20 UNK         0.5000 
    113 O         -1.4733  -24.2746  -58.4461 O.2       20 UNK        -0.5000 
    114 N         -2.5184  -24.7342  -56.4952 N.am      21 UNK        -0.5000 
    115 CA        -1.3429  -24.8054  -55.6219 C.3       21 UNK         0.1400 
    116 CB        -1.7926  -25.2542  -54.2237 C.3       21 UNK        -0.1800 
    117 C         -0.5278  -23.4962  -55.5535 C.2       21 UNK         0.5000 
    118 O          0.6882  -23.5505  -55.3674 O.2       21 UNK        -0.5000 
    119 N         -1.2025  -22.3556  -55.7444 N.am      22 UNK        -0.5000 
    120 CA        -0.5885  -21.0294  -55.9270 C.3       22 UNK         0.1400 
    121 C         -0.0274  -20.7731  -57.3601 C.2       22 UNK         0.5000 
    122 N         -0.1706  -21.6747  -58.3243 N.am      22 UNK        -0.7600 
    123 O          0.5716  -19.7289  -57.6031 O.2       22 UNK        -0.5000 
    124 C124       -1.5542  -19.8971  -55.4835 C.3       23 UNK        -0.0398 
    125 S125       -1.5981  -19.7212  -53.6687 S.3       23 UNK        -0.2404 
    126 C126       -0.6670  -18.1710  -53.4753 C.3       23 UNK        -0.0205 
    127 H127       -1.1240  -15.8948  -44.7525 H         1 UNK         0.0600 
    128 H128       -2.1159  -14.8224  -43.7679 H         1 UNK         0.0600 
    129 H129       -0.3852  -14.9573  -43.4521 H         1 UNK         0.0600 
    130 H130       -0.4225  -15.0617  -46.7043 H         1 UNK         0.3000 
    131 H131       -1.0974  -12.3748  -47.4686 H         1 UNK         0.0600 
    132 H132        0.4319  -14.5327  -49.0170 H         1 UNK         0.0800 
    133 H133       -0.0812  -13.0119  -49.6833 H         1 UNK         0.0800 
    134 H134       -1.5301  -16.2939  -47.9192 H         1 UNK         0.0800 
    135 H135       -2.8028  -16.6440  -49.0582 H         1 UNK         0.0800 
    136 H136       -2.1703  -16.9409  -51.5556 H         1 UNK         0.1150 
    137 H137        1.6582  -18.7621  -52.1901 H         1 UNK         0.1150 
    138 H138        0.7089  -17.0530  -48.3771 H         1 UNK         0.1150 
    139 H139        3.4421  -18.1046  -50.5521 H         1 UNK         0.0800 
    140 H140        3.0340  -17.6270  -48.9302 H         1 UNK         0.0800 
    141 H141        1.9199  -18.9678  -47.2675 H         1 UNK         0.0800 
    142 H142        3.1629  -20.1163  -46.8725 H         1 UNK         0.0800 
    143 H143        1.5406  -21.9750  -47.6789 H         1 UNK         0.0600 
    144 H144        1.6520  -20.7002  -45.1503 H         1 UNK         0.3000 
    145 H145       -0.4998  -22.9669  -43.4063 H         1 UNK         0.0600 
    146 H146        1.5256  -23.1305  -41.9891 H         1 UNK         0.0600 
    147 H147        1.7430  -24.0534  -43.4683 H         1 UNK         0.0600 
    148 H148        2.5255  -22.4886  -43.2898 H         1 UNK         0.0600 
    149 H149        0.9717  -20.6760  -42.5457 H         1 UNK         0.3000 
    150 H150       -1.5490  -18.2391  -43.3234 H         1 UNK         0.0600 
    151 H151       -2.1995  -19.1413  -41.1039 H         1 UNK         0.0600 
    152 H152       -1.1857  -17.7172  -40.9156 H         1 UNK         0.0600 
    153 H153       -0.5095  -19.3234  -40.6533 H         1 UNK         0.0600 
    154 H154        1.0134  -17.9565  -42.1270 H         1 UNK         0.3000 
    155 H155        2.9042  -17.6386  -45.1607 H         1 UNK         0.0600 
    156 H156        1.9605  -15.3869  -44.6936 H         1 UNK         0.0600 
    157 H157        2.1190  -15.6630  -42.9642 H         1 UNK         0.0600 
    158 H158        3.5566  -15.5478  -43.9710 H         1 UNK         0.0600 
    159 H159        3.5244  -17.5937  -42.3354 H         1 UNK         0.3000 
    160 H160        4.3855  -21.0392  -42.0788 H         1 UNK         0.0600 
    161 H161        6.1329  -18.5178  -42.1255 H         1 UNK         0.0600 
    162 H162        6.3898  -19.9561  -43.1062 H         1 UNK         0.0600 
    163 H163        6.5434  -20.0525  -41.3594 H         1 UNK         0.0600 
    164 H164        4.5405  -18.8405  -40.2483 H         1 UNK         0.3000 
    165 H165        1.2376  -19.1101  -38.9395 H         1 UNK         0.0600 
    166 H166        2.4667  -19.5047  -36.8295 H         1 UNK         0.0600 
    167 H167        2.4956  -20.9559  -37.8176 H         1 UNK         0.0600 
    168 H168        3.9263  -19.9362  -37.7213 H         1 UNK         0.0600 
    169 H169        3.4009  -17.5215  -38.0832 H         1 UNK         0.3000 
    170 H170        3.1297  -15.2599  -38.2856 H         1 UNK         0.0600 
    171 H171        4.2854  -15.2815  -41.1389 H         1 UNK         0.0600 
    172 H172        4.8062  -14.2173  -39.8358 H         1 UNK         0.0600 
    173 H173        5.0732  -15.9489  -39.7119 H         1 UNK         0.0600 
    174 H174        1.7869  -14.4301  -40.8213 H         1 UNK         0.3000 
    175 H175       -0.0046  -12.7869  -40.4275 H         1 UNK         0.0600 
    176 H176       -0.4368  -10.4768  -39.6467 H         1 UNK         0.0600 
    177 H177        0.9746  -10.5345  -38.5921 H         1 UNK         0.0600 
    178 H178       -0.4050  -11.5835  -38.2837 H         1 UNK         0.0600 
    179 H179        2.0738  -10.7277  -40.7567 H         1 UNK         0.3000 
    180 H180        2.6762  -10.3773  -43.1440 H         1 UNK         0.0600 
    181 H181        5.1106  -11.0406  -43.0048 H         1 UNK         0.0600 
    182 H182        4.6559  -12.6201  -42.3697 H         1 UNK         0.0600 
    183 H183        4.3766  -11.1660  -41.4216 H         1 UNK         0.0600 
    184 H184        2.3205  -12.8493  -44.4439 H         1 UNK         0.3000 
    185 H185        3.6448  -11.8538  -47.6030 H         1 UNK         0.0600 
    186 H186        5.4710  -13.2530  -46.6562 H         1 UNK         0.0600 
    187 H187        4.2933  -14.3247  -45.9117 H         1 UNK         0.0600 
    188 H188        4.4022  -14.2114  -47.6678 H         1 UNK         0.0600 
    189 H189        1.9684  -14.0272  -46.6964 H         1 UNK         0.3000 
    190 H190       -0.5405  -19.4841  -46.1937 H         1 UNK         0.3000 
    191 H191       -2.1675  -18.8723  -48.3472 H         1 UNK         0.0600 
    192 H192       -2.0766  -17.6635  -46.1113 H         1 UNK         0.0600 
    193 H193       -3.7131  -17.9506  -46.6815 H         1 UNK         0.0600 
    194 H194       -3.0413  -18.9568  -45.4109 H         1 UNK         0.0600 
    195 H195       -2.2509  -21.8497  -46.5531 H         1 UNK         0.3000 
    196 H196       -4.8949  -22.7222  -47.1285 H         1 UNK         0.0600 
    197 H197       -3.9968  -24.9591  -46.5961 H         1 UNK         0.0600 
    198 H198       -3.3616  -23.7869  -45.4508 H         1 UNK         0.0600 
    199 H199       -2.3458  -24.3808  -46.7657 H         1 UNK         0.0600 
    200 H200       -2.1941  -22.2811  -49.2805 H         1 UNK         0.3000 
    201 H201       -3.0658  -24.0861  -51.3747 H         1 UNK         0.0600 
    202 H202       -0.7105  -23.3526  -51.1981 H         1 UNK         0.0600 
    203 H203       -1.1881  -21.6647  -51.3728 H         1 UNK         0.0600 
    204 H204       -1.3853  -22.7736  -52.7143 H         1 UNK         0.0600 
    205 H205       -4.1866  -20.9884  -50.2578 H         1 UNK         0.3000 
    206 H206       -5.7051  -20.4975  -52.7971 H         1 UNK         0.0600 
    207 H207       -5.6855  -18.1040  -52.0811 H         1 UNK         0.0600 
    208 H208       -4.6777  -18.5124  -50.6962 H         1 UNK         0.0600 
    209 H209       -4.0567  -18.7074  -52.3322 H         1 UNK         0.0600 
    210 H210       -5.8157  -20.4247  -49.1993 H         1 UNK         0.3000 
    211 H211       -8.5524  -19.6872  -48.9691 H         1 UNK         0.0600 
    212 H212       -6.6643  -21.0686  -46.9922 H         1 UNK         0.0600 
    213 H213       -8.2124  -20.3394  -46.5845 H         1 UNK         0.0600 
    214 H214       -6.8968  -19.3328  -47.1732 H         1 UNK         0.0600 
    215 H215      -10.0085  -20.8968  -50.0233 H         1 UNK         0.3000 
    216 H216      -11.3893  -22.4976  -50.6519 H         1 UNK         0.0600 
    217 H217      -12.0404  -24.2831  -49.0883 H         1 UNK         0.0600 
    218 H218      -11.8273  -22.7831  -48.2017 H         1 UNK         0.0600 
    219 H219      -10.5906  -24.0374  -48.1257 H         1 UNK         0.0600 
    220 H220       -8.8795  -22.4547  -51.8652 H         1 UNK         0.3000 
    221 H221       -8.6439  -25.1643  -52.9305 H         1 UNK         0.0600 
    222 H222       -6.3407  -23.7191  -51.5046 H         1 UNK         0.0600 
    223 H223       -7.0440  -25.2582  -51.0337 H         1 UNK         0.0600 
    224 H224       -6.1233  -25.1377  -52.5243 H         1 UNK         0.0600 
    225 H225       -6.8635  -25.0725  -54.7242 H         1 UNK         0.3000 
    226 H226       -6.4705  -22.5507  -56.0503 H         1 UNK         0.0600 
    227 H227       -8.8307  -23.0565  -56.7857 H         1 UNK         0.0600 
    228 H228       -7.7194  -23.2253  -58.1316 H         1 UNK         0.0600 
    229 H229       -8.3292  -24.6604  -57.3162 H         1 UNK         0.0600 
    230 H230       -5.3245  -23.0108  -58.1427 H         1 UNK         0.3000 
    231 H231       -3.7210  -23.7770  -59.3959 H         1 UNK         0.0600 
    232 H232       -4.3357  -26.5887  -58.3520 H         1 UNK         0.0600 
    233 H233       -3.4249  -26.1894  -59.7990 H         1 UNK         0.0600 
    234 H234       -5.1348  -25.7973  -59.7102 H         1 UNK         0.0600 
    235 H235       -3.4183  -24.9478  -56.0753 H         1 UNK         0.3000 
    236 H236       -0.6796  -25.5727  -56.0262 H         1 UNK         0.0600 
    237 H237       -2.2105  -26.2606  -54.2510 H         1 UNK         0.0600 
    238 H238       -0.9563  -25.2683  -53.5234 H         1 UNK         0.0600 
    239 H239       -2.5561  -24.5900  -53.8193 H         1 UNK         0.0600 
    240 H240       -2.2011  -22.4099  -55.8776 H         1 UNK         0.3000 
    241 H241        0.2920  -20.9797  -55.2831 H         1 UNK         0.0600 
    242 H242       -0.6314  -22.5654  -58.1679 H         1 UNK         0.3800 
    243 H243        0.2123  -21.4765  -59.2351 H         1 UNK         0.3800 
    244 H244       -1.2726  -18.9339  -55.9126 H         1 UNK         0.0800 
    245 H245       -2.5656  -20.0898  -55.8441 H         1 UNK         0.0800 
    246 H246       -1.2587  -17.3445  -53.8718 H         1 UNK         0.0800 
    247 H247        0.2401  -18.2167  -54.0803 H         1 UNK         0.0800 
@<TRIPOS>BOND
     1    1    2 1    
     2    1  127 1    
     3    1  128 1    
     4    1  129 1    
     5    2    3 2    
     6    2    4 am   BACKBONE|DICT|INTERRES
     7    4    5 1    
     8    4  130 1    
     9    5    6 1    
    10    5   65 1    
    11    5  131 1    
    12    6    7 1    
    13    6  132 1    
    14    6  133 1    
    15    7    8 1    
    16    8    9 1    
    17    8  134 1    
    18    8  135 1    
    19    9   10 ar   
    20    9   14 ar   
    21   10   11 ar   
    22   10  136 1    
    23   11   12 ar   
    24   11  126 1    
    25   12   13 ar   
    26   12  137 1    
    27   13   14 ar   
    28   13   15 1    
    29   14  138 1    
    30   15   16 1    
    31   15  139 1    
    32   15  140 1    
    33   16   17 1    
    34   17   18 1    
    35   17  141 1    
    36   17  142 1    
    37   18   19 1    
    38   18   67 1    
    39   18  143 1    
    40   19   20 am   BACKBONE|DICT|INTERRES
    41   19  144 1    
    42   20   21 2    
    43   20   22 1    
    44   22   23 1    
    45   22   24 1    
    46   22  145 1    
    47   23  146 1    
    48   23  147 1    
    49   23  148 1    
    50   24   25 am   BACKBONE|DICT|INTERRES
    51   24  149 1    
    52   25   26 2    
    53   25   27 1    
    54   27   28 1    
    55   27   29 1    
    56   27  150 1    
    57   28  151 1    
    58   28  152 1    
    59   28  153 1    
    60   29   30 am   BACKBONE|DICT|INTERRES
    61   29  154 1    
    62   30   31 2    
    63   30   32 1    
    64   32   33 1    
    65   32   34 1    
    66   32  155 1    
    67   33  156 1    
    68   33  157 1    
    69   33  158 1    
    70   34   35 am   BACKBONE|DICT|INTERRES
    71   34  159 1    
    72   35   36 2    
    73   35   37 1    
    74   37   38 1    
    75   37   39 1    
    76   37  160 1    
    77   38  161 1    
    78   38  162 1    
    79   38  163 1    
    80   39   40 am   BACKBONE|DICT|INTERRES
    81   39  164 1    
    82   40   41 2    
    83   40   42 1    
    84   42   43 1    
    85   42   44 1    
    86   42  165 1    
    87   43  166 1    
    88   43  167 1    
    89   43  168 1    
    90   44   45 am   BACKBONE|DICT|INTERRES
    91   44  169 1    
    92   45   46 2    
    93   45   47 1    
    94   47   48 1    
    95   47   49 1    
    96   47  170 1    
    97   48  171 1    
    98   48  172 1    
    99   48  173 1    
   100   49   50 am   BACKBONE|DICT|INTERRES
   101   49  174 1    
   102   50   51 2    
   103   50   52 1    
   104   52   53 1    
   105   52   54 1    
   106   52  175 1    
   107   53  176 1    
   108   53  177 1    
   109   53  178 1    
   110   54   55 am   BACKBONE|DICT|INTERRES
   111   54  179 1    
   112   55   56 2    
   113   55   57 1    
   114   57   58 1    
   115   57   59 1    
   116   57  180 1    
   117   58  181 1    
   118   58  182 1    
   119   58  183 1    
   120   59   60 am   BACKBONE|DICT|INTERRES
   121   59  184 1    
   122   60   61 2    
   123   60   62 1    
   124   62   63 1    
   125   62   64 1    
   126   62  185 1    
   127   63  186 1    
   128   63  187 1    
   129   63  188 1    
   130   64   65 am   BACKBONE|DICT|INTERRES
   131   64  189 1    
   132   65   66 2    
   133   67   68 2    
   134   67   69 am   BACKBONE|DICT|INTERRES
   135   69   70 1    
   136   69  190 1    
   137   70   71 1    
   138   70   72 1    
   139   70  191 1    
   140   71  192 1    
   141   71  193 1    
   142   71  194 1    
   143   72   73 2    
   144   72   74 am   BACKBONE|DICT|INTERRES
   145   74   75 1    
   146   74  195 1    
   147   75   76 1    
   148   75   77 1    
   149   75  196 1    
   150   76  197 1    
   151   76  198 1    
   152   76  199 1    
   153   77   78 2    
   154   77   79 am   BACKBONE|DICT|INTERRES
   155   79   80 1    
   156   79  200 1    
   157   80   81 1    
   158   80   82 1    
   159   80  201 1    
   160   81  202 1    
   161   81  203 1    
   162   81  204 1    
   163   82   83 2    
   164   82   84 am   BACKBONE|DICT|INTERRES
   165   84   85 1    
   166   84  205 1    
   167   85   86 1    
   168   85   87 1    
   169   85  206 1    
   170   86  207 1    
   171   86  208 1    
   172   86  209 1    
   173   87   88 2    
   174   87   89 am   BACKBONE|DICT|INTERRES
   175   89   90 1    
   176   89  210 1    
   177   90   91 1    
   178   90   92 1    
   179   90  211 1    
   180   91  212 1    
   181   91  213 1    
   182   91  214 1    
   183   92   93 2    
   184   92   94 am   BACKBONE|DICT|INTERRES
   185   94   95 1    
   186   94  215 1    
   187   95   96 1    
   188   95   97 1    
   189   95  216 1    
   190   96  217 1    
   191   96  218 1    
   192   96  219 1    
   193   97   98 2    
   194   97   99 am   BACKBONE|DICT|INTERRES
   195   99  100 1    
   196   99  220 1    
   197  100  101 1    
   198  100  102 1    
   199  100  221 1    
   200  101  222 1    
   201  101  223 1    
   202  101  224 1    
   203  102  103 2    
   204  102  104 am   BACKBONE|DICT|INTERRES
   205  104  105 1    
   206  104  225 1    
   207  105  106 1    
   208  105  107 1    
   209  105  226 1    
   210  106  227 1    
   211  106  228 1    
   212  106  229 1    
   213  107  108 2    
   214  107  109 am   BACKBONE|DICT|INTERRES
   215  109  110 1    
   216  109  230 1    
   217  110  111 1    
   218  110  112 1    
   219  110  231 1    
   220  111  232 1    
   221  111  233 1    
   222  111  234 1    
   223  112  113 2    
   224  112  114 am   BACKBONE|DICT|INTERRES
   225  114  115 1    
   226  114  235 1    
   227  115  116 1    
   228  115  117 1    
   229  115  236 1    
   230  116  237 1    
   231  116  238 1    
   232  116  239 1    
   233  117  118 2    
   234  117  119 am   BACKBONE|DICT|INTERRES
   235  119  120 1    
   236  119  240 1    
   237  120  121 1    
   238  120  124 1    
   239  120  241 1    
   240  121  122 am   BACKBONE|DICT|INTERRES
   241  121  123 2    
   242  122  242 1    
   243  122  243 1    
   244  124  125 1    
   245  124  244 1    
   246  124  245 1    
   247  125  126 1    
   248  126  246 1    
   249  126  247 1    
@<TRIPOS>SUBSTRUCTURE
     1 UNK         1 GROUP             0       ****    0 ROOT    
