@<TRIPOS>MOLECULE
3R540
247   249    1
SMALL
USER_CHARGES


@<TRIPOS>ATOM
      1 CA         -0.9652  -14.8487  -46.4009 C.3       0 UNK        -0.1800 
      2 C          -0.1685  -14.3044  -47.5781 C.2       0 UNK         0.5000 
      3 O          -0.1593  -13.0950  -47.8022 O.2       0 UNK        -0.5000 
      4 N           0.5319  -15.1888  -48.3001 N.am      1 UNK        -0.5000 
      5 CA          1.4014  -14.9167  -49.4578 C.3       1 UNK         0.1400 
      6 C6          2.0150  -16.2203  -50.0455 C.3       23 UNK        -0.0398 
      7 S7          2.5928  -17.4058  -48.7653 S.3       23 UNK        -0.2404 
      8 C8          1.7972  -18.9942  -49.2000 C.3       23 UNK        -0.0205 
      9 C9          0.3557  -18.8644  -49.6745 C.ar      23 UNK        -0.0193 
     10 C10         0.0216  -19.2426  -50.9787 C.ar      23 UNK        -0.1150 
     11 C11        -1.2888  -19.1136  -51.4430 C.ar      23 UNK        -0.0193 
     12 C12        -2.2700  -18.6028  -50.5915 C.ar      23 UNK        -0.1150 
     13 C13        -1.9496  -18.2097  -49.2908 C.ar      23 UNK        -0.0193 
     14 C14        -0.6367  -18.3560  -48.8302 C.ar      23 UNK        -0.1150 
     15 C15        -3.0294  -17.6119  -48.4036 C.3       23 UNK        -0.0205 
     16 S16        -4.0056  -18.8980  -47.5695 S.3       23 UNK        -0.2404 
     17 C17        -2.8350  -19.4502  -46.2866 C.3       23 UNK        -0.0398 
     18 CA         -2.0807  -20.7451  -46.6735 C.3       11 UNK         0.1400 
     19 N          -0.8016  -20.8546  -45.9683 N.am      11 UNK        -0.5000 
     20 C           0.0758  -21.8600  -46.0859 C.2       10 UNK         0.5000 
     21 O          -0.0558  -22.7957  -46.8758 O.2       10 UNK        -0.5000 
     22 CA          1.2666  -21.8620  -45.1093 C.3       10 UNK         0.1400 
     23 CB          2.4866  -21.1866  -45.7499 C.3       10 UNK        -0.1800 
     24 N           0.9724  -21.2370  -43.8136 N.am      10 UNK        -0.5000 
     25 C           0.0149  -21.6381  -42.9615 C.2       9 UNK         0.5000 
     26 O          -0.7318  -22.5937  -43.1750 O.2       9 UNK        -0.5000 
     27 CA         -0.1898  -20.7948  -41.6908 C.3       9 UNK         0.1400 
     28 CB          0.9156  -21.0652  -40.6595 C.3       9 UNK        -0.1800 
     29 N          -0.2601  -19.3647  -41.9906 N.am      9 UNK        -0.5000 
     30 C          -1.2499  -18.7871  -42.6871 C.2       8 UNK         0.5000 
     31 O          -2.2565  -19.3869  -43.0619 O.2       8 UNK        -0.5000 
     32 CA         -1.0649  -17.3075  -43.0764 C.3       8 UNK         0.1400 
     33 CB         -1.5275  -16.3758  -41.9475 C.3       8 UNK        -0.1800 
     34 N           0.3176  -16.9932  -43.4364 N.am      8 UNK        -0.5000 
     35 C           0.9668  -17.5132  -44.4867 C.2       7 UNK         0.5000 
     36 O           0.4393  -18.2504  -45.3182 O.2       7 UNK        -0.5000 
     37 CA          2.4642  -17.1860  -44.6013 C.3       7 UNK         0.1400 
     38 CB          2.6810  -15.8302  -45.2843 C.3       7 UNK        -0.1800 
     39 N           3.1209  -17.1881  -43.2954 N.am      7 UNK        -0.5000 
     40 C           3.3835  -18.2941  -42.5859 C.2       6 UNK         0.5000 
     41 O           3.1307  -19.4319  -42.9800 O.2       6 UNK        -0.5000 
     42 CA          3.9927  -18.0912  -41.1859 C.3       6 UNK         0.1400 
     43 CB          5.5198  -17.9556  -41.2762 C.3       6 UNK        -0.1800 
     44 N           3.4428  -16.9220  -40.4976 N.am      6 UNK        -0.5000 
     45 C           2.1733  -16.8183  -40.0792 C.2       5 UNK         0.5000 
     46 O           1.3478  -17.7248  -40.1793 O.2       5 UNK        -0.5000 
     47 CA          1.7394  -15.4548  -39.5053 C.3       5 UNK         0.1400 
     48 CB          2.0090  -15.3959  -37.9946 C.3       5 UNK        -0.1800 
     49 N           2.3849  -14.3112  -40.1599 N.am      5 UNK        -0.5000 
     50 C           2.2854  -14.0226  -41.4646 C.2       4 UNK         0.5000 
     51 O           1.6413  -14.7071  -42.2622 O.2       4 UNK        -0.5000 
     52 CA          3.1083  -12.8176  -41.9588 C.3       4 UNK         0.1400 
     53 CB          4.5939  -13.2021  -42.0582 C.3       4 UNK        -0.1800 
     54 N           2.6844  -12.3177  -43.2665 N.am      4 UNK        -0.5000 
     55 C           1.5015  -11.7724  -43.5693 C.2       3 UNK         0.5000 
     56 O           0.6008  -11.6083  -42.7450 O.2       3 UNK        -0.5000 
     57 CA          1.2702  -11.3138  -45.0282 C.3       3 UNK         0.1400 
     58 CB          1.4111   -9.7840  -45.1445 C.3       3 UNK        -0.1800 
     59 N           2.0659  -11.9858  -46.0712 N.am      3 UNK        -0.5000 
     60 C           3.3952  -11.9824  -46.2669 C.2       2 UNK         0.5000 
     61 O           4.1912  -11.4322  -45.5061 O.2       2 UNK        -0.5000 
     62 CA          3.9285  -12.7397  -47.4997 C.3       2 UNK         0.1400 
     63 CB          5.2846  -13.4174  -47.2306 C.3       2 UNK        -0.1800 
     64 N           2.9709  -13.7465  -47.9597 N.am      2 UNK        -0.5000 
     65 C           2.4975  -13.8540  -49.2070 C.2       1 UNK         0.5000 
     66 O           2.8709  -13.1455  -50.1430 O.2       1 UNK        -0.5000 
     67 C          -2.9767  -21.9877  -46.4812 C.2       11 UNK         0.5000 
     68 O          -3.5930  -22.4452  -47.4423 O.2       11 UNK        -0.5000 
     69 N          -3.0005  -22.5300  -45.2572 N.am      12 UNK        -0.5000 
     70 CA         -3.7313  -23.7457  -44.9154 C.3       12 UNK         0.1400 
     71 CB         -4.2811  -23.6142  -43.4868 C.3       12 UNK        -0.1800 
     72 C          -2.8418  -24.9933  -45.0386 C.2       12 UNK         0.5000 
     73 O          -3.2944  -26.0079  -45.5674 O.2       12 UNK        -0.5000 
     74 N          -1.6054  -24.9098  -44.5301 N.am      13 UNK        -0.5000 
     75 CA         -0.7040  -26.0514  -44.3754 C.3       13 UNK         0.1400 
     76 CB          0.3979  -25.6922  -43.3666 C.3       13 UNK        -0.1800 
     77 C          -0.0836  -26.5578  -45.6891 C.2       13 UNK         0.5000 
     78 O           0.1510  -27.7617  -45.8058 O.2       13 UNK        -0.5000 
     79 N           0.1919  -25.6500  -46.6344 N.am      14 UNK        -0.5000 
     80 CA          0.8714  -25.9563  -47.8934 C.3       14 UNK         0.1400 
     81 CB          2.1791  -25.1504  -47.9814 C.3       14 UNK        -0.1800 
     82 C          -0.0320  -25.6720  -49.1002 C.2       14 UNK         0.5000 
     83 O          -0.1749  -26.5400  -49.9623 O.2       14 UNK        -0.5000 
     84 N          -0.6240  -24.4706  -49.1510 N.am      15 UNK        -0.5000 
     85 CA         -1.4466  -24.0226  -50.2792 C.3       15 UNK         0.1400 
     86 CB         -1.4518  -22.4895  -50.3291 C.3       15 UNK        -0.1800 
     87 C          -2.8851  -24.5723  -50.2516 C.2       15 UNK         0.5000 
     88 O          -3.5550  -24.5354  -51.2837 O.2       15 UNK        -0.5000 
     89 N          -3.3374  -25.0547  -49.0833 N.am      16 UNK        -0.5000 
     90 CA         -4.6479  -25.6640  -48.8155 C.3       16 UNK         0.1400 
     91 CB         -4.7287  -27.0503  -49.4871 C.3       16 UNK        -0.1800 
     92 C          -5.8560  -24.7645  -49.1661 C.2       16 UNK         0.5000 
     93 O          -6.9276  -25.2802  -49.4899 O.2       16 UNK        -0.5000 
     94 N          -5.6556  -23.4390  -49.1024 N.am      17 UNK        -0.5000 
     95 CA         -6.5910  -22.3681  -49.4627 C.3       17 UNK         0.1400 
     96 CB         -7.6927  -22.2468  -48.3903 C.3       17 UNK        -0.1800 
     97 C          -7.1529  -22.4936  -50.8994 C.2       17 UNK         0.5000 
     98 O          -8.3333  -22.2175  -51.1255 O.2       17 UNK        -0.5000 
     99 N          -6.3046  -22.9422  -51.8369 N.am      18 UNK        -0.5000 
    100 CA        -6.6479  -23.2028  -53.2359 C.3       18 UNK         0.1400 
    101 CB        -5.4339  -23.8319  -53.9366 C.3       18 UNK        -0.1800 
    102 C         -7.1201  -21.9560  -54.0101 C.2       18 UNK         0.5000 
    103 O         -6.6689  -20.8402  -53.7363 O.2       18 UNK        -0.5000 
    104 N         -8.0004  -22.1888  -54.9902 N.am      19 UNK        -0.5000 
    105 CA        -8.4706  -21.1906  -55.9489 C.3       19 UNK         0.1400 
    106 CB        -9.8099  -21.6684  -56.5341 C.3       19 UNK        -0.1800 
    107 C         -7.4405  -20.9582  -57.0717 C.2       19 UNK         0.5000 
    108 O         -6.5951  -21.8231  -57.3168 O.2       19 UNK        -0.5000 
    109 N         -7.5784  -19.8072  -57.7464 N.am      20 UNK        -0.5000 
    110 CA        -6.7184  -19.2402  -58.7948 C.3       20 UNK         0.1400 
    111 CB        -6.4818  -20.2215  -59.9597 C.3       20 UNK        -0.1800 
    112 C         -5.3928  -18.6933  -58.2316 C.2       20 UNK         0.5000 
    113 O         -4.8036  -19.2876  -57.3261 O.2       20 UNK        -0.5000 
    114 N         -4.9569  -17.5448  -58.7702 N.am      21 UNK        -0.5000 
    115 CA        -3.8308  -16.7321  -58.2949 C.3       21 UNK         0.1400 
    116 CB        -2.4836  -17.4437  -58.5597 C.3       21 UNK        -0.1800 
    117 C         -4.0550  -16.3089  -56.8267 C.2       21 UNK         0.5000 
    118 O         -4.9921  -15.5533  -56.5616 O.2       21 UNK        -0.5000 
    119 N         -3.2318  -16.8205  -55.9059 N.am      22 UNK        -0.5000 
    120 CA        -3.4132  -16.6909  -54.4526 C.3       22 UNK         0.1400 
    121 C         -4.5145  -17.6114  -53.8445 C.2       22 UNK         0.5000 
    122 N         -5.0308  -18.6046  -54.5578 N.am      22 UNK        -0.7600 
    123 O         -4.9097  -17.4135  -52.6995 O.2       22 UNK        -0.5000 
    124 C124       -2.0658  -16.8260  -53.6944 C.3       23 UNK        -0.0398 
    125 S125       -1.0978  -18.3249  -54.1096 S.3       23 UNK        -0.2404 
    126 C126       -1.6469  -19.5339  -52.8601 C.3       23 UNK        -0.0205 
    127 H127       -0.6041  -14.4126  -45.4691 H         1 UNK         0.0600 
    128 H128       -0.8806  -15.9319  -46.3203 H         1 UNK         0.0600 
    129 H129       -2.0197  -14.5964  -46.5112 H         1 UNK         0.0600 
    130 H130        0.4905  -16.1662  -48.0495 H         1 UNK         0.3000 
    131 H131        0.7522  -14.4899  -50.2252 H         1 UNK         0.0600 
    132 H132        2.8496  -16.0032  -50.7151 H         1 UNK         0.0800 
    133 H133        1.2734  -16.6914  -50.6878 H         1 UNK         0.0800 
    134 H134        2.4068  -19.4830  -49.9613 H         1 UNK         0.0800 
    135 H135        1.8211  -19.6488  -48.3285 H         1 UNK         0.0800 
    136 H136        0.7818  -19.6333  -51.6405 H         1 UNK         0.1150 
    137 H137       -3.2869  -18.5013  -50.9431 H         1 UNK         0.1150 
    138 H138       -0.3829  -18.0698  -47.8201 H         1 UNK         0.1150 
    139 H139       -2.5978  -16.9338  -47.6683 H         1 UNK         0.0800 
    140 H140       -3.7018  -17.0044  -49.0115 H         1 UNK         0.0800 
    141 H141       -3.3894  -19.5791  -45.3564 H         1 UNK         0.0800 
    142 H142       -2.1294  -18.6421  -46.0930 H         1 UNK         0.0800 
    143 H143       -1.8245  -20.6873  -47.7307 H         1 UNK         0.0600 
    144 H144       -0.5592  -20.0896  -45.3493 H         1 UNK         0.3000 
    145 H145        1.5245  -22.9045  -44.9185 H         1 UNK         0.0600 
    146 H146        3.3620  -21.2579  -45.1044 H         1 UNK         0.0600 
    147 H147        2.7430  -21.6605  -46.6984 H         1 UNK         0.0600 
    148 H148        2.3020  -20.1319  -45.9497 H         1 UNK         0.0600 
    149 H149        1.5716  -20.4620  -43.5441 H         1 UNK         0.3000 
    150 H150       -1.1418  -21.0918  -41.2458 H         1 UNK         0.0600 
    151 H151        0.9611  -22.1253  -40.4068 H         1 UNK         0.0600 
    152 H152        0.7324  -20.5177  -39.7348 H         1 UNK         0.0600 
    153 H153        1.8984  -20.7743  -41.0292 H         1 UNK         0.0600 
    154 H154        0.4957  -18.7849  -41.6409 H         1 UNK         0.3000 
    155 H155       -1.6877  -17.1132  -43.9521 H         1 UNK         0.0600 
    156 H156       -1.4088  -15.3283  -42.2261 H         1 UNK         0.0600 
    157 H157       -0.9647  -16.5444  -41.0300 H         1 UNK         0.0600 
    158 H158       -2.5817  -16.5363  -41.7188 H         1 UNK         0.0600 
    159 H159        0.8107  -16.3321  -42.8425 H         1 UNK         0.3000 
    160 H160        2.9315  -17.9522  -45.2229 H         1 UNK         0.0600 
    161 H161        3.7424  -15.5987  -45.3621 H         1 UNK         0.0600 
    162 H162        2.1930  -15.0127  -44.7545 H         1 UNK         0.0600 
    163 H163        2.2755  -15.8542  -46.2919 H         1 UNK         0.0600 
    164 H164        3.2862  -16.2871  -42.8718 H         1 UNK         0.3000 
    165 H165        3.7623  -18.9774  -40.5906 H         1 UNK         0.0600 
    166 H166        5.9687  -17.8866  -40.2852 H         1 UNK         0.0600 
    167 H167        5.9594  -18.8226  -41.7712 H         1 UNK         0.0600 
    168 H168        5.8144  -17.0703  -41.8413 H         1 UNK         0.0600 
    169 H169        4.0582  -16.1325  -40.3709 H         1 UNK         0.3000 
    170 H170        0.6635  -15.3595  -39.6624 H         1 UNK         0.0600 
    171 H171        1.5219  -16.2246  -37.4788 H         1 UNK         0.0600 
    172 H172        3.0754  -15.4521  -37.7724 H         1 UNK         0.0600 
    173 H173        1.6229  -14.4735  -37.5603 H         1 UNK         0.0600 
    174 H174        2.9423  -13.7125  -39.5675 H         1 UNK         0.3000 
    175 H175        2.9965  -12.0067  -41.2366 H         1 UNK         0.0600 
    176 H176        4.7530  -14.0072  -42.7771 H         1 UNK         0.0600 
    177 H177        5.1999  -12.3517  -42.3721 H         1 UNK         0.0600 
    178 H178        4.9850  -13.5366  -41.0967 H         1 UNK         0.0600 
    179 H179        3.3811  -12.3248  -44.0027 H         1 UNK         0.3000 
    180 H180        0.2326  -11.5625  -45.2566 H         1 UNK         0.0600 
    181 H181        1.1596   -9.4402  -46.1478 H         1 UNK         0.0600 
    182 H182        2.4245   -9.4509  -44.9189 H         1 UNK         0.0600 
    183 H183        0.7402   -9.2761  -44.4504 H         1 UNK         0.0600 
    184 H184        1.5006  -12.4478  -46.7759 H         1 UNK         0.3000 
    185 H185        4.0790  -11.9816  -48.2706 H         1 UNK         0.0600 
    186 H186        5.6367  -13.9555  -48.1108 H         1 UNK         0.0600 
    187 H187        6.0483  -12.6812  -46.9772 H         1 UNK         0.0600 
    188 H188        5.2272  -14.1265  -46.4054 H         1 UNK         0.0600 
    189 H189        2.6166  -14.3804  -47.2590 H         1 UNK         0.3000 
    190 H190       -2.4170  -22.1310  -44.5321 H         1 UNK         0.3000 
    191 H191       -4.5824  -23.8714  -45.5887 H         1 UNK         0.0600 
    192 H192       -4.8346  -24.5083  -43.1971 H         1 UNK         0.0600 
    193 H193       -4.9640  -22.7684  -43.4059 H         1 UNK         0.0600 
    194 H194       -3.4832  -23.4697  -42.7570 H         1 UNK         0.0600 
    195 H195       -1.3107  -24.0406  -44.0894 H         1 UNK         0.3000 
    196 H196       -1.2815  -26.8761  -43.9519 H         1 UNK         0.0600 
    197 H197        1.0161  -24.8678  -43.7206 H         1 UNK         0.0600 
    198 H198       -0.0267  -25.4023  -42.4052 H         1 UNK         0.0600 
    199 H199        1.0569  -26.5427  -43.1875 H         1 UNK         0.0600 
    200 H200       -0.0509  -24.6765  -46.4806 H         1 UNK         0.3000 
    201 H201        1.1401  -27.0136  -47.9400 H         1 UNK         0.0600 
    202 H202        2.0024  -24.0750  -47.9617 H         1 UNK         0.0600 
    203 H203        2.7137  -25.3764  -48.9048 H         1 UNK         0.0600 
    204 H204        2.8449  -25.3931  -47.1531 H         1 UNK         0.0600 
    205 H205       -0.4530  -23.7997  -48.4058 H         1 UNK         0.3000 
    206 H206       -0.9861  -24.3762  -51.2042 H         1 UNK         0.0600 
    207 H207       -0.4386  -22.0883  -50.3475 H         1 UNK         0.0600 
    208 H208       -1.9621  -22.1325  -51.2241 H         1 UNK         0.0600 
    209 H209       -1.9681  -22.0618  -49.4740 H         1 UNK         0.0600 
    210 H210       -2.7157  -24.9945  -48.2902 H         1 UNK         0.3000 
    211 H211       -4.7020  -25.8177  -47.7386 H         1 UNK         0.0600 
    212 H212       -5.6315  -27.5826  -49.1859 H         1 UNK         0.0600 
    213 H213       -3.8791  -27.6730  -49.2065 H         1 UNK         0.0600 
    214 H214       -4.7416  -26.9703  -50.5746 H         1 UNK         0.0600 
    215 H215       -4.7581  -23.1224  -48.7405 H         1 UNK         0.3000 
    216 H216       -6.0120  -21.4434  -49.4450 H         1 UNK         0.0600 
    217 H217       -8.3263  -21.3785  -48.5746 H         1 UNK         0.0600 
    218 H218       -8.3367  -23.1266  -48.3727 H         1 UNK         0.0600 
    219 H219       -7.2611  -22.1263  -47.3966 H         1 UNK         0.0600 
    220 H220       -5.3620  -23.1847  -51.5581 H         1 UNK         0.3000 
    221 H221       -7.4604  -23.9322  -53.2368 H         1 UNK         0.0600 
    222 H222       -5.1656  -24.7848  -53.4802 H         1 UNK         0.0600 
    223 H223       -4.5616  -23.1785  -53.8893 H         1 UNK         0.0600 
    224 H224       -5.6415  -24.0258  -54.9899 H         1 UNK         0.0600 
    225 H225       -8.2769  -23.1414  -55.1772 H         1 UNK         0.3000 
    226 H226       -8.6345  -20.2468  -55.4240 H         1 UNK         0.0600 
    227 H227       -9.6992  -22.6069  -57.0790 H         1 UNK         0.0600 
    228 H228      -10.5510  -21.8212  -55.7493 H         1 UNK         0.0600 
    229 H229      -10.2213  -20.9340  -57.2276 H         1 UNK         0.0600 
    230 H230       -8.3183  -19.1884  -57.4452 H         1 UNK         0.3000 
    231 H231       -7.2802  -18.3939  -59.1935 H         1 UNK         0.0600 
    232 H232       -5.8347  -21.0508  -59.6731 H         1 UNK         0.0600 
    233 H233       -6.0005  -19.7159  -60.7975 H         1 UNK         0.0600 
    234 H234       -7.4209  -20.6363  -60.3259 H         1 UNK         0.0600 
    235 H235       -5.5127  -17.1187  -59.4987 H         1 UNK         0.3000 
    236 H236       -3.8371  -15.8128  -58.8824 H         1 UNK         0.0600 
    237 H237       -1.6438  -16.8174  -58.2561 H         1 UNK         0.0600 
    238 H238       -2.3984  -18.3926  -58.0296 H         1 UNK         0.0600 
    239 H239       -2.3590  -17.6514  -59.6224 H         1 UNK         0.0600 
    240 H240       -2.5078  -17.4606  -56.1990 H         1 UNK         0.3000 
    241 H241       -3.7661  -15.6749  -54.2643 H         1 UNK         0.0600 
    242 H242       -5.7078  -19.2323  -54.1342 H         1 UNK         0.3800 
    243 H243       -4.7448  -18.7766  -55.5178 H         1 UNK         0.3800 
    244 H244       -2.2119  -16.7504  -52.6170 H         1 UNK         0.0800 
    245 H245       -1.4390  -15.9707  -53.9493 H         1 UNK         0.0800 
    246 H246       -2.7203  -19.7019  -52.9537 H         1 UNK         0.0800 
    247 H247       -1.1758  -20.4936  -53.0766 H         1 UNK         0.0800 
@<TRIPOS>BOND
     1    1    2 1    
     2    1  127 1    
     3    1  128 1    
     4    1  129 1    
     5    2    3 2    
     6    2    4 am   BACKBONE|DICT|INTERRES
     7    4    5 1    
     8    4  130 1    
     9    5    6 1    
    10    5   65 1    
    11    5  131 1    
    12    6    7 1    
    13    6  132 1    
    14    6  133 1    
    15    7    8 1    
    16    8    9 1    
    17    8  134 1    
    18    8  135 1    
    19    9   10 ar   
    20    9   14 ar   
    21   10   11 ar   
    22   10  136 1    
    23   11   12 ar   
    24   11  126 1    
    25   12   13 ar   
    26   12  137 1    
    27   13   14 ar   
    28   13   15 1    
    29   14  138 1    
    30   15   16 1    
    31   15  139 1    
    32   15  140 1    
    33   16   17 1    
    34   17   18 1    
    35   17  141 1    
    36   17  142 1    
    37   18   19 1    
    38   18   67 1    
    39   18  143 1    
    40   19   20 am   BACKBONE|DICT|INTERRES
    41   19  144 1    
    42   20   21 2    
    43   20   22 1    
    44   22   23 1    
    45   22   24 1    
    46   22  145 1    
    47   23  146 1    
    48   23  147 1    
    49   23  148 1    
    50   24   25 am   BACKBONE|DICT|INTERRES
    51   24  149 1    
    52   25   26 2    
    53   25   27 1    
    54   27   28 1    
    55   27   29 1    
    56   27  150 1    
    57   28  151 1    
    58   28  152 1    
    59   28  153 1    
    60   29   30 am   BACKBONE|DICT|INTERRES
    61   29  154 1    
    62   30   31 2    
    63   30   32 1    
    64   32   33 1    
    65   32   34 1    
    66   32  155 1    
    67   33  156 1    
    68   33  157 1    
    69   33  158 1    
    70   34   35 am   BACKBONE|DICT|INTERRES
    71   34  159 1    
    72   35   36 2    
    73   35   37 1    
    74   37   38 1    
    75   37   39 1    
    76   37  160 1    
    77   38  161 1    
    78   38  162 1    
    79   38  163 1    
    80   39   40 am   BACKBONE|DICT|INTERRES
    81   39  164 1    
    82   40   41 2    
    83   40   42 1    
    84   42   43 1    
    85   42   44 1    
    86   42  165 1    
    87   43  166 1    
    88   43  167 1    
    89   43  168 1    
    90   44   45 am   BACKBONE|DICT|INTERRES
    91   44  169 1    
    92   45   46 2    
    93   45   47 1    
    94   47   48 1    
    95   47   49 1    
    96   47  170 1    
    97   48  171 1    
    98   48  172 1    
    99   48  173 1    
   100   49   50 am   BACKBONE|DICT|INTERRES
   101   49  174 1    
   102   50   51 2    
   103   50   52 1    
   104   52   53 1    
   105   52   54 1    
   106   52  175 1    
   107   53  176 1    
   108   53  177 1    
   109   53  178 1    
   110   54   55 am   BACKBONE|DICT|INTERRES
   111   54  179 1    
   112   55   56 2    
   113   55   57 1    
   114   57   58 1    
   115   57   59 1    
   116   57  180 1    
   117   58  181 1    
   118   58  182 1    
   119   58  183 1    
   120   59   60 am   BACKBONE|DICT|INTERRES
   121   59  184 1    
   122   60   61 2    
   123   60   62 1    
   124   62   63 1    
   125   62   64 1    
   126   62  185 1    
   127   63  186 1    
   128   63  187 1    
   129   63  188 1    
   130   64   65 am   BACKBONE|DICT|INTERRES
   131   64  189 1    
   132   65   66 2    
   133   67   68 2    
   134   67   69 am   BACKBONE|DICT|INTERRES
   135   69   70 1    
   136   69  190 1    
   137   70   71 1    
   138   70   72 1    
   139   70  191 1    
   140   71  192 1    
   141   71  193 1    
   142   71  194 1    
   143   72   73 2    
   144   72   74 am   BACKBONE|DICT|INTERRES
   145   74   75 1    
   146   74  195 1    
   147   75   76 1    
   148   75   77 1    
   149   75  196 1    
   150   76  197 1    
   151   76  198 1    
   152   76  199 1    
   153   77   78 2    
   154   77   79 am   BACKBONE|DICT|INTERRES
   155   79   80 1    
   156   79  200 1    
   157   80   81 1    
   158   80   82 1    
   159   80  201 1    
   160   81  202 1    
   161   81  203 1    
   162   81  204 1    
   163   82   83 2    
   164   82   84 am   BACKBONE|DICT|INTERRES
   165   84   85 1    
   166   84  205 1    
   167   85   86 1    
   168   85   87 1    
   169   85  206 1    
   170   86  207 1    
   171   86  208 1    
   172   86  209 1    
   173   87   88 2    
   174   87   89 am   BACKBONE|DICT|INTERRES
   175   89   90 1    
   176   89  210 1    
   177   90   91 1    
   178   90   92 1    
   179   90  211 1    
   180   91  212 1    
   181   91  213 1    
   182   91  214 1    
   183   92   93 2    
   184   92   94 am   BACKBONE|DICT|INTERRES
   185   94   95 1    
   186   94  215 1    
   187   95   96 1    
   188   95   97 1    
   189   95  216 1    
   190   96  217 1    
   191   96  218 1    
   192   96  219 1    
   193   97   98 2    
   194   97   99 am   BACKBONE|DICT|INTERRES
   195   99  100 1    
   196   99  220 1    
   197  100  101 1    
   198  100  102 1    
   199  100  221 1    
   200  101  222 1    
   201  101  223 1    
   202  101  224 1    
   203  102  103 2    
   204  102  104 am   BACKBONE|DICT|INTERRES
   205  104  105 1    
   206  104  225 1    
   207  105  106 1    
   208  105  107 1    
   209  105  226 1    
   210  106  227 1    
   211  106  228 1    
   212  106  229 1    
   213  107  108 2    
   214  107  109 am   BACKBONE|DICT|INTERRES
   215  109  110 1    
   216  109  230 1    
   217  110  111 1    
   218  110  112 1    
   219  110  231 1    
   220  111  232 1    
   221  111  233 1    
   222  111  234 1    
   223  112  113 2    
   224  112  114 am   BACKBONE|DICT|INTERRES
   225  114  115 1    
   226  114  235 1    
   227  115  116 1    
   228  115  117 1    
   229  115  236 1    
   230  116  237 1    
   231  116  238 1    
   232  116  239 1    
   233  117  118 2    
   234  117  119 am   BACKBONE|DICT|INTERRES
   235  119  120 1    
   236  119  240 1    
   237  120  121 1    
   238  120  124 1    
   239  120  241 1    
   240  121  122 am   BACKBONE|DICT|INTERRES
   241  121  123 2    
   242  122  242 1    
   243  122  243 1    
   244  124  125 1    
   245  124  244 1    
   246  124  245 1    
   247  125  126 1    
   248  126  246 1    
   249  126  247 1    
@<TRIPOS>SUBSTRUCTURE
     1 UNK         1 GROUP             0       ****    0 ROOT    
