@<TRIPOS>MOLECULE
3R540
247   249    1
SMALL
USER_CHARGES


@<TRIPOS>ATOM
      1 CA          0.5063  -15.5832  -48.2806 C.3       0 UNK        -0.1800 
      2 C          -0.7291  -15.9063  -49.1201 C.2       0 UNK         0.5000 
      3 O          -0.6078  -16.6002  -50.1264 O.2       0 UNK        -0.5000 
      4 N          -1.9387  -15.4635  -48.7498 N.am      1 UNK        -0.5000 
      5 CA         -2.2835  -14.6780  -47.5617 C.3       1 UNK         0.1400 
      6 C6         -3.8175  -14.5645  -47.3718 C.3       23 UNK        -0.0398 
      7 S7         -4.8105  -16.1009  -47.2161 S.3       23 UNK        -0.2404 
      8 C8         -3.6596  -17.4990  -46.9996 C.3       23 UNK        -0.0205 
      9 C9         -4.4334  -18.7764  -46.7116 C.ar      23 UNK        -0.0193 
     10 C10        -5.0195  -19.4981  -47.7575 C.ar      23 UNK        -0.1150 
     11 C11        -5.7731  -20.6457  -47.4917 C.ar      23 UNK        -0.0193 
     12 C12        -5.9262  -21.0775  -46.1721 C.ar      23 UNK        -0.1150 
     13 C13        -5.3367  -20.3725  -45.1204 C.ar      23 UNK        -0.0193 
     14 C14        -4.5904  -19.2224  -45.3960 C.ar      23 UNK        -0.1150 
     15 C15        -5.5185  -20.8526  -43.6875 C.3       23 UNK        -0.0205 
     16 S16        -4.5810  -22.3785  -43.3537 S.3       23 UNK        -0.2404 
     17 C17        -2.8752  -21.8128  -43.6546 C.3       23 UNK        -0.0398 
     18 CA         -2.3356  -22.2637  -45.0374 C.3       11 UNK         0.1400 
     19 N          -1.3229  -21.3442  -45.5583 N.am      11 UNK        -0.5000 
     20 C          -0.8145  -21.3731  -46.7970 C.2       10 UNK         0.5000 
     21 O          -1.2044  -22.1286  -47.6845 O.2       10 UNK        -0.5000 
     22 CA          0.3575  -20.4266  -47.0998 C.3       10 UNK         0.1400 
     23 CB         -0.1592  -19.0725  -47.5981 C.3       10 UNK        -0.1800 
     24 N           1.2516  -20.2307  -45.9593 N.am      10 UNK        -0.5000 
     25 C           1.9914  -21.1978  -45.3990 C.2       9 UNK         0.5000 
     26 O           2.0252  -22.3566  -45.8122 O.2       9 UNK        -0.5000 
     27 CA          2.7785  -20.8236  -44.1302 C.3       9 UNK         0.1400 
     28 CB          4.0640  -20.0607  -44.4820 C.3       9 UNK        -0.1800 
     29 N           1.9780  -20.0407  -43.1876 N.am      9 UNK        -0.5000 
     30 C           0.8698  -20.4919  -42.5818 C.2       8 UNK         0.5000 
     31 O           0.4321  -21.6357  -42.7176 O.2       8 UNK        -0.5000 
     32 CA          0.0881  -19.4796  -41.7247 C.3       8 UNK         0.1400 
     33 CB          0.7471  -19.3026  -40.3490 C.3       8 UNK        -0.1800 
     34 N          -0.0530  -18.1776  -42.3803 N.am      8 UNK        -0.5000 
     35 C          -0.7105  -17.9818  -43.5323 C.2       7 UNK         0.5000 
     36 O          -1.3074  -18.8685  -44.1366 O.2       7 UNK        -0.5000 
     37 CA         -0.6501  -16.5795  -44.1539 C.3       7 UNK         0.1400 
     38 CB         -1.6680  -15.6351  -43.4988 C.3       7 UNK        -0.1800 
     39 N           0.6857  -15.9970  -44.0916 N.am      7 UNK        -0.5000 
     40 C           1.7672  -16.4924  -44.7069 C.2       6 UNK         0.5000 
     41 O           1.7447  -17.4761  -45.4439 O.2       6 UNK        -0.5000 
     42 CA          3.1029  -15.7920  -44.4162 C.3       6 UNK         0.1400 
     43 CB          3.2511  -14.5228  -45.2690 C.3       6 UNK        -0.1800 
     44 N           3.2413  -15.4555  -42.9996 N.am      6 UNK        -0.5000 
     45 C           3.3849  -16.3561  -42.0174 C.2       5 UNK         0.5000 
     46 O           3.4480  -17.5716  -42.2059 O.2       5 UNK        -0.5000 
     47 CA          3.4293  -15.8028  -40.5812 C.3       5 UNK         0.1400 
     48 CB          4.8397  -15.3022  -40.2358 C.3       5 UNK        -0.1800 
     49 N           2.4629  -14.7240  -40.3625 N.am      5 UNK        -0.5000 
     50 C           1.1342  -14.8984  -40.3479 C.2       4 UNK         0.5000 
     51 O           0.5868  -15.9892  -40.5078 O.2       4 UNK        -0.5000 
     52 CA          0.2691  -13.6345  -40.1729 C.3       4 UNK         0.1400 
     53 CB          0.1692  -13.2496  -38.6892 C.3       4 UNK        -0.1800 
     54 N           0.7199  -12.4723  -40.9496 N.am      4 UNK        -0.5000 
     55 C           0.9014  -12.4648  -42.2765 C.2       3 UNK         0.5000 
     56 O           0.8229  -13.4751  -42.9765 O.2       3 UNK        -0.5000 
     57 CA          1.2574  -11.1168  -42.9338 C.3       3 UNK         0.1400 
     58 CB          2.7519  -10.8133  -42.7457 C.3       3 UNK        -0.1800 
     59 N           0.9611  -11.1302  -44.3694 N.am      3 UNK        -0.5000 
     60 C          -0.2651  -11.2415  -44.8986 C.2       2 UNK         0.5000 
     61 O          -1.3025  -11.1672  -44.2372 O.2       2 UNK        -0.5000 
     62 CA         -0.3649  -11.5376  -46.4041 C.3       2 UNK         0.1400 
     63 CB          0.9880  -11.5408  -47.1528 C.3       2 UNK        -0.1800 
     64 N          -1.0255  -12.8325  -46.5439 N.am      2 UNK        -0.5000 
     65 C          -1.6585  -13.2672  -47.6378 C.2       1 UNK         0.5000 
     66 O          -1.7621  -12.6121  -48.6770 O.2       1 UNK        -0.5000 
     67 C          -1.8026  -23.7084  -44.9799 C.2       11 UNK         0.5000 
     68 O          -2.4669  -24.6251  -45.4636 O.2       11 UNK        -0.5000 
     69 N          -0.5978  -23.8747  -44.4138 N.am      12 UNK        -0.5000 
     70 CA          0.0924  -25.1582  -44.2806 C.3       12 UNK         0.1400 
     71 CB          1.3282  -24.9798  -43.3854 C.3       12 UNK        -0.1800 
     72 C           0.4802  -25.7748  -45.6371 C.2       12 UNK         0.5000 
     73 O           0.3138  -26.9801  -45.8279 O.2       12 UNK        -0.5000 
     74 N           0.9694  -24.9349  -46.5584 N.am      13 UNK        -0.5000 
     75 CA          1.3277  -25.3182  -47.9245 C.3       13 UNK         0.1400 
     76 CB          2.2446  -24.2345  -48.5134 C.3       13 UNK        -0.1800 
     77 C           0.1088  -25.5305  -48.8439 C.2       13 UNK         0.5000 
     78 O           0.2429  -26.2079  -49.8635 O.2       13 UNK        -0.5000 
     79 N          -1.0323  -24.9212  -48.4873 N.am      14 UNK        -0.5000 
     80 CA         -2.2510  -24.7564  -49.2871 C.3       14 UNK         0.1400 
     81 CB         -2.9630  -26.1059  -49.5104 C.3       14 UNK        -0.1800 
     82 C          -1.9555  -23.9900  -50.5939 C.2       14 UNK         0.5000 
     83 O          -2.2763  -24.4640  -51.6835 O.2       14 UNK        -0.5000 
     84 N          -1.2704  -22.8480  -50.4524 N.am      15 UNK        -0.5000 
     85 CA         -0.7191  -22.0698  -51.5587 C.3       15 UNK         0.1400 
     86 CB          0.5228  -21.3016  -51.0760 C.3       15 UNK        -0.1800 
     87 C          -1.7504  -21.1161  -52.1793 C.2       15 UNK         0.5000 
     88 O          -1.9826  -21.1868  -53.3867 O.2       15 UNK        -0.5000 
     89 N          -2.3110  -20.2219  -51.3478 N.am      16 UNK        -0.5000 
     90 CA         -3.2448  -19.1390  -51.6918 C.3       16 UNK         0.1400 
     91 CB         -4.6457  -19.7152  -51.9479 C.3       16 UNK        -0.1800 
     92 C          -2.7345  -18.2766  -52.8673 C.2       16 UNK         0.5000 
     93 O          -3.1473  -18.4708  -54.0153 O.2       16 UNK        -0.5000 
     94 N          -1.7570  -17.4110  -52.5612 N.am      17 UNK        -0.5000 
     95 CA         -0.9731  -16.5754  -53.4830 C.3       17 UNK         0.1400 
     96 CB         -1.8808  -15.5877  -54.2457 C.3       17 UNK        -0.1800 
     97 C          -0.0641  -17.3883  -54.4310 C.2       17 UNK         0.5000 
     98 O           0.4536  -16.8343  -55.4016 O.2       17 UNK        -0.5000 
     99 N           0.0944  -18.6892  -54.1367 N.am      18 UNK        -0.5000 
    100 CA         0.7294  -19.7281  -54.9539 C.3       18 UNK         0.1400 
    101 CB         2.2529  -19.5024  -55.0373 C.3       18 UNK        -0.1800 
    102 C          0.0577  -19.8795  -56.3366 C.2       18 UNK         0.5000 
    103 O          0.7382  -20.1762  -57.3207 O.2       18 UNK        -0.5000 
    104 N         -1.2609  -19.6441  -56.3884 N.am      19 UNK        -0.5000 
    105 CA        -2.0349  -19.5668  -57.6236 C.3       19 UNK         0.1400 
    106 CB        -2.1743  -18.0954  -58.0501 C.3       19 UNK        -0.1800 
    107 C         -3.4080  -20.2310  -57.4770 C.2       19 UNK         0.5000 
    108 O         -3.7776  -21.0333  -58.3357 O.2       19 UNK        -0.5000 
    109 N         -4.1482  -19.8930  -56.4111 N.am      20 UNK        -0.5000 
    110 CA        -5.5074  -20.3958  -56.1950 C.3       20 UNK         0.1400 
    111 CB        -6.3037  -19.3770  -55.3661 C.3       20 UNK        -0.1800 
    112 C         -5.5442  -21.7971  -55.5575 C.2       20 UNK         0.5000 
    113 O         -6.5769  -22.4639  -55.6431 O.2       20 UNK        -0.5000 
    114 N         -4.4378  -22.2179  -54.9222 N.am      21 UNK        -0.5000 
    115 CA        -4.2111  -23.5353  -54.3084 C.3       21 UNK         0.1400 
    116 CB        -4.1040  -24.6170  -55.4028 C.3       21 UNK        -0.1800 
    117 C         -5.2330  -23.9078  -53.2083 C.2       21 UNK         0.5000 
    118 O         -5.4820  -25.0915  -52.9720 O.2       21 UNK        -0.5000 
    119 N         -5.8375  -22.8835  -52.5907 N.am      22 UNK        -0.5000 
    120 CA        -6.9810  -22.9665  -51.6675 C.3       22 UNK         0.1400 
    121 C         -8.2846  -23.5472  -52.3040 C.2       22 UNK         0.5000 
    122 N         -8.4384  -23.5465  -53.6239 N.am      22 UNK        -0.7600 
    123 O         -9.1927  -23.9734  -51.5954 O.2       22 UNK        -0.5000 
    124 C124       -6.6193  -23.6199  -50.3033 C.3       23 UNK        -0.0398 
    125 S125       -5.3849  -22.6588  -49.3614 S.3       23 UNK        -0.2404 
    126 C126       -6.4653  -21.3983  -48.6158 C.3       23 UNK        -0.0205 
    127 H127        0.8296  -14.5570  -48.4531 H         1 UNK         0.0600 
    128 H128        1.3338  -16.2381  -48.5531 H         1 UNK         0.0600 
    129 H129        0.3175  -15.7201  -47.2177 H         1 UNK         0.0600 
    130 H130       -2.7204  -15.6603  -49.3564 H         1 UNK         0.3000 
    131 H131       -1.8779  -15.1885  -46.6891 H         1 UNK         0.0600 
    132 H132       -4.0283  -13.9757  -46.4769 H         1 UNK         0.0800 
    133 H133       -4.2503  -13.9975  -48.1985 H         1 UNK         0.0800 
    134 H134       -2.9690  -17.2887  -46.1835 H         1 UNK         0.0800 
    135 H135       -3.0626  -17.6486  -47.8981 H         1 UNK         0.0800 
    136 H136       -4.9107  -19.1517  -48.7753 H         1 UNK         0.1150 
    137 H137       -6.5079  -21.9638  -45.9602 H         1 UNK         0.1150 
    138 H138       -4.1367  -18.6686  -44.5859 H         1 UNK         0.1150 
    139 H139       -5.2172  -20.0805  -42.9777 H         1 UNK         0.0800 
    140 H140       -6.5771  -21.0401  -43.5029 H         1 UNK         0.0800 
    141 H141       -2.2387  -22.1552  -42.8370 H         1 UNK         0.0800 
    142 H142       -2.8721  -20.7276  -43.5785 H         1 UNK         0.0800 
    143 H143       -3.1580  -22.2449  -45.7561 H         1 UNK         0.0600 
    144 H144       -1.0061  -20.6164  -44.9252 H         1 UNK         0.3000 
    145 H145        0.9441  -20.8803  -47.9008 H         1 UNK         0.0600 
    146 H146        0.6685  -18.4489  -47.9322 H         1 UNK         0.0600 
    147 H147       -0.8389  -19.1919  -48.4424 H         1 UNK         0.0600 
    148 H148       -0.6949  -18.5332  -46.8176 H         1 UNK         0.0600 
    149 H149        1.3201  -19.2839  -45.5929 H         1 UNK         0.3000 
    150 H150        3.0629  -21.7528  -43.6321 H         1 UNK         0.0600 
    151 H151        4.6870  -20.6401  -45.1644 H         1 UNK         0.0600 
    152 H152        4.6578  -19.8587  -43.5904 H         1 UNK         0.0600 
    153 H153        3.8502  -19.1061  -44.9627 H         1 UNK         0.0600 
    154 H154        2.2909  -19.0941  -42.9992 H         1 UNK         0.3000 
    155 H155       -0.9144  -19.8838  -41.5698 H         1 UNK         0.0600 
    156 H156        1.7383  -18.8556  -40.4303 H         1 UNK         0.0600 
    157 H157        0.8587  -20.2619  -39.8423 H         1 UNK         0.0600 
    158 H158        0.1446  -18.6627  -39.7042 H         1 UNK         0.0600 
    159 H159        0.3721  -17.3829  -41.9125 H         1 UNK         0.3000 
    160 H160       -0.9079  -16.6825  -45.2076 H         1 UNK         0.0600 
    161 H161       -1.4537  -15.4874  -42.4400 H         1 UNK         0.0600 
    162 H162       -2.6794  -16.0362  -43.5779 H         1 UNK         0.0600 
    163 H163       -1.6671  -14.6557  -43.9764 H         1 UNK         0.0600 
    164 H164        0.7891  -15.1487  -43.5360 H         1 UNK         0.3000 
    165 H165        3.9070  -16.4802  -44.6851 H         1 UNK         0.0600 
    166 H166        4.2262  -14.0592  -45.1194 H         1 UNK         0.0600 
    167 H167        3.1599  -14.7539  -46.3312 H         1 UNK         0.0600 
    168 H168        2.4884  -13.7827  -45.0287 H         1 UNK         0.0600 
    169 H169        3.1294  -14.4840  -42.7511 H         1 UNK         0.3000 
    170 H170        3.1842  -16.6226  -39.9025 H         1 UNK         0.0600 
    171 H171        5.5788  -16.0921  -40.3760 H         1 UNK         0.0600 
    172 H172        5.1355  -14.4605  -40.8632 H         1 UNK         0.0600 
    173 H173        4.9005  -14.9831  -39.1951 H         1 UNK         0.0600 
    174 H174        2.8307  -13.7930  -40.2331 H         1 UNK         0.3000 
    175 H175       -0.7348  -13.8832  -40.5232 H         1 UNK         0.0600 
    176 H176        1.1341  -12.9374  -38.2876 H         1 UNK         0.0600 
    177 H177       -0.5371  -12.4328  -38.5399 H         1 UNK         0.0600 
    178 H178       -0.1794  -14.0915  -38.0894 H         1 UNK         0.0600 
    179 H179        0.8229  -11.6071  -40.4390 H         1 UNK         0.3000 
    180 H180        0.6665  -10.3290  -42.4624 H         1 UNK         0.0600 
    181 H181        3.3794  -11.5811  -43.2008 H         1 UNK         0.0600 
    182 H182        3.0136  -10.7599  -41.6882 H         1 UNK         0.0600 
    183 H183        3.0184   -9.8550  -43.1920 H         1 UNK         0.0600 
    184 H184        1.7545  -11.2258  -44.9851 H         1 UNK         0.3000 
    185 H185       -1.0013  -10.7621  -46.8354 H         1 UNK         0.0600 
    186 H186        1.5124  -10.5924  -47.0291 H         1 UNK         0.0600 
    187 H187        1.6440  -12.3399  -46.8076 H         1 UNK         0.0600 
    188 H188        0.8424  -11.6804  -48.2239 H         1 UNK         0.0600 
    189 H189       -1.0222  -13.3941  -45.7035 H         1 UNK         0.3000 
    190 H190       -0.1278  -23.0646  -44.0208 H         1 UNK         0.3000 
    191 H191       -0.5889  -25.8519  -43.7837 H         1 UNK         0.0600 
    192 H192        2.0396  -24.2739  -43.8152 H         1 UNK         0.0600 
    193 H193        1.8491  -25.9277  -43.2448 H         1 UNK         0.0600 
    194 H194        1.0493  -24.6113  -42.3980 H         1 UNK         0.0600 
    195 H195        1.1463  -23.9683  -46.2948 H         1 UNK         0.3000 
    196 H196        1.8851  -26.2566  -47.8891 H         1 UNK         0.0600 
    197 H197        2.5555  -24.4897  -49.5272 H         1 UNK         0.0600 
    198 H198        3.1485  -24.1151  -47.9157 H         1 UNK         0.0600 
    199 H199        1.7427  -23.2672  -48.5565 H         1 UNK         0.0600 
    200 H200       -1.0105  -24.3631  -47.6436 H         1 UNK         0.3000 
    201 H201       -2.9164  -24.1264  -48.6964 H         1 UNK         0.0600 
    202 H202       -3.1735  -26.5998  -48.5619 H         1 UNK         0.0600 
    203 H203       -2.3684  -26.7864  -50.1201 H         1 UNK         0.0600 
    204 H204       -3.9160  -25.9591  -50.0204 H         1 UNK         0.0600 
    205 H205       -1.0877  -22.5252  -49.5054 H         1 UNK         0.3000 
    206 H206       -0.3929  -22.7575  -52.3423 H         1 UNK         0.0600 
    207 H207        1.2879  -21.9859  -50.7092 H         1 UNK         0.0600 
    208 H208        0.9692  -20.7262  -51.8877 H         1 UNK         0.0600 
    209 H209        0.2872  -20.6042  -50.2724 H         1 UNK         0.0600 
    210 H210       -2.0510  -20.2718  -50.3740 H         1 UNK         0.3000 
    211 H211       -3.3117  -18.4887  -50.8180 H         1 UNK         0.0600 
    212 H212       -4.6506  -20.3721  -52.8146 H         1 UNK         0.0600 
    213 H213       -5.3686  -18.9181  -52.1231 H         1 UNK         0.0600 
    214 H214       -4.9955  -20.2868  -51.0905 H         1 UNK         0.0600 
    215 H215       -1.4554  -17.3291  -51.5912 H         1 UNK         0.3000 
    216 H216       -0.3014  -15.9870  -52.8566 H         1 UNK         0.0600 
    217 H217       -1.2870  -14.8560  -54.7945 H         1 UNK         0.0600 
    218 H218       -2.5232  -15.0338  -53.5613 H         1 UNK         0.0600 
    219 H219       -2.5183  -16.0951  -54.9700 H         1 UNK         0.0600 
    220 H220       -0.4005  -19.0226  -53.3232 H         1 UNK         0.3000 
    221 H221        0.5656  -20.6739  -54.4363 H         1 UNK         0.0600 
    222 H222        2.4993  -18.6038  -55.6035 H         1 UNK         0.0600 
    223 H223        2.6911  -19.4042  -54.0441 H         1 UNK         0.0600 
    224 H224        2.7467  -20.3426  -55.5267 H         1 UNK         0.0600 
    225 H225       -1.7514  -19.4382  -55.5264 H         1 UNK         0.3000 
    226 H226       -1.5160  -20.1019  -58.4219 H         1 UNK         0.0600 
    227 H227       -1.1991  -17.6508  -58.2496 H         1 UNK         0.0600 
    228 H228       -2.7665  -18.0052  -58.9617 H         1 UNK         0.0600 
    229 H229       -2.6603  -17.4967  -57.2787 H         1 UNK         0.0600 
    230 H230       -3.7890  -19.2449  -55.7159 H         1 UNK         0.3000 
    231 H231       -6.0106  -20.4821  -57.1607 H         1 UNK         0.0600 
    232 H232       -6.4287  -18.4435  -55.9148 H         1 UNK         0.0600 
    233 H233       -5.8092  -19.1401  -54.4275 H         1 UNK         0.0600 
    234 H234       -7.3014  -19.7502  -55.1308 H         1 UNK         0.0600 
    235 H235       -3.6538  -21.5796  -54.8541 H         1 UNK         0.3000 
    236 H236       -3.2407  -23.4737  -53.8196 H         1 UNK         0.0600 
    237 H237       -5.0592  -24.7823  -55.9019 H         1 UNK         0.0600 
    238 H238       -3.3722  -24.3387  -56.1612 H         1 UNK         0.0600 
    239 H239       -3.7843  -25.5705  -54.9809 H         1 UNK         0.0600 
    240 H240       -5.5629  -21.9528  -52.8629 H         1 UNK         0.3000 
    241 H241       -7.2480  -21.9303  -51.4607 H         1 UNK         0.0600 
    242 H242       -9.2894  -23.9134  -54.0190 H         1 UNK         0.3800 
    243 H243       -7.7158  -23.1901  -54.2429 H         1 UNK         0.3800 
    244 H244       -6.2328  -24.6284  -50.4528 H         1 UNK         0.0800 
    245 H245       -7.5026  -23.7357  -49.6738 H         1 UNK         0.0800 
    246 H246       -7.3704  -21.8708  -48.2314 H         1 UNK         0.0800 
    247 H247       -6.7917  -20.6967  -49.3844 H         1 UNK         0.0800 
@<TRIPOS>BOND
     1    1    2 1    
     2    1  127 1    
     3    1  128 1    
     4    1  129 1    
     5    2    3 2    
     6    2    4 am   BACKBONE|DICT|INTERRES
     7    4    5 1    
     8    4  130 1    
     9    5    6 1    
    10    5   65 1    
    11    5  131 1    
    12    6    7 1    
    13    6  132 1    
    14    6  133 1    
    15    7    8 1    
    16    8    9 1    
    17    8  134 1    
    18    8  135 1    
    19    9   10 ar   
    20    9   14 ar   
    21   10   11 ar   
    22   10  136 1    
    23   11   12 ar   
    24   11  126 1    
    25   12   13 ar   
    26   12  137 1    
    27   13   14 ar   
    28   13   15 1    
    29   14  138 1    
    30   15   16 1    
    31   15  139 1    
    32   15  140 1    
    33   16   17 1    
    34   17   18 1    
    35   17  141 1    
    36   17  142 1    
    37   18   19 1    
    38   18   67 1    
    39   18  143 1    
    40   19   20 am   BACKBONE|DICT|INTERRES
    41   19  144 1    
    42   20   21 2    
    43   20   22 1    
    44   22   23 1    
    45   22   24 1    
    46   22  145 1    
    47   23  146 1    
    48   23  147 1    
    49   23  148 1    
    50   24   25 am   BACKBONE|DICT|INTERRES
    51   24  149 1    
    52   25   26 2    
    53   25   27 1    
    54   27   28 1    
    55   27   29 1    
    56   27  150 1    
    57   28  151 1    
    58   28  152 1    
    59   28  153 1    
    60   29   30 am   BACKBONE|DICT|INTERRES
    61   29  154 1    
    62   30   31 2    
    63   30   32 1    
    64   32   33 1    
    65   32   34 1    
    66   32  155 1    
    67   33  156 1    
    68   33  157 1    
    69   33  158 1    
    70   34   35 am   BACKBONE|DICT|INTERRES
    71   34  159 1    
    72   35   36 2    
    73   35   37 1    
    74   37   38 1    
    75   37   39 1    
    76   37  160 1    
    77   38  161 1    
    78   38  162 1    
    79   38  163 1    
    80   39   40 am   BACKBONE|DICT|INTERRES
    81   39  164 1    
    82   40   41 2    
    83   40   42 1    
    84   42   43 1    
    85   42   44 1    
    86   42  165 1    
    87   43  166 1    
    88   43  167 1    
    89   43  168 1    
    90   44   45 am   BACKBONE|DICT|INTERRES
    91   44  169 1    
    92   45   46 2    
    93   45   47 1    
    94   47   48 1    
    95   47   49 1    
    96   47  170 1    
    97   48  171 1    
    98   48  172 1    
    99   48  173 1    
   100   49   50 am   BACKBONE|DICT|INTERRES
   101   49  174 1    
   102   50   51 2    
   103   50   52 1    
   104   52   53 1    
   105   52   54 1    
   106   52  175 1    
   107   53  176 1    
   108   53  177 1    
   109   53  178 1    
   110   54   55 am   BACKBONE|DICT|INTERRES
   111   54  179 1    
   112   55   56 2    
   113   55   57 1    
   114   57   58 1    
   115   57   59 1    
   116   57  180 1    
   117   58  181 1    
   118   58  182 1    
   119   58  183 1    
   120   59   60 am   BACKBONE|DICT|INTERRES
   121   59  184 1    
   122   60   61 2    
   123   60   62 1    
   124   62   63 1    
   125   62   64 1    
   126   62  185 1    
   127   63  186 1    
   128   63  187 1    
   129   63  188 1    
   130   64   65 am   BACKBONE|DICT|INTERRES
   131   64  189 1    
   132   65   66 2    
   133   67   68 2    
   134   67   69 am   BACKBONE|DICT|INTERRES
   135   69   70 1    
   136   69  190 1    
   137   70   71 1    
   138   70   72 1    
   139   70  191 1    
   140   71  192 1    
   141   71  193 1    
   142   71  194 1    
   143   72   73 2    
   144   72   74 am   BACKBONE|DICT|INTERRES
   145   74   75 1    
   146   74  195 1    
   147   75   76 1    
   148   75   77 1    
   149   75  196 1    
   150   76  197 1    
   151   76  198 1    
   152   76  199 1    
   153   77   78 2    
   154   77   79 am   BACKBONE|DICT|INTERRES
   155   79   80 1    
   156   79  200 1    
   157   80   81 1    
   158   80   82 1    
   159   80  201 1    
   160   81  202 1    
   161   81  203 1    
   162   81  204 1    
   163   82   83 2    
   164   82   84 am   BACKBONE|DICT|INTERRES
   165   84   85 1    
   166   84  205 1    
   167   85   86 1    
   168   85   87 1    
   169   85  206 1    
   170   86  207 1    
   171   86  208 1    
   172   86  209 1    
   173   87   88 2    
   174   87   89 am   BACKBONE|DICT|INTERRES
   175   89   90 1    
   176   89  210 1    
   177   90   91 1    
   178   90   92 1    
   179   90  211 1    
   180   91  212 1    
   181   91  213 1    
   182   91  214 1    
   183   92   93 2    
   184   92   94 am   BACKBONE|DICT|INTERRES
   185   94   95 1    
   186   94  215 1    
   187   95   96 1    
   188   95   97 1    
   189   95  216 1    
   190   96  217 1    
   191   96  218 1    
   192   96  219 1    
   193   97   98 2    
   194   97   99 am   BACKBONE|DICT|INTERRES
   195   99  100 1    
   196   99  220 1    
   197  100  101 1    
   198  100  102 1    
   199  100  221 1    
   200  101  222 1    
   201  101  223 1    
   202  101  224 1    
   203  102  103 2    
   204  102  104 am   BACKBONE|DICT|INTERRES
   205  104  105 1    
   206  104  225 1    
   207  105  106 1    
   208  105  107 1    
   209  105  226 1    
   210  106  227 1    
   211  106  228 1    
   212  106  229 1    
   213  107  108 2    
   214  107  109 am   BACKBONE|DICT|INTERRES
   215  109  110 1    
   216  109  230 1    
   217  110  111 1    
   218  110  112 1    
   219  110  231 1    
   220  111  232 1    
   221  111  233 1    
   222  111  234 1    
   223  112  113 2    
   224  112  114 am   BACKBONE|DICT|INTERRES
   225  114  115 1    
   226  114  235 1    
   227  115  116 1    
   228  115  117 1    
   229  115  236 1    
   230  116  237 1    
   231  116  238 1    
   232  116  239 1    
   233  117  118 2    
   234  117  119 am   BACKBONE|DICT|INTERRES
   235  119  120 1    
   236  119  240 1    
   237  120  121 1    
   238  120  124 1    
   239  120  241 1    
   240  121  122 am   BACKBONE|DICT|INTERRES
   241  121  123 2    
   242  122  242 1    
   243  122  243 1    
   244  124  125 1    
   245  124  244 1    
   246  124  245 1    
   247  125  126 1    
   248  126  246 1    
   249  126  247 1    
@<TRIPOS>SUBSTRUCTURE
     1 UNK         1 GROUP             0       ****    0 ROOT    
