@<TRIPOS>MOLECULE
3R540
247   249    1
SMALL
USER_CHARGES


@<TRIPOS>ATOM
      1 CA         -5.0272  -17.3512  -43.3320 C.3       0 UNK        -0.1800 
      2 C          -4.1814  -16.1034  -43.5417 C.2       0 UNK         0.5000 
      3 O          -4.4101  -15.0889  -42.8844 O.2       0 UNK        -0.5000 
      4 N          -3.1955  -16.1743  -44.4444 N.am      1 UNK        -0.5000 
      5 CA         -2.3119  -15.0658  -44.8331 C.3       1 UNK         0.1400 
      6 C6         -1.8687  -15.1804  -46.3130 C.3       23 UNK        -0.0398 
      7 S7         -0.9628  -16.7159  -46.7006 S.3       23 UNK        -0.2404 
      8 C8         -1.4721  -16.9899  -48.4328 C.3       23 UNK        -0.0205 
      9 C9         -0.6176  -17.9732  -49.2370 C.ar      23 UNK        -0.0193 
     10 C10        -1.0009  -18.2494  -50.5530 C.ar      23 UNK        -0.1150 
     11 C11        -0.2349  -19.0907  -51.3645 C.ar      23 UNK        -0.0193 
     12 C12         0.9224  -19.6774  -50.8473 C.ar      23 UNK        -0.1150 
     13 C13         1.3255  -19.4110  -49.5363 C.ar      23 UNK        -0.0193 
     14 C14         0.5498  -18.5670  -48.7365 C.ar      23 UNK        -0.1150 
     15 C15         2.6329  -19.9843  -49.0083 C.3       23 UNK        -0.0205 
     16 S16         2.4608  -21.6954  -48.4156 S.3       23 UNK        -0.2404 
     17 C17         1.6180  -21.4583  -46.8154 C.3       23 UNK        -0.0398 
     18 CA          0.4215  -22.4205  -46.6328 C.3       11 UNK         0.1400 
     19 N           0.0921  -22.6203  -45.2214 N.am      11 UNK        -0.5000 
     20 C          -0.6573  -23.6276  -44.7512 C.2       10 UNK         0.5000 
     21 O          -1.1088  -24.5302  -45.4549 O.2       10 UNK        -0.5000 
     22 CA         -0.9974  -23.5910  -43.2494 C.3       10 UNK         0.1400 
     23 CB          0.1119  -24.2639  -42.4278 C.3       10 UNK        -0.1800 
     24 N          -1.2030  -22.2267  -42.7600 N.am      10 UNK        -0.5000 
     25 C          -2.2083  -21.4285  -43.1473 C.2       9 UNK         0.5000 
     26 O          -3.1172  -21.7931  -43.8909 O.2       9 UNK        -0.5000 
     27 CA         -2.1538  -19.9630  -42.6779 C.3       9 UNK         0.1400 
     28 CB         -2.9363  -19.7796  -41.3701 C.3       9 UNK        -0.1800 
     29 N          -0.7851  -19.4724  -42.4982 N.am      9 UNK        -0.5000 
     30 C           0.0934  -19.2954  -43.4925 C.2       8 UNK         0.5000 
     31 O          -0.1537  -19.5318  -44.6779 O.2       8 UNK        -0.5000 
     32 CA          1.5012  -18.8557  -43.0796 C.3       8 UNK         0.1400 
     33 CB          2.3575  -20.0818  -42.7134 C.3       8 UNK        -0.1800 
     34 N           2.1213  -18.1247  -44.1788 N.am      8 UNK        -0.5000 
     35 C           3.1284  -17.2541  -44.0446 C.2       7 UNK         0.5000 
     36 O           3.6470  -16.9844  -42.9581 O.2       7 UNK        -0.5000 
     37 CA          3.6523  -16.6045  -45.3398 C.3       7 UNK         0.1400 
     38 CB          2.5361  -15.8800  -46.1069 C.3       7 UNK        -0.1800 
     39 N           4.6952  -15.6279  -45.0373 N.am      7 UNK        -0.5000 
     40 C           5.9692  -15.6950  -45.4438 C.2       6 UNK         0.5000 
     41 O           6.4192  -16.6224  -46.1187 O.2       6 UNK        -0.5000 
     42 CA          6.9059  -14.5264  -45.0682 C.3       6 UNK         0.1400 
     43 CB          7.2717  -13.7093  -46.3182 C.3       6 UNK        -0.1800 
     44 N           6.3334  -13.6174  -44.0749 N.am      6 UNK        -0.5000 
     45 C           6.2983  -13.8451  -42.7560 C.2       5 UNK         0.5000 
     46 O           6.8213  -14.8215  -42.2178 O.2       5 UNK        -0.5000 
     47 CA          5.5472  -12.8117  -41.8907 C.3       5 UNK         0.1400 
     48 CB          6.5413  -11.8544  -41.2149 C.3       5 UNK        -0.1800 
     49 N           4.5419  -12.0196  -42.6118 N.am      5 UNK        -0.5000 
     50 C           3.4434  -12.5211  -43.1907 C.2       4 UNK         0.5000 
     51 O           3.2022  -13.7263  -43.2677 O.2       4 UNK        -0.5000 
     52 CA          2.4449  -11.5142  -43.7809 C.3       4 UNK         0.1400 
     53 CB          2.2372  -11.7541  -45.2850 C.3       4 UNK        -0.1800 
     54 N           1.1749  -11.6765  -43.0827 N.am      4 UNK        -0.5000 
     55 C           0.8669  -11.0669  -41.9285 C.2       3 UNK         0.5000 
     56 O           1.5369  -10.1566  -41.4386 O.2       3 UNK        -0.5000 
     57 CA         -0.3772  -11.5781  -41.1709 C.3       3 UNK         0.1400 
     58 CB         -1.6202  -10.7652  -41.5626 C.3       3 UNK        -0.1800 
     59 N          -0.6436  -12.9986  -41.4027 N.am      3 UNK        -0.5000 
     60 C           0.1784  -14.0033  -41.0669 C.2       2 UNK         0.5000 
     61 O           1.1776  -13.8530  -40.3630 O.2       2 UNK        -0.5000 
     62 CA         -0.1558  -15.4102  -41.6101 C.3       2 UNK         0.1400 
     63 CB         -0.6126  -16.3215  -40.4597 C.3       2 UNK        -0.1800 
     64 N          -1.1694  -15.4602  -42.6729 N.am      2 UNK        -0.5000 
     65 C          -1.1224  -14.8461  -43.8655 C.2       1 UNK         0.5000 
     66 O          -0.2038  -14.0969  -44.1976 O.2       1 UNK        -0.5000 
     67 C          -0.8231  -21.9819  -47.4297 C.2       11 UNK         0.5000 
     68 O          -1.0656  -22.5210  -48.5080 O.2       11 UNK        -0.5000 
     69 N          -1.6330  -21.0800  -46.8515 N.am      12 UNK        -0.5000 
     70 CA         -2.9280  -20.6644  -47.3989 C.3       12 UNK         0.1400 
     71 CB         -3.5389  -19.5610  -46.5225 C.3       12 UNK        -0.1800 
     72 C          -3.9161  -21.8380  -47.5365 C.2       12 UNK         0.5000 
     73 O          -4.5859  -21.9503  -48.5635 O.2       12 UNK        -0.5000 
     74 N          -3.9638  -22.7039  -46.5140 N.am      13 UNK        -0.5000 
     75 CA         -4.7605  -23.9294  -46.4925 C.3       13 UNK         0.1400 
     76 CB         -4.7433  -24.5361  -45.0817 C.3       13 UNK        -0.1800 
     77 C          -4.2942  -24.9542  -47.5415 C.2       13 UNK         0.5000 
     78 O          -5.1308  -25.4960  -48.2638 O.2       13 UNK        -0.5000 
     79 N          -2.9735  -25.1661  -47.6476 N.am      14 UNK        -0.5000 
     80 CA         -2.3463  -26.0271  -48.6567 C.3       14 UNK         0.1400 
     81 CB         -0.8452  -26.1604  -48.3601 C.3       14 UNK        -0.1800 
     82 C          -2.5747  -25.5285  -50.0972 C.2       14 UNK         0.5000 
     83 O          -2.7838  -26.3393  -50.9996 O.2       14 UNK        -0.5000 
     84 N          -2.5817  -24.2013  -50.2722 N.am      15 UNK        -0.5000 
     85 CA         -2.9235  -23.5088  -51.5125 C.3       15 UNK         0.1400 
     86 CB         -2.3553  -22.0834  -51.4542 C.3       15 UNK        -0.1800 
     87 C          -4.4363  -23.4621  -51.8025 C.2       15 UNK         0.5000 
     88 O          -4.8167  -22.9255  -52.8438 O.2       15 UNK        -0.5000 
     89 N          -5.2750  -23.9860  -50.8965 N.am      16 UNK        -0.5000 
     90 CA         -6.7395  -24.0255  -50.9626 C.3       16 UNK         0.1400 
     91 CB         -7.2017  -24.9733  -52.0892 C.3       16 UNK        -0.1800 
     92 C          -7.3688  -22.6193  -51.0555 C.2       16 UNK         0.5000 
     93 O          -8.2953  -22.4077  -51.8383 O.2       16 UNK        -0.5000 
     94 N          -6.8247  -21.6808  -50.2657 N.am      17 UNK        -0.5000 
     95 CA         -7.1329  -20.2471  -50.2516 C.3       17 UNK         0.1400 
     96 CB         -8.5902  -19.9860  -49.8152 C.3       17 UNK        -0.1800 
     97 C          -6.7516  -19.5614  -51.5807 C.2       17 UNK         0.5000 
     98 O          -7.5154  -18.7487  -52.1044 O.2       17 UNK        -0.5000 
     99 N          -5.5596  -19.9144  -52.0856 N.am      18 UNK        -0.5000 
    100 CA        -4.9445  -19.4553  -53.3348 C.3       18 UNK         0.1400 
    101 CB        -4.6263  -17.9462  -53.2761 C.3       18 UNK        -0.1800 
    102 C         -5.7538  -19.8697  -54.5814 C.2       18 UNK         0.5000 
    103 O         -6.0682  -19.0314  -55.4293 O.2       18 UNK        -0.5000 
    104 N         -6.0797  -21.1655  -54.6549 N.am      19 UNK        -0.5000 
    105 CA        -6.7828  -21.7969  -55.7721 C.3       19 UNK         0.1400 
    106 CB        -8.1795  -22.2397  -55.3106 C.3       19 UNK        -0.1800 
    107 C         -5.9955  -22.9919  -56.3369 C.2       19 UNK         0.5000 
    108 O         -6.0151  -23.2027  -57.5501 O.2       19 UNK        -0.5000 
    109 N         -5.3092  -23.7461  -55.4669 N.am      20 UNK        -0.5000 
    110 CA        -4.4627  -24.8858  -55.8322 C.3       20 UNK         0.1400 
    111 CB        -4.5623  -25.9548  -54.7317 C.3       20 UNK        -0.1800 
    112 C         -2.9940  -24.4739  -56.0538 C.2       20 UNK         0.5000 
    113 O         -2.2250  -25.2539  -56.6168 O.2       20 UNK        -0.5000 
    114 N         -2.6316  -23.2629  -55.6195 N.am      21 UNK        -0.5000 
    115 CA        -1.3363  -22.6238  -55.8129 C.3       21 UNK         0.1400 
    116 CB        -0.3821  -23.0162  -54.6716 C.3       21 UNK        -0.1800 
    117 C         -1.5615  -21.1058  -55.8805 C.2       21 UNK         0.5000 
    118 O         -2.6520  -20.6386  -55.5432 O.2       21 UNK        -0.5000 
    119 N         -0.5340  -20.3697  -56.3211 N.am      22 UNK        -0.5000 
    120 CA        -0.5551  -18.9139  -56.5765 C.3       22 UNK         0.1400 
    121 C         -1.3991  -18.4901  -57.8209 C.2       22 UNK         0.5000 
    122 N         -1.7850  -19.4020  -58.7055 N.am      22 UNK        -0.7600 
    123 O         -1.6813  -17.3104  -58.0139 O.2       22 UNK        -0.5000 
    124 C124       -0.8926  -18.0554  -55.3222 C.3       23 UNK        -0.0398 
    125 S125        0.2862  -18.2673  -53.9448 S.3       23 UNK        -0.2404 
    126 C126       -0.6445  -19.3390  -52.8069 C.3       23 UNK        -0.0205 
    127 H127       -4.9533  -17.6869  -42.2980 H         1 UNK         0.0600 
    128 H128       -4.7162  -18.1687  -43.9816 H         1 UNK         0.0600 
    129 H129       -6.0736  -17.1320  -43.5439 H         1 UNK         0.0600 
    130 H130       -3.0313  -17.0374  -44.9419 H         1 UNK         0.3000 
    131 H131       -2.8946  -14.1445  -44.7673 H         1 UNK         0.0600 
    132 H132       -1.2507  -14.3291  -46.6042 H         1 UNK         0.0800 
    133 H133       -2.7539  -15.1273  -46.9483 H         1 UNK         0.0800 
    134 H134       -1.4532  -16.0308  -48.9524 H         1 UNK         0.0800 
    135 H135       -2.5089  -17.3289  -48.4398 H         1 UNK         0.0800 
    136 H136       -1.8894  -17.7849  -50.9572 H         1 UNK         0.1150 
    137 H137        1.5244  -20.3197  -51.4747 H         1 UNK         0.1150 
    138 H138        0.8802  -18.3614  -47.7312 H         1 UNK         0.1150 
    139 H139        3.3781  -19.9675  -49.8050 H         1 UNK         0.0800 
    140 H140        3.0356  -19.3581  -48.2105 H         1 UNK         0.0800 
    141 H141        1.3136  -20.4204  -46.6857 H         1 UNK         0.0800 
    142 H142        2.3647  -21.6455  -46.0427 H         1 UNK         0.0800 
    143 H143        0.7226  -23.3965  -47.0202 H         1 UNK         0.0600 
    144 H144        0.3677  -21.8858  -44.5875 H         1 UNK         0.3000 
    145 H145       -1.9232  -24.1509  -43.1013 H         1 UNK         0.0600 
    146 H146       -0.1505  -24.3049  -41.3705 H         1 UNK         0.0600 
    147 H147        1.0609  -23.7338  -42.5186 H         1 UNK         0.0600 
    148 H148        0.2754  -25.2898  -42.7608 H         1 UNK         0.0600 
    149 H149       -0.5064  -21.8563  -42.1314 H         1 UNK         0.3000 
    150 H150       -2.6283  -19.3546  -43.4496 H         1 UNK         0.0600 
    151 H151       -2.4979  -20.3544  -40.5534 H         1 UNK         0.0600 
    152 H152       -3.9700  -20.1086  -41.4852 H         1 UNK         0.0600 
    153 H153       -2.9618  -18.7327  -41.0677 H         1 UNK         0.0600 
    154 H154       -0.4951  -19.2963  -41.5474 H         1 UNK         0.3000 
    155 H155        1.4150  -18.1985  -42.2120 H         1 UNK         0.0600 
    156 H156        1.9025  -20.6555  -41.9051 H         1 UNK         0.0600 
    157 H157        3.3501  -19.7844  -42.3749 H         1 UNK         0.0600 
    158 H158        2.4841  -20.7526  -43.5639 H         1 UNK         0.0600 
    159 H159        1.6841  -18.2750  -45.0787 H         1 UNK         0.3000 
    160 H160        4.0449  -17.4039  -45.9712 H         1 UNK         0.0600 
    161 H161        1.9651  -15.2147  -45.4584 H         1 UNK         0.0600 
    162 H162        1.8454  -16.5964  -46.5439 H         1 UNK         0.0600 
    163 H163        2.9360  -15.2854  -46.9285 H         1 UNK         0.0600 
    164 H164        4.4109  -14.8882  -44.4026 H         1 UNK         0.3000 
    165 H165        7.8236  -14.9596  -44.6647 H         1 UNK         0.0600 
    166 H166        7.9769  -12.9135  -46.0773 H         1 UNK         0.0600 
    167 H167        7.7419  -14.3388  -47.0747 H         1 UNK         0.0600 
    168 H168        6.3911  -13.2530  -46.7722 H         1 UNK         0.0600 
    169 H169        5.8818  -12.7865  -44.4271 H         1 UNK         0.3000 
    170 H170        5.0258  -13.3687  -41.1092 H         1 UNK         0.0600 
    171 H171        7.0736  -11.2457  -41.9469 H         1 UNK         0.0600 
    172 H172        6.0344  -11.1824  -40.5220 H         1 UNK         0.0600 
    173 H173        7.2879  -12.4057  -40.6414 H         1 UNK         0.0600 
    174 H174        4.6656  -11.0173  -42.5887 H         1 UNK         0.3000 
    175 H175        2.8215  -10.4979  -43.6471 H         1 UNK         0.0600 
    176 H176        1.8496  -12.7530  -45.4877 H         1 UNK         0.0600 
    177 H177        1.5340  -11.0341  -45.7037 H         1 UNK         0.0600 
    178 H178        3.1759  -11.6495  -45.8302 H         1 UNK         0.0600 
    179 H179        0.6107  -12.4651  -43.3863 H         1 UNK         0.3000 
    180 H180       -0.1961  -11.4393  -40.1031 H         1 UNK         0.0600 
    181 H181       -2.4909  -11.0700  -40.9817 H         1 UNK         0.0600 
    182 H182       -1.8620  -10.8841  -42.6196 H         1 UNK         0.0600 
    183 H183       -1.4644   -9.7013  -41.3790 H         1 UNK         0.0600 
    184 H184       -1.4492  -13.2204  -41.9682 H         1 UNK         0.3000 
    185 H185        0.7699  -15.8115  -42.0274 H         1 UNK         0.0600 
    186 H186       -1.5401  -15.9635  -40.0110 H         1 UNK         0.0600 
    187 H187       -0.7793  -17.3414  -40.7985 H         1 UNK         0.0600 
    188 H188        0.1387  -16.3641  -39.6699 H         1 UNK         0.0600 
    189 H189       -1.9899  -16.0140  -42.4776 H         1 UNK         0.3000 
    190 H190       -1.3393  -20.6500  -45.9821 H         1 UNK         0.3000 
    191 H191       -2.7436  -20.2526  -48.3933 H         1 UNK         0.0600 
    192 H192       -2.8117  -18.7866  -46.2949 H         1 UNK         0.0600 
    193 H193       -3.9101  -19.9506  -45.5754 H         1 UNK         0.0600 
    194 H194       -4.3795  -19.0860  -47.0294 H         1 UNK         0.0600 
    195 H195       -3.4352  -22.4902  -45.6734 H         1 UNK         0.3000 
    196 H196       -5.7913  -23.6579  -46.7297 H         1 UNK         0.0600 
    197 H197       -5.1341  -23.8328  -44.3461 H         1 UNK         0.0600 
    198 H198       -3.7362  -24.8157  -44.7734 H         1 UNK         0.0600 
    199 H199       -5.3618  -25.4333  -45.0354 H         1 UNK         0.0600 
    200 H200       -2.3485  -24.7155  -46.9859 H         1 UNK         0.3000 
    201 H201       -2.7982  -27.0176  -48.5746 H         1 UNK         0.0600 
    202 H202       -0.6748  -26.5807  -47.3688 H         1 UNK         0.0600 
    203 H203       -0.3387  -25.1962  -48.4067 H         1 UNK         0.0600 
    204 H204       -0.3616  -26.8206  -49.0811 H         1 UNK         0.0600 
    205 H205       -2.3129  -23.6091  -49.4904 H         1 UNK         0.3000 
    206 H206       -2.4510  -24.0330  -52.3455 H         1 UNK         0.0600 
    207 H207       -1.2782  -22.0950  -51.2856 H         1 UNK         0.0600 
    208 H208       -2.8087  -21.4977  -50.6543 H         1 UNK         0.0600 
    209 H209       -2.5318  -21.5559  -52.3909 H         1 UNK         0.0600 
    210 H210       -4.8764  -24.3873  -50.0562 H         1 UNK         0.3000 
    211 H211       -7.0787  -24.4481  -50.0160 H         1 UNK         0.0600 
    212 H212       -6.9404  -24.5912  -53.0756 H         1 UNK         0.0600 
    213 H213       -8.2836  -25.1080  -52.0678 H         1 UNK         0.0600 
    214 H214       -6.7501  -25.9596  -51.9828 H         1 UNK         0.0600 
    215 H215       -6.0471  -21.9533  -49.6657 H         1 UNK         0.3000 
    216 H216       -6.4849  -19.8094  -49.4907 H         1 UNK         0.0600 
    217 H217       -8.7650  -18.9202  -49.6648 H         1 UNK         0.0600 
    218 H218       -8.8153  -20.4872  -48.8739 H         1 UNK         0.0600 
    219 H219       -9.3085  -20.3302  -50.5596 H         1 UNK         0.0600 
    220 H220       -5.0487  -20.6313  -51.5920 H         1 UNK         0.3000 
    221 H221       -3.9933  -19.9802  -53.4081 H         1 UNK         0.0600 
    222 H222       -5.5303  -17.3402  -53.2146 H         1 UNK         0.0600 
    223 H223       -4.0027  -17.7080  -52.4148 H         1 UNK         0.0600 
    224 H224       -4.0848  -17.6281  -54.1672 H         1 UNK         0.0600 
    225 H225       -5.7629  -21.7779  -53.9079 H         1 UNK         0.3000 
    226 H226       -6.9075  -21.0850  -56.5905 H         1 UNK         0.0600 
    227 H227       -8.7554  -21.3944  -54.9334 H         1 UNK         0.0600 
    228 H228       -8.7430  -22.6784  -56.1349 H         1 UNK         0.0600 
    229 H229       -8.1241  -22.9848  -54.5169 H         1 UNK         0.0600 
    230 H230       -5.3051  -23.4945  -54.4820 H         1 UNK         0.3000 
    231 H231       -4.8236  -25.3289  -56.7626 H         1 UNK         0.0600 
    232 H232       -3.9975  -26.8472  -55.0039 H         1 UNK         0.0600 
    233 H233       -4.1669  -25.5990  -53.7807 H         1 UNK         0.0600 
    234 H234       -5.5957  -26.2624  -54.5723 H         1 UNK         0.0600 
    235 H235       -3.3375  -22.6474  -55.2352 H         1 UNK         0.3000 
    236 H236       -0.9132  -22.9422  -56.7679 H         1 UNK         0.0600 
    237 H237       -0.7700  -22.7144  -53.7007 H         1 UNK         0.0600 
    238 H238       -0.2233  -24.0943  -54.6447 H         1 UNK         0.0600 
    239 H239        0.5953  -22.5485  -54.7942 H         1 UNK         0.0600 
    240 H240        0.3271  -20.8357  -56.5691 H         1 UNK         0.3000 
    241 H241        0.4681  -18.6641  -56.8588 H         1 UNK         0.0600 
    242 H242       -2.3182  -19.1142  -59.5111 H         1 UNK         0.3800 
    243 H243       -1.5495  -20.3730  -58.5822 H         1 UNK         0.3800 
    244 H244       -1.9118  -18.2393  -54.9856 H         1 UNK         0.0800 
    245 H245       -0.8626  -16.9948  -55.5764 H         1 UNK         0.0800 
    246 H246       -0.4602  -20.3793  -53.0729 H         1 UNK         0.0800 
    247 H247       -1.7160  -19.1735  -52.9183 H         1 UNK         0.0800 
@<TRIPOS>BOND
     1    1    2 1    
     2    1  127 1    
     3    1  128 1    
     4    1  129 1    
     5    2    3 2    
     6    2    4 am   BACKBONE|DICT|INTERRES
     7    4    5 1    
     8    4  130 1    
     9    5    6 1    
    10    5   65 1    
    11    5  131 1    
    12    6    7 1    
    13    6  132 1    
    14    6  133 1    
    15    7    8 1    
    16    8    9 1    
    17    8  134 1    
    18    8  135 1    
    19    9   10 ar   
    20    9   14 ar   
    21   10   11 ar   
    22   10  136 1    
    23   11   12 ar   
    24   11  126 1    
    25   12   13 ar   
    26   12  137 1    
    27   13   14 ar   
    28   13   15 1    
    29   14  138 1    
    30   15   16 1    
    31   15  139 1    
    32   15  140 1    
    33   16   17 1    
    34   17   18 1    
    35   17  141 1    
    36   17  142 1    
    37   18   19 1    
    38   18   67 1    
    39   18  143 1    
    40   19   20 am   BACKBONE|DICT|INTERRES
    41   19  144 1    
    42   20   21 2    
    43   20   22 1    
    44   22   23 1    
    45   22   24 1    
    46   22  145 1    
    47   23  146 1    
    48   23  147 1    
    49   23  148 1    
    50   24   25 am   BACKBONE|DICT|INTERRES
    51   24  149 1    
    52   25   26 2    
    53   25   27 1    
    54   27   28 1    
    55   27   29 1    
    56   27  150 1    
    57   28  151 1    
    58   28  152 1    
    59   28  153 1    
    60   29   30 am   BACKBONE|DICT|INTERRES
    61   29  154 1    
    62   30   31 2    
    63   30   32 1    
    64   32   33 1    
    65   32   34 1    
    66   32  155 1    
    67   33  156 1    
    68   33  157 1    
    69   33  158 1    
    70   34   35 am   BACKBONE|DICT|INTERRES
    71   34  159 1    
    72   35   36 2    
    73   35   37 1    
    74   37   38 1    
    75   37   39 1    
    76   37  160 1    
    77   38  161 1    
    78   38  162 1    
    79   38  163 1    
    80   39   40 am   BACKBONE|DICT|INTERRES
    81   39  164 1    
    82   40   41 2    
    83   40   42 1    
    84   42   43 1    
    85   42   44 1    
    86   42  165 1    
    87   43  166 1    
    88   43  167 1    
    89   43  168 1    
    90   44   45 am   BACKBONE|DICT|INTERRES
    91   44  169 1    
    92   45   46 2    
    93   45   47 1    
    94   47   48 1    
    95   47   49 1    
    96   47  170 1    
    97   48  171 1    
    98   48  172 1    
    99   48  173 1    
   100   49   50 am   BACKBONE|DICT|INTERRES
   101   49  174 1    
   102   50   51 2    
   103   50   52 1    
   104   52   53 1    
   105   52   54 1    
   106   52  175 1    
   107   53  176 1    
   108   53  177 1    
   109   53  178 1    
   110   54   55 am   BACKBONE|DICT|INTERRES
   111   54  179 1    
   112   55   56 2    
   113   55   57 1    
   114   57   58 1    
   115   57   59 1    
   116   57  180 1    
   117   58  181 1    
   118   58  182 1    
   119   58  183 1    
   120   59   60 am   BACKBONE|DICT|INTERRES
   121   59  184 1    
   122   60   61 2    
   123   60   62 1    
   124   62   63 1    
   125   62   64 1    
   126   62  185 1    
   127   63  186 1    
   128   63  187 1    
   129   63  188 1    
   130   64   65 am   BACKBONE|DICT|INTERRES
   131   64  189 1    
   132   65   66 2    
   133   67   68 2    
   134   67   69 am   BACKBONE|DICT|INTERRES
   135   69   70 1    
   136   69  190 1    
   137   70   71 1    
   138   70   72 1    
   139   70  191 1    
   140   71  192 1    
   141   71  193 1    
   142   71  194 1    
   143   72   73 2    
   144   72   74 am   BACKBONE|DICT|INTERRES
   145   74   75 1    
   146   74  195 1    
   147   75   76 1    
   148   75   77 1    
   149   75  196 1    
   150   76  197 1    
   151   76  198 1    
   152   76  199 1    
   153   77   78 2    
   154   77   79 am   BACKBONE|DICT|INTERRES
   155   79   80 1    
   156   79  200 1    
   157   80   81 1    
   158   80   82 1    
   159   80  201 1    
   160   81  202 1    
   161   81  203 1    
   162   81  204 1    
   163   82   83 2    
   164   82   84 am   BACKBONE|DICT|INTERRES
   165   84   85 1    
   166   84  205 1    
   167   85   86 1    
   168   85   87 1    
   169   85  206 1    
   170   86  207 1    
   171   86  208 1    
   172   86  209 1    
   173   87   88 2    
   174   87   89 am   BACKBONE|DICT|INTERRES
   175   89   90 1    
   176   89  210 1    
   177   90   91 1    
   178   90   92 1    
   179   90  211 1    
   180   91  212 1    
   181   91  213 1    
   182   91  214 1    
   183   92   93 2    
   184   92   94 am   BACKBONE|DICT|INTERRES
   185   94   95 1    
   186   94  215 1    
   187   95   96 1    
   188   95   97 1    
   189   95  216 1    
   190   96  217 1    
   191   96  218 1    
   192   96  219 1    
   193   97   98 2    
   194   97   99 am   BACKBONE|DICT|INTERRES
   195   99  100 1    
   196   99  220 1    
   197  100  101 1    
   198  100  102 1    
   199  100  221 1    
   200  101  222 1    
   201  101  223 1    
   202  101  224 1    
   203  102  103 2    
   204  102  104 am   BACKBONE|DICT|INTERRES
   205  104  105 1    
   206  104  225 1    
   207  105  106 1    
   208  105  107 1    
   209  105  226 1    
   210  106  227 1    
   211  106  228 1    
   212  106  229 1    
   213  107  108 2    
   214  107  109 am   BACKBONE|DICT|INTERRES
   215  109  110 1    
   216  109  230 1    
   217  110  111 1    
   218  110  112 1    
   219  110  231 1    
   220  111  232 1    
   221  111  233 1    
   222  111  234 1    
   223  112  113 2    
   224  112  114 am   BACKBONE|DICT|INTERRES
   225  114  115 1    
   226  114  235 1    
   227  115  116 1    
   228  115  117 1    
   229  115  236 1    
   230  116  237 1    
   231  116  238 1    
   232  116  239 1    
   233  117  118 2    
   234  117  119 am   BACKBONE|DICT|INTERRES
   235  119  120 1    
   236  119  240 1    
   237  120  121 1    
   238  120  124 1    
   239  120  241 1    
   240  121  122 am   BACKBONE|DICT|INTERRES
   241  121  123 2    
   242  122  242 1    
   243  122  243 1    
   244  124  125 1    
   245  124  244 1    
   246  124  245 1    
   247  125  126 1    
   248  126  246 1    
   249  126  247 1    
@<TRIPOS>SUBSTRUCTURE
     1 UNK         1 GROUP             0       ****    0 ROOT    
