@<TRIPOS>MOLECULE
3R540
247   249    1
SMALL
USER_CHARGES


@<TRIPOS>ATOM
      1 CA          6.7064  -13.2475  -45.9339 C.3       0 UNK        -0.1800 
      2 C           5.2444  -12.9275  -45.6625 C.2       0 UNK         0.5000 
      3 O           4.8553  -12.7918  -44.5039 O.2       0 UNK        -0.5000 
      4 N           4.4406  -12.7849  -46.7244 N.am      1 UNK        -0.5000 
      5 CA          2.9877  -12.5536  -46.6877 C.3       1 UNK         0.1400 
      6 C6          2.3647  -12.5029  -48.1078 C.3       23 UNK        -0.0398 
      7 S7          2.9274  -13.8367  -49.2199 S.3       23 UNK        -0.2404 
      8 C8          1.5298  -14.9916  -49.1467 C.3       23 UNK        -0.0205 
      9 C9          1.7228  -16.1224  -50.1423 C.ar      23 UNK        -0.0193 
     10 C10         1.2348  -16.0047  -51.4474 C.ar      23 UNK        -0.1150 
     11 C11         1.4415  -17.0280  -52.3776 C.ar      23 UNK        -0.0193 
     12 C12         2.1296  -18.1802  -51.9865 C.ar      23 UNK        -0.1150 
     13 C13         2.6103  -18.3167  -50.6814 C.ar      23 UNK        -0.0193 
     14 C14         2.4113  -17.2780  -49.7658 C.ar      23 UNK        -0.1150 
     15 C15         3.3582  -19.5824  -50.2796 C.3       23 UNK        -0.0205 
     16 S16         2.7447  -20.3164  -48.7296 S.3       23 UNK        -0.2404 
     17 C17         0.9609  -20.4801  -49.0803 C.3       23 UNK        -0.0398 
     18 CA          0.3382  -21.6585  -48.3033 C.3       11 UNK         0.1400 
     19 N           0.3802  -21.4624  -46.8508 N.am      11 UNK        -0.5000 
     20 C           0.1427  -22.4327  -45.9583 C.2       10 UNK         0.5000 
     21 O          -0.1208  -23.5951  -46.2675 O.2       10 UNK        -0.5000 
     22 CA          0.1567  -22.0303  -44.4740 C.3       10 UNK         0.1400 
     23 CB          1.5970  -21.8847  -43.9608 C.3       10 UNK        -0.1800 
     24 N          -0.5897  -20.7976  -44.2201 N.am      10 UNK        -0.5000 
     25 C          -1.9091  -20.6582  -44.4145 C.2       9 UNK         0.5000 
     26 O          -2.6424  -21.5704  -44.7949 O.2       9 UNK        -0.5000 
     27 CA         -2.5070  -19.2571  -44.1889 C.3       9 UNK         0.1400 
     28 CB         -2.7436  -18.9995  -42.6942 C.3       9 UNK        -0.1800 
     29 N          -1.6823  -18.1870  -44.7516 N.am      9 UNK        -0.5000 
     30 C          -1.3938  -18.0562  -46.0545 C.2       8 UNK         0.5000 
     31 O          -1.8095  -18.8162  -46.9262 O.2       8 UNK        -0.5000 
     32 CA         -0.4394  -16.9158  -46.4454 C.3       8 UNK         0.1400 
     33 CB         -1.1846  -15.5747  -46.5356 C.3       8 UNK        -0.1800 
     34 N           0.6833  -16.7956  -45.5165 N.am      8 UNK        -0.5000 
     35 C           1.6298  -17.7311  -45.3551 C.2       7 UNK         0.5000 
     36 O           1.6706  -18.7823  -45.9927 O.2       7 UNK        -0.5000 
     37 CA          2.6654  -17.4681  -44.2488 C.3       7 UNK         0.1400 
     38 CB          3.6918  -16.4157  -44.6979 C.3       7 UNK        -0.1800 
     39 N           2.0290  -17.0393  -43.0020 N.am      7 UNK        -0.5000 
     40 C           1.2223  -17.8189  -42.2636 C.2       6 UNK         0.5000 
     41 O           0.9782  -18.9941  -42.5322 O.2       6 UNK        -0.5000 
     42 CA          0.5351  -17.1755  -41.0437 C.3       6 UNK         0.1400 
     43 CB          1.4037  -17.3468  -39.7888 C.3       6 UNK        -0.1800 
     44 N           0.2332  -15.7568  -41.2253 N.am      6 UNK        -0.5000 
     45 C          -0.5265  -15.2322  -42.1983 C.2       5 UNK         0.5000 
     46 O          -1.1383  -15.9086  -43.0246 O.2       5 UNK        -0.5000 
     47 CA         -0.5684  -13.6931  -42.2915 C.3       5 UNK         0.1400 
     48 CB         -1.8847  -13.1553  -41.7116 C.3       5 UNK        -0.1800 
     49 N           0.5591  -13.0419  -41.6137 N.am      5 UNK        -0.5000 
     50 C           1.8394  -13.1477  -41.9945 C.2       4 UNK         0.5000 
     51 O           2.2090  -13.7833  -42.9835 O.2       4 UNK        -0.5000 
     52 CA          2.8788  -12.5189  -41.0617 C.3       4 UNK         0.1400 
     53 CB          3.5816  -13.6030  -40.2240 C.3       4 UNK        -0.1800 
     54 N           3.8558  -11.7788  -41.8487 N.am      4 UNK        -0.5000 
     55 C           4.5775  -10.7503  -41.3859 C.2       3 UNK         0.5000 
     56 O           4.5341  -10.3521  -40.2208 O.2       3 UNK        -0.5000 
     57 CA          5.4748  -10.0183  -42.3965 C.3       3 UNK         0.1400 
     58 CB          6.8181  -10.7445  -42.5730 C.3       3 UNK        -0.1800 
     59 N           4.8126   -9.8716  -43.6922 N.am      3 UNK        -0.5000 
     60 C           3.8890   -8.9383  -43.9654 C.2       2 UNK         0.5000 
     61 O           3.5301   -8.0802  -43.1579 O.2       2 UNK        -0.5000 
     62 CA          3.2679   -8.9435  -45.3751 C.3       2 UNK         0.1400 
     63 CB          3.9030   -7.8455  -46.2428 C.3       2 UNK        -0.1800 
     64 N           3.4238  -10.2278  -46.0569 N.am      2 UNK        -0.5000 
     65 C           2.5987  -11.2743  -45.9146 C.2       1 UNK         0.5000 
     66 O           1.5823  -11.2587  -45.2200 O.2       1 UNK        -0.5000 
     67 C          -1.0845  -21.9674  -48.8094 C.2       11 UNK         0.5000 
     68 O          -1.2259  -22.7641  -49.7382 O.2       11 UNK        -0.5000 
     69 N          -2.1119  -21.3693  -48.1904 N.am      12 UNK        -0.5000 
     70 CA         -3.5165  -21.6616  -48.4668 C.3       12 UNK         0.1400 
     71 CB         -4.4208  -20.6169  -47.7977 C.3       12 UNK        -0.1800 
     72 C          -3.8980  -23.0812  -48.0220 C.2       12 UNK         0.5000 
     73 O          -4.5303  -23.8016  -48.7930 O.2       12 UNK        -0.5000 
     74 N          -3.4785  -23.4778  -46.8119 N.am      13 UNK        -0.5000 
     75 CA         -3.6758  -24.8199  -46.2598 C.3       13 UNK         0.1400 
     76 CB         -3.1908  -24.8608  -44.8034 C.3       13 UNK        -0.1800 
     77 C          -2.9922  -25.9139  -47.0998 C.2       13 UNK         0.5000 
     78 O          -3.6121  -26.9425  -47.3733 O.2       13 UNK        -0.5000 
     79 N          -1.7576  -25.6448  -47.5498 N.am      14 UNK        -0.5000 
     80 CA         -0.9961  -26.4944  -48.4706 C.3       14 UNK         0.1400 
     81 CB          0.4257  -25.9335  -48.6196 C.3       14 UNK        -0.1800 
     82 C          -1.6636  -26.6477  -49.8527 C.2       14 UNK         0.5000 
     83 O          -1.5271  -27.6978  -50.4805 O.2       14 UNK        -0.5000 
     84 N          -2.4075  -25.6189  -50.2769 N.am      15 UNK        -0.5000 
     85 CA         -3.2197  -25.5878  -51.4919 C.3       15 UNK         0.1400 
     86 CB         -3.1729  -24.1681  -52.0798 C.3       15 UNK        -0.1800 
     87 C          -4.6684  -26.0640  -51.2538 C.2       15 UNK         0.5000 
     88 O          -5.5545  -25.6861  -52.0192 O.2       15 UNK        -0.5000 
     89 N          -4.8947  -26.8738  -50.2075 N.am      16 UNK        -0.5000 
     90 CA         -6.1649  -27.5088  -49.8370 C.3       16 UNK         0.1400 
     91 CB         -6.5746  -28.5561  -50.8942 C.3       16 UNK        -0.1800 
     92 C          -7.2807  -26.4885  -49.5313 C.2       16 UNK         0.5000 
     93 O          -8.3971  -26.6163  -50.0368 O.2       16 UNK        -0.5000 
     94 N          -6.9350  -25.4882  -48.7091 N.am      17 UNK        -0.5000 
     95 CA         -7.7447  -24.3251  -48.3316 C.3       17 UNK         0.1400 
     96 CB         -9.0378  -24.7385  -47.5968 C.3       17 UNK        -0.1800 
     97 C          -7.9810  -23.3860  -49.5315 C.2       17 UNK         0.5000 
     98 O          -9.1094  -22.9560  -49.7773 O.2       17 UNK        -0.5000 
     99 N          -6.8829  -23.0881  -50.2408 N.am      18 UNK        -0.5000 
    100 CA        -6.7717  -22.2040  -51.4028 C.3       18 UNK         0.1400 
    101 CB        -6.9907  -20.7351  -50.9830 C.3       18 UNK        -0.1800 
    102 C         -7.6690  -22.6386  -52.5800 C.2       18 UNK         0.5000 
    103 O         -8.4474  -21.8370  -53.1034 O.2       18 UNK        -0.5000 
    104 N         -7.5535  -23.9127  -52.9761 N.am      19 UNK        -0.5000 
    105 CA        -8.2904  -24.5255  -54.0803 C.3       19 UNK         0.1400 
    106 CB        -8.2556  -26.0556  -53.9171 C.3       19 UNK        -0.1800 
    107 C         -7.7391  -24.0629  -55.4447 C.2       19 UNK         0.5000 
    108 O         -6.9992  -24.8002  -56.0986 O.2       19 UNK        -0.5000 
    109 N         -8.1013  -22.8304  -55.8280 N.am      20 UNK        -0.5000 
    110 CA        -7.7218  -22.1247  -57.0588 C.3       20 UNK         0.1400 
    111 CB        -8.2709  -22.8497  -58.3060 C.3       20 UNK        -0.1800 
    112 C         -6.2102  -21.8192  -57.1508 C.2       20 UNK         0.5000 
    113 O         -5.6489  -21.7860  -58.2477 O.2       20 UNK        -0.5000 
    114 N         -5.5829  -21.5784  -55.9953 N.am      21 UNK        -0.5000 
    115 CA        -4.1819  -21.2075  -55.8350 C.3       21 UNK         0.1400 
    116 CB        -3.2920  -22.4608  -55.9170 C.3       21 UNK        -0.1800 
    117 C         -4.0223  -20.4978  -54.4838 C.2       21 UNK         0.5000 
    118 O         -4.8722  -20.6624  -53.6064 O.2       21 UNK        -0.5000 
    119 N         -2.9384  -19.7295  -54.3375 N.am      22 UNK        -0.5000 
    120 CA        -2.5924  -18.9796  -53.1160 C.3       22 UNK         0.1400 
    121 C         -2.0367  -19.8354  -51.9386 C.2       22 UNK         0.5000 
    122 N         -1.7718  -21.1231  -52.1198 N.am      22 UNK        -0.7600 
    123 O         -1.8678  -19.3233  -50.8370 O.2       22 UNK        -0.5000 
    124 C124       -1.6883  -17.7597  -53.4341 C.3       23 UNK        -0.0398 
    125 S125       -0.1650  -18.1952  -54.3444 S.3       23 UNK        -0.2404 
    126 C126        0.9674  -16.8695  -53.8168 C.3       23 UNK        -0.0205 
    127 H127        7.3439  -12.4644  -45.5235 H         1 UNK         0.0600 
    128 H128        6.9122  -13.3314  -47.0012 H         1 UNK         0.0600 
    129 H129        6.9754  -14.1913  -45.4596 H         1 UNK         0.0600 
    130 H130        4.8226  -12.9194  -47.6502 H         1 UNK         0.3000 
    131 H131        2.5471  -13.3988  -46.1545 H         1 UNK         0.0600 
    132 H132        1.2752  -12.5185  -48.0432 H         1 UNK         0.0800 
    133 H133        2.6190  -11.5626  -48.6011 H         1 UNK         0.0800 
    134 H134        0.5962  -14.4659  -49.3532 H         1 UNK         0.0800 
    135 H135        1.4554  -15.3884  -48.1343 H         1 UNK         0.0800 
    136 H136        0.7147  -15.1043  -51.7433 H         1 UNK         0.1150 
    137 H137        2.2928  -18.9702  -52.7062 H         1 UNK         0.1150 
    138 H138        2.7929  -17.3701  -48.7583 H         1 UNK         0.1150 
    139 H139        3.2953  -20.3353  -51.0669 H         1 UNK         0.0800 
    140 H140        4.4160  -19.3442  -50.1629 H         1 UNK         0.0800 
    141 H141        0.8313  -20.6212  -50.1554 H         1 UNK         0.0800 
    142 H142        0.4601  -19.5426  -48.8302 H         1 UNK         0.0800 
    143 H143        0.9374  -22.5447  -48.5236 H         1 UNK         0.0600 
    144 H144        0.6285  -20.5341  -46.5240 H         1 UNK         0.3000 
    145 H145       -0.3233  -22.8323  -43.9096 H         1 UNK         0.0600 
    146 H146        1.6147  -21.7040  -42.8860 H         1 UNK         0.0600 
    147 H147        2.1726  -22.7922  -44.1474 H         1 UNK         0.0600 
    148 H148        2.1172  -21.0586  -44.4468 H         1 UNK         0.0600 
    149 H149       -0.0565  -20.0115  -43.8603 H         1 UNK         0.3000 
    150 H150       -3.4743  -19.2232  -44.6940 H         1 UNK         0.0600 
    151 H151       -3.4359  -19.7329  -42.2791 H         1 UNK         0.0600 
    152 H152       -3.1729  -18.0119  -42.5241 H         1 UNK         0.0600 
    153 H153       -1.8176  -19.0672  -42.1247 H         1 UNK         0.0600 
    154 H154       -1.3358  -17.4837  -44.1048 H         1 UNK         0.3000 
    155 H155       -0.0358  -17.1504  -47.4327 H         1 UNK         0.0600 
    156 H156       -1.6450  -15.3012  -45.5860 H         1 UNK         0.0600 
    157 H157       -1.9793  -15.6241  -47.2810 H         1 UNK         0.0600 
    158 H158       -0.5165  -14.7642  -46.8259 H         1 UNK         0.0600 
    159 H159        0.6864  -15.9930  -44.9045 H         1 UNK         0.3000 
    160 H160        3.1963  -18.4029  -44.0563 H         1 UNK         0.0600 
    161 H161        4.4582  -16.2609  -43.9383 H         1 UNK         0.0600 
    162 H162        3.2239  -15.4514  -44.8971 H         1 UNK         0.0600 
    163 H163        4.1973  -16.7285  -45.6125 H         1 UNK         0.0600 
    164 H164        2.1544  -16.0699  -42.7393 H         1 UNK         0.3000 
    165 H165       -0.4099  -17.6946  -40.8783 H         1 UNK         0.0600 
    166 H166        0.8971  -16.9656  -38.9019 H         1 UNK         0.0600 
    167 H167        1.6239  -18.3998  -39.6079 H         1 UNK         0.0600 
    168 H168        2.3563  -16.8239  -39.8836 H         1 UNK         0.0600 
    169 H169        0.6830  -15.1182  -40.5876 H         1 UNK         0.3000 
    170 H170       -0.5249  -13.4295  -43.3505 H         1 UNK         0.0600 
    171 H171       -2.7438  -13.6014  -42.2148 H         1 UNK         0.0600 
    172 H172       -1.9765  -13.3762  -40.6475 H         1 UNK         0.0600 
    173 H173       -1.9603  -12.0754  -41.8397 H         1 UNK         0.0600 
    174 H174        0.3349  -12.5107  -40.7843 H         1 UNK         0.3000 
    175 H175        2.3658  -11.8277  -40.3892 H         1 UNK         0.0600 
    176 H176        4.1238  -14.3079  -40.8560 H         1 UNK         0.0600 
    177 H177        4.2944  -13.1651  -39.5252 H         1 UNK         0.0600 
    178 H178        2.8617  -14.1731  -39.6359 H         1 UNK         0.0600 
    179 H179        3.9611  -12.0804  -42.8148 H         1 UNK         0.3000 
    180 H180        5.6874   -9.0237  -41.9981 H         1 UNK         0.0600 
    181 H181        6.6875  -11.7693  -42.9198 H         1 UNK         0.0600 
    182 H182        7.3593  -10.7896  -41.6272 H         1 UNK         0.0600 
    183 H183        7.4567  -10.2262  -43.2884 H         1 UNK         0.0600 
    184 H184        4.9917  -10.5963  -44.3736 H         1 UNK         0.3000 
    185 H185        2.2044   -8.7185  -45.2686 H         1 UNK         0.0600 
    186 H186        3.7818   -6.8641  -45.7823 H         1 UNK         0.0600 
    187 H187        4.9717   -8.0115  -46.3851 H         1 UNK         0.0600 
    188 H188        3.4356   -7.8008  -47.2266 H         1 UNK         0.0600 
    189 H189        4.2341  -10.3318  -46.6506 H         1 UNK         0.3000 
    190 H190       -1.9232  -20.6425  -47.5057 H         1 UNK         0.3000 
    191 H191       -3.6708  -21.5964  -49.5461 H         1 UNK         0.0600 
    192 H192       -4.2656  -20.5768  -46.7199 H         1 UNK         0.0600 
    193 H193       -5.4740  -20.8428  -47.9679 H         1 UNK         0.0600 
    194 H194       -4.2304  -19.6217  -48.1999 H         1 UNK         0.0600 
    195 H195       -2.9986  -22.8087  -46.2151 H         1 UNK         0.3000 
    196 H196       -4.7486  -25.0229  -46.2633 H         1 UNK         0.0600 
    197 H197       -3.3433  -25.8490  -44.3678 H         1 UNK         0.0600 
    198 H198       -3.7366  -24.1460  -44.1873 H         1 UNK         0.0600 
    199 H199       -2.1292  -24.6263  -44.7241 H         1 UNK         0.0600 
    200 H200       -1.2983  -24.7954  -47.2314 H         1 UNK         0.3000 
    201 H201       -0.9272  -27.4888  -48.0250 H         1 UNK         0.0600 
    202 H202        0.9321  -25.8787  -47.6558 H         1 UNK         0.0600 
    203 H203        0.4181  -24.9325  -49.0515 H         1 UNK         0.0600 
    204 H204        1.0303  -26.5673  -49.2696 H         1 UNK         0.0600 
    205 H205       -2.4554  -24.7912  -49.6965 H         1 UNK         0.3000 
    206 H206       -2.7892  -26.2643  -52.2326 H         1 UNK         0.0600 
    207 H207       -2.1492  -23.8903  -52.3282 H         1 UNK         0.0600 
    208 H208       -3.7583  -24.0938  -52.9961 H         1 UNK         0.0600 
    209 H209       -3.5621  -23.4293  -51.3793 H         1 UNK         0.0600 
    210 H210       -4.1182  -27.0718  -49.5895 H         1 UNK         0.3000 
    211 H211       -5.9776  -28.0421  -48.9038 H         1 UNK         0.0600 
    212 H212       -6.8171  -28.0940  -51.8516 H         1 UNK         0.0600 
    213 H213       -7.4532  -29.1149  -50.5699 H         1 UNK         0.0600 
    214 H214       -5.7760  -29.2783  -51.0634 H         1 UNK         0.0600 
    215 H215       -5.9620  -25.4343  -48.4348 H         1 UNK         0.3000 
    216 H216       -7.1418  -23.7581  -47.6206 H         1 UNK         0.0600 
    217 H217       -9.5480  -23.8640  -47.1917 H         1 UNK         0.0600 
    218 H218       -8.8210  -25.4037  -46.7611 H         1 UNK         0.0600 
    219 H219       -9.7418  -25.2455  -48.2568 H         1 UNK         0.0600 
    220 H220       -6.0109  -23.5052  -49.9262 H         1 UNK         0.3000 
    221 H221       -5.7436  -22.2971  -51.7527 H         1 UNK         0.0600 
    222 H222       -7.9949  -20.5680  -50.5930 H         1 UNK         0.0600 
    223 H223       -6.2763  -20.4341  -50.2181 H         1 UNK         0.0600 
    224 H224       -6.8540  -20.0617  -51.8297 H         1 UNK         0.0600 
    225 H225       -6.8662  -24.5119  -52.5209 H         1 UNK         0.3000 
    226 H226       -9.3353  -24.2145  -54.0171 H         1 UNK         0.0600 
    227 H227       -8.8378  -26.5442  -54.6990 H         1 UNK         0.0600 
    228 H228       -7.2392  -26.4468  -53.9719 H         1 UNK         0.0600 
    229 H229       -8.6766  -26.3589  -52.9581 H         1 UNK         0.0600 
    230 H230       -8.6366  -22.2865  -55.1593 H         1 UNK         0.3000 
    231 H231       -8.2151  -21.1531  -57.0078 H         1 UNK         0.0600 
    232 H232       -9.3399  -23.0408  -58.2127 H         1 UNK         0.0600 
    233 H233       -7.7720  -23.8044  -58.4740 H         1 UNK         0.0600 
    234 H234       -8.1285  -22.2462  -59.2032 H         1 UNK         0.0600 
    235 H235       -6.1094  -21.5784  -55.1304 H         1 UNK         0.3000 
    236 H236       -3.9027  -20.5059  -56.6240 H         1 UNK         0.0600 
    237 H237       -3.3617  -22.9306  -56.8981 H         1 UNK         0.0600 
    238 H238       -2.2427  -22.2137  -55.7519 H         1 UNK         0.0600 
    239 H239       -3.5790  -23.2041  -55.1736 H         1 UNK         0.0600 
    240 H240       -2.2711  -19.6570  -55.0923 H         1 UNK         0.3000 
    241 H241       -3.5271  -18.5683  -52.7295 H         1 UNK         0.0600 
    242 H242       -1.4709  -21.6889  -51.3344 H         1 UNK         0.3800 
    243 H243       -1.9035  -21.5450  -53.0227 H         1 UNK         0.3800 
    244 H244       -2.2448  -17.0468  -54.0438 H         1 UNK         0.0800 
    245 H245       -1.4324  -17.2236  -52.5184 H         1 UNK         0.0800 
    246 H246        1.8403  -16.8767  -54.4709 H         1 UNK         0.0800 
    247 H247        0.4818  -15.9039  -53.9668 H         1 UNK         0.0800 
@<TRIPOS>BOND
     1    1    2 1    
     2    1  127 1    
     3    1  128 1    
     4    1  129 1    
     5    2    3 2    
     6    2    4 am   BACKBONE|DICT|INTERRES
     7    4    5 1    
     8    4  130 1    
     9    5    6 1    
    10    5   65 1    
    11    5  131 1    
    12    6    7 1    
    13    6  132 1    
    14    6  133 1    
    15    7    8 1    
    16    8    9 1    
    17    8  134 1    
    18    8  135 1    
    19    9   10 ar   
    20    9   14 ar   
    21   10   11 ar   
    22   10  136 1    
    23   11   12 ar   
    24   11  126 1    
    25   12   13 ar   
    26   12  137 1    
    27   13   14 ar   
    28   13   15 1    
    29   14  138 1    
    30   15   16 1    
    31   15  139 1    
    32   15  140 1    
    33   16   17 1    
    34   17   18 1    
    35   17  141 1    
    36   17  142 1    
    37   18   19 1    
    38   18   67 1    
    39   18  143 1    
    40   19   20 am   BACKBONE|DICT|INTERRES
    41   19  144 1    
    42   20   21 2    
    43   20   22 1    
    44   22   23 1    
    45   22   24 1    
    46   22  145 1    
    47   23  146 1    
    48   23  147 1    
    49   23  148 1    
    50   24   25 am   BACKBONE|DICT|INTERRES
    51   24  149 1    
    52   25   26 2    
    53   25   27 1    
    54   27   28 1    
    55   27   29 1    
    56   27  150 1    
    57   28  151 1    
    58   28  152 1    
    59   28  153 1    
    60   29   30 am   BACKBONE|DICT|INTERRES
    61   29  154 1    
    62   30   31 2    
    63   30   32 1    
    64   32   33 1    
    65   32   34 1    
    66   32  155 1    
    67   33  156 1    
    68   33  157 1    
    69   33  158 1    
    70   34   35 am   BACKBONE|DICT|INTERRES
    71   34  159 1    
    72   35   36 2    
    73   35   37 1    
    74   37   38 1    
    75   37   39 1    
    76   37  160 1    
    77   38  161 1    
    78   38  162 1    
    79   38  163 1    
    80   39   40 am   BACKBONE|DICT|INTERRES
    81   39  164 1    
    82   40   41 2    
    83   40   42 1    
    84   42   43 1    
    85   42   44 1    
    86   42  165 1    
    87   43  166 1    
    88   43  167 1    
    89   43  168 1    
    90   44   45 am   BACKBONE|DICT|INTERRES
    91   44  169 1    
    92   45   46 2    
    93   45   47 1    
    94   47   48 1    
    95   47   49 1    
    96   47  170 1    
    97   48  171 1    
    98   48  172 1    
    99   48  173 1    
   100   49   50 am   BACKBONE|DICT|INTERRES
   101   49  174 1    
   102   50   51 2    
   103   50   52 1    
   104   52   53 1    
   105   52   54 1    
   106   52  175 1    
   107   53  176 1    
   108   53  177 1    
   109   53  178 1    
   110   54   55 am   BACKBONE|DICT|INTERRES
   111   54  179 1    
   112   55   56 2    
   113   55   57 1    
   114   57   58 1    
   115   57   59 1    
   116   57  180 1    
   117   58  181 1    
   118   58  182 1    
   119   58  183 1    
   120   59   60 am   BACKBONE|DICT|INTERRES
   121   59  184 1    
   122   60   61 2    
   123   60   62 1    
   124   62   63 1    
   125   62   64 1    
   126   62  185 1    
   127   63  186 1    
   128   63  187 1    
   129   63  188 1    
   130   64   65 am   BACKBONE|DICT|INTERRES
   131   64  189 1    
   132   65   66 2    
   133   67   68 2    
   134   67   69 am   BACKBONE|DICT|INTERRES
   135   69   70 1    
   136   69  190 1    
   137   70   71 1    
   138   70   72 1    
   139   70  191 1    
   140   71  192 1    
   141   71  193 1    
   142   71  194 1    
   143   72   73 2    
   144   72   74 am   BACKBONE|DICT|INTERRES
   145   74   75 1    
   146   74  195 1    
   147   75   76 1    
   148   75   77 1    
   149   75  196 1    
   150   76  197 1    
   151   76  198 1    
   152   76  199 1    
   153   77   78 2    
   154   77   79 am   BACKBONE|DICT|INTERRES
   155   79   80 1    
   156   79  200 1    
   157   80   81 1    
   158   80   82 1    
   159   80  201 1    
   160   81  202 1    
   161   81  203 1    
   162   81  204 1    
   163   82   83 2    
   164   82   84 am   BACKBONE|DICT|INTERRES
   165   84   85 1    
   166   84  205 1    
   167   85   86 1    
   168   85   87 1    
   169   85  206 1    
   170   86  207 1    
   171   86  208 1    
   172   86  209 1    
   173   87   88 2    
   174   87   89 am   BACKBONE|DICT|INTERRES
   175   89   90 1    
   176   89  210 1    
   177   90   91 1    
   178   90   92 1    
   179   90  211 1    
   180   91  212 1    
   181   91  213 1    
   182   91  214 1    
   183   92   93 2    
   184   92   94 am   BACKBONE|DICT|INTERRES
   185   94   95 1    
   186   94  215 1    
   187   95   96 1    
   188   95   97 1    
   189   95  216 1    
   190   96  217 1    
   191   96  218 1    
   192   96  219 1    
   193   97   98 2    
   194   97   99 am   BACKBONE|DICT|INTERRES
   195   99  100 1    
   196   99  220 1    
   197  100  101 1    
   198  100  102 1    
   199  100  221 1    
   200  101  222 1    
   201  101  223 1    
   202  101  224 1    
   203  102  103 2    
   204  102  104 am   BACKBONE|DICT|INTERRES
   205  104  105 1    
   206  104  225 1    
   207  105  106 1    
   208  105  107 1    
   209  105  226 1    
   210  106  227 1    
   211  106  228 1    
   212  106  229 1    
   213  107  108 2    
   214  107  109 am   BACKBONE|DICT|INTERRES
   215  109  110 1    
   216  109  230 1    
   217  110  111 1    
   218  110  112 1    
   219  110  231 1    
   220  111  232 1    
   221  111  233 1    
   222  111  234 1    
   223  112  113 2    
   224  112  114 am   BACKBONE|DICT|INTERRES
   225  114  115 1    
   226  114  235 1    
   227  115  116 1    
   228  115  117 1    
   229  115  236 1    
   230  116  237 1    
   231  116  238 1    
   232  116  239 1    
   233  117  118 2    
   234  117  119 am   BACKBONE|DICT|INTERRES
   235  119  120 1    
   236  119  240 1    
   237  120  121 1    
   238  120  124 1    
   239  120  241 1    
   240  121  122 am   BACKBONE|DICT|INTERRES
   241  121  123 2    
   242  122  242 1    
   243  122  243 1    
   244  124  125 1    
   245  124  244 1    
   246  124  245 1    
   247  125  126 1    
   248  126  246 1    
   249  126  247 1    
@<TRIPOS>SUBSTRUCTURE
     1 UNK         1 GROUP             0       ****    0 ROOT    
